[H]O[C@]([H])(C([H])([H])[H])[C@]([H])(C(=O)N([H])[C@]([H])(C(=O)N1C([H])([H])C([H])([H])C([H])([H])[C@@]1([H])C(=O)N([H])[C@]([H])(C(=O)c1nc2c([H])c([H])c([H])c([H])c2s1)C([H])([H])C([H])([H])C([H])([H])N=C(N([H])[H])N([H])[H])C([H])([H])c1c([H])c([H])c([H])c([H])c1[H])N([H])[H]


 54 57  0  0  0  0  0  0  0  0999 V2000
   37.6278  -19.2933   36.3184 C   0  0  0  0  0  0  0  0  0  0  0  0
   37.9828  -19.6196   37.5004 O   0  0  0  0  0  0  0  0  0  0  0  0
   38.3629  -19.7030   35.1749 N   0  0  0  0  0  0  0  0  0  0  0  0
   37.9041  -19.4710   33.7880 C   0  0  0  0  0  0  0  0  0  0  0  0
   39.1252  -18.8482   33.1713 C   0  0  0  0  0  0  0  0  0  0  0  0
   40.1851  -19.8361   33.6655 C   0  0  0  0  0  0  0  0  0  0  0  0
   39.6087  -20.3793   34.9925 C   0  0  0  0  0  0  0  0  0  0  0  0
   40.6658  -20.1576   35.9744 C   0  0  0  0  0  0  0  0  0  0  0  0
   41.6180  -19.3779   35.7563 O   0  0  0  0  0  0  0  0  0  0  0  0
   40.5765  -20.8636   37.2001 N   0  0  0  0  0  0  0  0  0  0  0  0
   39.8105  -21.5136   37.3722 H   0  0  0  0  0  0  0  0  0  0  0  0
   41.5675  -20.7126   38.2908 C   0  0  0  0  0  0  0  0  0  0  0  0
   41.3286  -21.6365   39.3658 C   0  0  0  0  0  0  0  0  0  0  0  0
   42.2036  -22.3718   39.8325 O   0  0  0  0  0  0  0  0  0  0  0  0
   39.9751  -21.7195   39.9732 C   0  0  0  0  0  0  0  0  0  0  0  0
   38.8813  -22.2249   39.4333 N   0  0  0  0  0  0  0  0  0  0  0  0
   37.7639  -22.2304   40.0999 C   0  0  0  0  0  0  0  0  0  0  0  0
   36.5327  -22.7435   39.6390 C   0  0  0  0  0  0  0  0  0  0  0  0
   35.4472  -22.6901   40.4414 C   0  0  0  0  0  0  0  0  0  0  0  0
   35.4225  -22.1628   41.7185 C   0  0  0  0  0  0  0  0  0  0  0  0
   36.6252  -21.6588   42.1712 C   0  0  0  0  0  0  0  0  0  0  0  0
   37.7738  -21.6986   41.3623 C   0  0  0  0  0  0  0  0  0  0  0  0
   39.4141  -21.2182   41.5076 S   0  0  0  0  0  0  0  0  0  0  0  0
   41.7115  -19.2807   38.5974 C   0  0  0  0  0  0  0  0  0  0  0  0
   43.0240  -18.6787   38.8583 C   0  0  0  0  0  0  0  0  0  0  0  0
   43.7470  -19.0589   40.1162 C   0  0  0  0  0  0  0  0  0  0  0  0
   42.9262  -18.7415   41.2865 N   0  0  0  0  0  0  0  0  0  0  0  0
   42.7152  -19.5432   42.2527 C   0  0  0  0  0  0  0  0  0  0  0  0
   41.8975  -19.1024   43.3259 N   0  0  0  0  0  0  0  0  0  0  0  0
   43.2446  -20.8602   42.3321 N   0  0  0  0  0  0  0  0  0  0  0  0
   42.1764  -18.2511   43.8363 H   0  0  0  0  0  0  0  0  0  0  0  0
   41.0399  -19.6156   43.5998 H   0  0  0  0  0  0  0  0  0  0  0  0
   42.6299  -21.6953   42.3702 H   0  0  0  0  0  0  0  0  0  0  0  0
   44.2723  -21.0126   42.3522 H   0  0  0  0  0  0  0  0  0  0  0  0
   36.3945  -18.4616   36.2765 C   0  0  0  0  0  0  0  0  0  0  0  0
   34.3022  -19.0821   34.9629 C   0  0  0  0  0  0  0  0  0  0  0  0
   34.4302  -18.1923   34.0828 O   0  0  0  0  0  0  0  0  0  0  0  0
   35.2078  -19.2529   36.0162 N   0  0  0  0  0  0  0  0  0  0  0  0
   34.9882  -20.0520   36.6785 H   0  0  0  0  0  0  0  0  0  0  0  0
   33.0918  -19.9543   34.7913 C   0  0  0  0  0  0  0  0  0  0  0  0
   33.0857  -20.6228   33.5110 N   0  0  0  0  0  0  0  0  0  0  0  0
   33.8156  -20.2388   32.8888 H   0  0  0  0  0  0  0  0  0  0  0  0
   33.1941  -21.6638   33.6006 H   0  0  0  0  0  0  0  0  0  0  0  0
   30.5975  -19.9169   34.9699 C   0  0  0  0  0  0  0  0  0  0  0  0
   31.8347  -19.0784   34.7844 C   0  0  0  0  0  0  0  0  0  0  0  0
   31.8625  -18.1277   35.7999 O   0  0  0  0  0  0  0  0  0  0  0  0
   31.2206  -18.3572   36.4941 H   0  0  0  0  0  0  0  0  0  0  0  0
   36.1876  -17.5982   37.4826 C   0  0  0  0  0  0  0  0  0  0  0  0
   36.1477  -16.1395   37.1813 C   0  0  0  0  0  0  0  0  0  0  0  0
   37.0935  -15.2451   37.6259 C   0  0  0  0  0  0  0  0  0  0  0  0
   37.0082  -13.8942   37.3236 C   0  0  0  0  0  0  0  0  0  0  0  0
   35.9729  -13.4041   36.5675 C   0  0  0  0  0  0  0  0  0  0  0  0
   35.0129  -14.2699   36.1078 C   0  0  0  0  0  0  0  0  0  0  0  0
   35.1158  -15.5998   36.4189 C   0  0  0  0  0  0  0  0  0  0  0  0
 44 45  1  0  0  0
 45 46  1  0  0  0
 45 40  1  0  0  0
 40 41  1  0  0  0
 40 36  1  0  0  0
 36 37  2  0  0  0
 36 38  1  0  0  0
 38 35  1  0  0  0
 35 48  1  0  0  0
 48 49  1  0  0  0
 49 50  2  0  0  0
 50 51  1  0  0  0
 51 52  2  0  0  0
 52 53  1  0  0  0
 53 54  2  0  0  0
 35  1  1  0  0  0
  1  2  2  0  0  0
  1  3  1  0  0  0
  3  4  1  0  0  0
  4  5  1  0  0  0
  5  6  1  0  0  0
  6  7  1  0  0  0
  7  8  1  0  0  0
  8  9  2  0  0  0
  8 10  1  0  0  0
 10 12  1  0  0  0
 12 24  1  0  0  0
 24 25  1  0  0  0
 25 26  1  0  0  0
 26 27  1  0  0  0
 27 28  2  0  0  0
 28 29  1  0  0  0
 28 30  1  0  0  0
 12 13  1  0  0  0
 13 14  2  0  0  0
 13 15  1  0  0  0
 15 16  2  0  0  0
 16 17  1  0  0  0
 17 18  2  0  0  0
 18 19  1  0  0  0
 19 20  2  0  0  0
 20 21  1  0  0  0
 21 22  2  0  0  0
 22 23  1  0  0  0
 54 49  1  0  0  0
  7  3  1  0  0  0
 23 15  1  0  0  0
 22 17  1  0  0  0
 46 47  1  0  0  0
 41 42  1  0  0  0
 41 43  1  0  0  0
 38 39  1  0  0  0
 10 11  1  0  0  0
 29 31  1  0  0  0
 29 32  1  0  0  0
 30 33  1  0  0  0
 30 34  1  0  0  0
M  END
> <minimizedAffinity>
-7.27154

> <CNNscore>
0.2941089869

> <CNNaffinity>
6.6092691422

> <CNN_VS>
1.9438455105

> <CNNaffinity_variance>
0.4303369522

$$$$
[H]O[C@]([H])(C([H])([H])[H])[C@]([H])(C(=O)N([H])[C@]([H])(C(=O)N1C([H])([H])C([H])([H])C([H])([H])[C@@]1([H])C(=O)N([H])[C@]([H])(C(=O)c1nc2c([H])c([H])c([H])c([H])c2s1)C([H])([H])C([H])([H])C([H])([H])N=C(N([H])[H])N([H])[H])C([H])([H])c1c([H])c([H])c([H])c([H])c1[H])N([H])[H]


 54 57  0  0  0  0  0  0  0  0999 V2000
   36.8635  -18.5067   36.4870 C   0  0  0  0  0  0  0  0  0  0  0  0
   38.0261  -18.3134   35.9964 O   0  0  0  0  0  0  0  0  0  0  0  0
   36.6326  -19.4577   37.5155 N   0  0  0  0  0  0  0  0  0  0  0  0
   35.3344  -19.6052   38.2091 C   0  0  0  0  0  0  0  0  0  0  0  0
   35.1049  -21.0866   38.0980 C   0  0  0  0  0  0  0  0  0  0  0  0
   36.4806  -21.5860   38.5468 C   0  0  0  0  0  0  0  0  0  0  0  0
   37.4473  -20.4497   38.1439 C   0  0  0  0  0  0  0  0  0  0  0  0
   38.4780  -21.1053   37.3447 C   0  0  0  0  0  0  0  0  0  0  0  0
   38.2192  -22.0726   36.5967 O   0  0  0  0  0  0  0  0  0  0  0  0
   39.7994  -20.6027   37.4445 N   0  0  0  0  0  0  0  0  0  0  0  0
   40.0154  -19.8257   38.0679 H   0  0  0  0  0  0  0  0  0  0  0  0
   40.9335  -21.1590   36.6707 C   0  0  0  0  0  0  0  0  0  0  0  0
   41.8190  -21.9337   37.4965 C   0  0  0  0  0  0  0  0  0  0  0  0
   42.4925  -22.8754   37.0680 O   0  0  0  0  0  0  0  0  0  0  0  0
   41.9609  -21.5957   38.9365 C   0  0  0  0  0  0  0  0  0  0  0  0
   42.1349  -20.3998   39.4682 N   0  0  0  0  0  0  0  0  0  0  0  0
   42.2365  -20.2648   40.7583 C   0  0  0  0  0  0  0  0  0  0  0  0
   42.4183  -19.0465   41.4469 C   0  0  0  0  0  0  0  0  0  0  0  0
   42.5021  -19.0502   42.7953 C   0  0  0  0  0  0  0  0  0  0  0  0
   42.4239  -20.1724   43.5978 C   0  0  0  0  0  0  0  0  0  0  0  0
   42.2476  -21.3657   42.9266 C   0  0  0  0  0  0  0  0  0  0  0  0
   42.1562  -21.3975   41.5245 C   0  0  0  0  0  0  0  0  0  0  0  0
   41.9378  -22.5988   40.3198 S   0  0  0  0  0  0  0  0  0  0  0  0
   41.4935  -20.0911   35.8275 C   0  0  0  0  0  0  0  0  0  0  0  0
   42.0890  -20.3785   34.5176 C   0  0  0  0  0  0  0  0  0  0  0  0
   41.1796  -20.7614   33.3880 C   0  0  0  0  0  0  0  0  0  0  0  0
   40.3410  -19.6233   33.0063 N   0  0  0  0  0  0  0  0  0  0  0  0
   39.0851  -19.5601   33.2046 C   0  0  0  0  0  0  0  0  0  0  0  0
   38.3956  -18.3932   32.7829 N   0  0  0  0  0  0  0  0  0  0  0  0
   38.3182  -20.5853   33.8227 N   0  0  0  0  0  0  0  0  0  0  0  0
   38.6986  -17.4826   33.1598 H   0  0  0  0  0  0  0  0  0  0  0  0
   37.6053  -18.4427   32.1146 H   0  0  0  0  0  0  0  0  0  0  0  0
   37.5492  -21.0701   33.3223 H   0  0  0  0  0  0  0  0  0  0  0  0
   38.5181  -20.8730   34.8010 H   0  0  0  0  0  0  0  0  0  0  0  0
   35.8113  -17.6484   35.8781 C   0  0  0  0  0  0  0  0  0  0  0  0
   36.4955  -15.4375   36.9422 C   0  0  0  0  0  0  0  0  0  0  0  0
   36.4746  -15.8509   38.1302 O   0  0  0  0  0  0  0  0  0  0  0  0
   36.1954  -16.2508   35.8434 N   0  0  0  0  0  0  0  0  0  0  0  0
   36.2670  -15.7784   34.8961 H   0  0  0  0  0  0  0  0  0  0  0  0
   36.8725  -13.9913   36.7954 C   0  0  0  0  0  0  0  0  0  0  0  0
   37.9543  -13.6235   37.6788 N   0  0  0  0  0  0  0  0  0  0  0  0
   38.1417  -14.3712   38.3667 H   0  0  0  0  0  0  0  0  0  0  0  0
   38.8332  -13.3791   37.1580 H   0  0  0  0  0  0  0  0  0  0  0  0
   35.3243  -12.1378   36.1456 C   0  0  0  0  0  0  0  0  0  0  0  0
   35.6933  -13.1151   37.2305 C   0  0  0  0  0  0  0  0  0  0  0  0
   34.5652  -13.8755   37.5220 O   0  0  0  0  0  0  0  0  0  0  0  0
   33.8901  -13.7553   36.8317 H   0  0  0  0  0  0  0  0  0  0  0  0
   35.3547  -18.0943   34.5233 C   0  0  0  0  0  0  0  0  0  0  0  0
   34.0279  -18.7724   34.5262 C   0  0  0  0  0  0  0  0  0  0  0  0
   33.7559  -19.9141   33.8089 C   0  0  0  0  0  0  0  0  0  0  0  0
   32.5012  -20.5044   33.8395 C   0  0  0  0  0  0  0  0  0  0  0  0
   31.4861  -19.9661   34.5902 C   0  0  0  0  0  0  0  0  0  0  0  0
   31.7245  -18.8277   35.3180 C   0  0  0  0  0  0  0  0  0  0  0  0
   32.9704  -18.2605   35.2726 C   0  0  0  0  0  0  0  0  0  0  0  0
 44 45  1  0  0  0
 45 46  1  0  0  0
 45 40  1  0  0  0
 40 41  1  0  0  0
 40 36  1  0  0  0
 36 37  2  0  0  0
 36 38  1  0  0  0
 38 35  1  0  0  0
 35 48  1  0  0  0
 48 49  1  0  0  0
 49 50  2  0  0  0
 50 51  1  0  0  0
 51 52  2  0  0  0
 52 53  1  0  0  0
 53 54  2  0  0  0
 35  1  1  0  0  0
  1  2  2  0  0  0
  1  3  1  0  0  0
  3  4  1  0  0  0
  4  5  1  0  0  0
  5  6  1  0  0  0
  6  7  1  0  0  0
  7  8  1  0  0  0
  8  9  2  0  0  0
  8 10  1  0  0  0
 10 12  1  0  0  0
 12 24  1  0  0  0
 24 25  1  0  0  0
 25 26  1  0  0  0
 26 27  1  0  0  0
 27 28  2  0  0  0
 28 29  1  0  0  0
 28 30  1  0  0  0
 12 13  1  0  0  0
 13 14  2  0  0  0
 13 15  1  0  0  0
 15 16  2  0  0  0
 16 17  1  0  0  0
 17 18  2  0  0  0
 18 19  1  0  0  0
 19 20  2  0  0  0
 20 21  1  0  0  0
 21 22  2  0  0  0
 22 23  1  0  0  0
 54 49  1  0  0  0
  7  3  1  0  0  0
 23 15  1  0  0  0
 22 17  1  0  0  0
 46 47  1  0  0  0
 41 42  1  0  0  0
 41 43  1  0  0  0
 38 39  1  0  0  0
 10 11  1  0  0  0
 29 31  1  0  0  0
 29 32  1  0  0  0
 30 33  1  0  0  0
 30 34  1  0  0  0
M  END
> <minimizedAffinity>
-7.22247

> <CNNscore>
0.2572355270

> <CNNaffinity>
6.4674668312

> <CNN_VS>
1.6636621952

> <CNNaffinity_variance>
0.5744251013

$$$$
[H]O[C@]([H])(C([H])([H])[H])[C@]([H])(C(=O)N([H])[C@]([H])(C(=O)N1C([H])([H])C([H])([H])C([H])([H])[C@@]1([H])C(=O)N([H])[C@]([H])(C(=O)c1nc2c([H])c([H])c([H])c([H])c2s1)C([H])([H])C([H])([H])C([H])([H])N=C(N([H])[H])N([H])[H])C([H])([H])c1c([H])c([H])c([H])c([H])c1[H])N([H])[H]


 54 57  0  0  0  0  0  0  0  0999 V2000
   36.4933  -18.3392   37.2512 C   0  0  0  0  0  0  0  0  0  0  0  0
   37.6885  -17.8911   37.2296 O   0  0  0  0  0  0  0  0  0  0  0  0
   36.1823  -19.6195   37.7801 N   0  0  0  0  0  0  0  0  0  0  0  0
   34.7984  -20.1110   37.9572 C   0  0  0  0  0  0  0  0  0  0  0  0
   34.8737  -21.4567   37.2918 C   0  0  0  0  0  0  0  0  0  0  0  0
   36.1562  -21.9838   37.9403 C   0  0  0  0  0  0  0  0  0  0  0  0
   36.9742  -20.7107   38.2541 C   0  0  0  0  0  0  0  0  0  0  0  0
   38.2744  -20.9425   37.6325 C   0  0  0  0  0  0  0  0  0  0  0  0
   38.3824  -21.4407   36.4913 O   0  0  0  0  0  0  0  0  0  0  0  0
   39.4263  -20.5788   38.3738 N   0  0  0  0  0  0  0  0  0  0  0  0
   39.3405  -20.1893   39.3118 H   0  0  0  0  0  0  0  0  0  0  0  0
   40.8036  -20.7374   37.8517 C   0  0  0  0  0  0  0  0  0  0  0  0
   41.5499  -21.7171   38.5929 C   0  0  0  0  0  0  0  0  0  0  0  0
   42.4856  -22.3616   38.1102 O   0  0  0  0  0  0  0  0  0  0  0  0
   41.2089  -21.9750   40.0160 C   0  0  0  0  0  0  0  0  0  0  0  0
   40.2128  -22.7041   40.4846 N   0  0  0  0  0  0  0  0  0  0  0  0
   40.0480  -22.8407   41.7679 C   0  0  0  0  0  0  0  0  0  0  0  0
   39.0307  -23.5937   42.3919 C   0  0  0  0  0  0  0  0  0  0  0  0
   38.9800  -23.6552   43.7405 C   0  0  0  0  0  0  0  0  0  0  0  0
   39.8604  -23.0296   44.6026 C   0  0  0  0  0  0  0  0  0  0  0  0
   40.8557  -22.2911   43.9949 C   0  0  0  0  0  0  0  0  0  0  0  0
   40.9374  -22.2063   42.5944 C   0  0  0  0  0  0  0  0  0  0  0  0
   41.9658  -21.4435   41.4530 S   0  0  0  0  0  0  0  0  0  0  0  0
   41.3837  -19.4005   37.6480 C   0  0  0  0  0  0  0  0  0  0  0  0
   41.1757  -18.6542   36.4019 C   0  0  0  0  0  0  0  0  0  0  0  0
   40.7540  -19.4112   35.1776 C   0  0  0  0  0  0  0  0  0  0  0  0
   39.6358  -18.7298   34.5224 N   0  0  0  0  0  0  0  0  0  0  0  0
   39.2943  -18.9159   33.3101 C   0  0  0  0  0  0  0  0  0  0  0  0
   38.1870  -18.1863   32.8039 N   0  0  0  0  0  0  0  0  0  0  0  0
   39.9507  -19.8095   32.4202 N   0  0  0  0  0  0  0  0  0  0  0  0
   37.2776  -18.2841   33.2798 H   0  0  0  0  0  0  0  0  0  0  0  0
   38.2775  -17.5688   31.9767 H   0  0  0  0  0  0  0  0  0  0  0  0
   40.4087  -19.4770   31.5505 H   0  0  0  0  0  0  0  0  0  0  0  0
   39.9852  -20.8269   32.6287 H   0  0  0  0  0  0  0  0  0  0  0  0
   35.4947  -17.3964   36.6779 C   0  0  0  0  0  0  0  0  0  0  0  0
   34.8462  -14.9511   36.9746 C   0  0  0  0  0  0  0  0  0  0  0  0
   33.6896  -15.0619   36.4920 O   0  0  0  0  0  0  0  0  0  0  0  0
   35.7341  -16.0269   37.0890 N   0  0  0  0  0  0  0  0  0  0  0  0
   36.6717  -15.7966   37.5289 H   0  0  0  0  0  0  0  0  0  0  0  0
   35.2005  -13.5624   37.4231 C   0  0  0  0  0  0  0  0  0  0  0  0
   34.0308  -12.7277   37.5690 N   0  0  0  0  0  0  0  0  0  0  0  0
   33.1962  -13.1856   37.1676 H   0  0  0  0  0  0  0  0  0  0  0  0
   33.8526  -12.4567   38.5681 H   0  0  0  0  0  0  0  0  0  0  0  0
   35.5213  -11.4937   36.0548 C   0  0  0  0  0  0  0  0  0  0  0  0
   36.0389  -12.8794   36.3377 C   0  0  0  0  0  0  0  0  0  0  0  0
   37.3747  -12.7684   36.7109 O   0  0  0  0  0  0  0  0  0  0  0  0
   37.5934  -11.8412   36.9093 H   0  0  0  0  0  0  0  0  0  0  0  0
   35.3528  -17.4735   35.1890 C   0  0  0  0  0  0  0  0  0  0  0  0
   34.2382  -18.3512   34.7334 C   0  0  0  0  0  0  0  0  0  0  0  0
   34.4186  -19.4564   33.9346 C   0  0  0  0  0  0  0  0  0  0  0  0
   33.3466  -20.2386   33.5314 C   0  0  0  0  0  0  0  0  0  0  0  0
   32.0656  -19.9340   33.9185 C   0  0  0  0  0  0  0  0  0  0  0  0
   31.8511  -18.8383   34.7160 C   0  0  0  0  0  0  0  0  0  0  0  0
   32.9238  -18.0788   35.1016 C   0  0  0  0  0  0  0  0  0  0  0  0
 44 45  1  0  0  0
 45 46  1  0  0  0
 45 40  1  0  0  0
 40 41  1  0  0  0
 40 36  1  0  0  0
 36 37  2  0  0  0
 36 38  1  0  0  0
 38 35  1  0  0  0
 35 48  1  0  0  0
 48 49  1  0  0  0
 49 50  2  0  0  0
 50 51  1  0  0  0
 51 52  2  0  0  0
 52 53  1  0  0  0
 53 54  2  0  0  0
 35  1  1  0  0  0
  1  2  2  0  0  0
  1  3  1  0  0  0
  3  4  1  0  0  0
  4  5  1  0  0  0
  5  6  1  0  0  0
  6  7  1  0  0  0
  7  8  1  0  0  0
  8  9  2  0  0  0
  8 10  1  0  0  0
 10 12  1  0  0  0
 12 24  1  0  0  0
 24 25  1  0  0  0
 25 26  1  0  0  0
 26 27  1  0  0  0
 27 28  2  0  0  0
 28 29  1  0  0  0
 28 30  1  0  0  0
 12 13  1  0  0  0
 13 14  2  0  0  0
 13 15  1  0  0  0
 15 16  2  0  0  0
 16 17  1  0  0  0
 17 18  2  0  0  0
 18 19  1  0  0  0
 19 20  2  0  0  0
 20 21  1  0  0  0
 21 22  2  0  0  0
 22 23  1  0  0  0
 54 49  1  0  0  0
  7  3  1  0  0  0
 23 15  1  0  0  0
 22 17  1  0  0  0
 46 47  1  0  0  0
 41 42  1  0  0  0
 41 43  1  0  0  0
 38 39  1  0  0  0
 10 11  1  0  0  0
 29 31  1  0  0  0
 29 32  1  0  0  0
 30 33  1  0  0  0
 30 34  1  0  0  0
M  END
> <minimizedAffinity>
-6.14126

> <CNNscore>
0.2484962344

> <CNNaffinity>
6.5269155502

> <CNN_VS>
1.6219139099

> <CNNaffinity_variance>
0.1393931806

$$$$
[H]O[C@]([H])(C([H])([H])[H])[C@]([H])(C(=O)N([H])[C@]([H])(C(=O)N1C([H])([H])C([H])([H])C([H])([H])[C@@]1([H])C(=O)N([H])[C@]([H])(C(=O)c1nc2c([H])c([H])c([H])c([H])c2s1)C([H])([H])C([H])([H])C([H])([H])N=C(N([H])[H])N([H])[H])C([H])([H])c1c([H])c([H])c([H])c([H])c1[H])N([H])[H]


 54 57  0  0  0  0  0  0  0  0999 V2000
   35.5292  -18.3796   36.9562 C   0  0  0  0  0  0  0  0  0  0  0  0
   35.7888  -18.7423   38.1523 O   0  0  0  0  0  0  0  0  0  0  0  0
   34.3967  -18.8689   36.2536 N   0  0  0  0  0  0  0  0  0  0  0  0
   33.9823  -18.3623   34.9271 C   0  0  0  0  0  0  0  0  0  0  0  0
   33.8239  -19.6430   34.1563 C   0  0  0  0  0  0  0  0  0  0  0  0
   32.9955  -20.4408   35.1665 C   0  0  0  0  0  0  0  0  0  0  0  0
   33.4130  -19.8657   36.5387 C   0  0  0  0  0  0  0  0  0  0  0  0
   33.8155  -21.0299   37.3220 C   0  0  0  0  0  0  0  0  0  0  0  0
   33.1249  -21.4592   38.2712 O   0  0  0  0  0  0  0  0  0  0  0  0
   35.0305  -21.6673   36.9666 N   0  0  0  0  0  0  0  0  0  0  0  0
   35.6039  -21.3075   36.2046 H   0  0  0  0  0  0  0  0  0  0  0  0
   35.5422  -22.8710   37.6621 C   0  0  0  0  0  0  0  0  0  0  0  0
   36.7479  -22.5964   38.3951 C   0  0  0  0  0  0  0  0  0  0  0  0
   37.8773  -22.7920   37.9367 O   0  0  0  0  0  0  0  0  0  0  0  0
   36.6587  -22.0349   39.7679 C   0  0  0  0  0  0  0  0  0  0  0  0
   35.7307  -21.2273   40.2475 N   0  0  0  0  0  0  0  0  0  0  0  0
   35.7882  -20.8239   41.4831 C   0  0  0  0  0  0  0  0  0  0  0  0
   34.8599  -19.9685   42.1140 C   0  0  0  0  0  0  0  0  0  0  0  0
   35.0382  -19.6331   43.4105 C   0  0  0  0  0  0  0  0  0  0  0  0
   36.0799  -20.0618   44.2109 C   0  0  0  0  0  0  0  0  0  0  0  0
   36.9902  -20.8975   43.5958 C   0  0  0  0  0  0  0  0  0  0  0  0
   36.8345  -21.2664   42.2486 C   0  0  0  0  0  0  0  0  0  0  0  0
   37.6787  -22.2469   41.1225 S   0  0  0  0  0  0  0  0  0  0  0  0
   35.5200  -24.0009   36.7198 C   0  0  0  0  0  0  0  0  0  0  0  0
   35.9575  -25.3434   37.1191 C   0  0  0  0  0  0  0  0  0  0  0  0
   37.1162  -25.9620   36.3950 C   0  0  0  0  0  0  0  0  0  0  0  0
   37.4237  -25.1958   35.1857 N   0  0  0  0  0  0  0  0  0  0  0  0
   38.4962  -24.5323   35.0109 C   0  0  0  0  0  0  0  0  0  0  0  0
   38.6631  -23.8346   33.7862 N   0  0  0  0  0  0  0  0  0  0  0  0
   39.5462  -24.4395   35.9649 N   0  0  0  0  0  0  0  0  0  0  0  0
   38.6207  -24.3716   32.9071 H   0  0  0  0  0  0  0  0  0  0  0  0
   38.8256  -22.8114   33.7634 H   0  0  0  0  0  0  0  0  0  0  0  0
   39.8312  -23.5313   36.3778 H   0  0  0  0  0  0  0  0  0  0  0  0
   40.0539  -25.2928   36.2714 H   0  0  0  0  0  0  0  0  0  0  0  0
   36.5169  -17.4154   36.3999 C   0  0  0  0  0  0  0  0  0  0  0  0
   37.7959  -18.6173   34.5538 C   0  0  0  0  0  0  0  0  0  0  0  0
   36.8722  -18.5698   33.7010 O   0  0  0  0  0  0  0  0  0  0  0  0
   37.6777  -18.0803   35.8409 N   0  0  0  0  0  0  0  0  0  0  0  0
   38.5388  -18.1756   36.4532 H   0  0  0  0  0  0  0  0  0  0  0  0
   39.0457  -19.2997   34.0769 C   0  0  0  0  0  0  0  0  0  0  0  0
   39.0350  -19.5074   32.6476 N   0  0  0  0  0  0  0  0  0  0  0  0
   38.1009  -19.3124   32.2516 H   0  0  0  0  0  0  0  0  0  0  0  0
   39.7664  -18.9381   32.1533 H   0  0  0  0  0  0  0  0  0  0  0  0
   40.1953  -20.7894   35.7243 C   0  0  0  0  0  0  0  0  0  0  0  0
   39.1141  -20.7069   34.6790 C   0  0  0  0  0  0  0  0  0  0  0  0
   37.9123  -21.0710   35.2781 O   0  0  0  0  0  0  0  0  0  0  0  0
   38.0072  -21.0793   36.2464 H   0  0  0  0  0  0  0  0  0  0  0  0
   35.9476  -16.4465   35.4100 C   0  0  0  0  0  0  0  0  0  0  0  0
   35.4638  -15.1755   36.0189 C   0  0  0  0  0  0  0  0  0  0  0  0
   36.3003  -14.1722   36.4500 C   0  0  0  0  0  0  0  0  0  0  0  0
   35.8006  -13.0092   37.0169 C   0  0  0  0  0  0  0  0  0  0  0  0
   34.4493  -12.8209   37.1663 C   0  0  0  0  0  0  0  0  0  0  0  0
   33.5873  -13.8022   36.7460 C   0  0  0  0  0  0  0  0  0  0  0  0
   34.1021  -14.9432   36.1900 C   0  0  0  0  0  0  0  0  0  0  0  0
 44 45  1  0  0  0
 45 46  1  0  0  0
 45 40  1  0  0  0
 40 41  1  0  0  0
 40 36  1  0  0  0
 36 37  2  0  0  0
 36 38  1  0  0  0
 38 35  1  0  0  0
 35 48  1  0  0  0
 48 49  1  0  0  0
 49 50  2  0  0  0
 50 51  1  0  0  0
 51 52  2  0  0  0
 52 53  1  0  0  0
 53 54  2  0  0  0
 35  1  1  0  0  0
  1  2  2  0  0  0
  1  3  1  0  0  0
  3  4  1  0  0  0
  4  5  1  0  0  0
  5  6  1  0  0  0
  6  7  1  0  0  0
  7  8  1  0  0  0
  8  9  2  0  0  0
  8 10  1  0  0  0
 10 12  1  0  0  0
 12 24  1  0  0  0
 24 25  1  0  0  0
 25 26  1  0  0  0
 26 27  1  0  0  0
 27 28  2  0  0  0
 28 29  1  0  0  0
 28 30  1  0  0  0
 12 13  1  0  0  0
 13 14  2  0  0  0
 13 15  1  0  0  0
 15 16  2  0  0  0
 16 17  1  0  0  0
 17 18  2  0  0  0
 18 19  1  0  0  0
 19 20  2  0  0  0
 20 21  1  0  0  0
 21 22  2  0  0  0
 22 23  1  0  0  0
 54 49  1  0  0  0
  7  3  1  0  0  0
 23 15  1  0  0  0
 22 17  1  0  0  0
 46 47  1  0  0  0
 41 42  1  0  0  0
 41 43  1  0  0  0
 38 39  1  0  0  0
 10 11  1  0  0  0
 29 31  1  0  0  0
 29 32  1  0  0  0
 30 33  1  0  0  0
 30 34  1  0  0  0
M  END
> <minimizedAffinity>
-7.11229

> <CNNscore>
0.2456549108

> <CNNaffinity>
6.2485508919

> <CNN_VS>
1.5349872112

> <CNNaffinity_variance>
0.3935923576

$$$$
[H]O[C@]([H])(C([H])([H])[H])[C@]([H])(C(=O)N([H])[C@]([H])(C(=O)N1C([H])([H])C([H])([H])C([H])([H])[C@@]1([H])C(=O)N([H])[C@]([H])(C(=O)c1nc2c([H])c([H])c([H])c([H])c2s1)C([H])([H])C([H])([H])C([H])([H])N=C(N([H])[H])N([H])[H])C([H])([H])c1c([H])c([H])c([H])c([H])c1[H])N([H])[H]


 54 57  0  0  0  0  0  0  0  0999 V2000
   35.3150  -18.7593   36.5510 C   0  0  0  0  0  0  0  0  0  0  0  0
   35.6350  -19.0968   37.7399 O   0  0  0  0  0  0  0  0  0  0  0  0
   34.0803  -19.1483   35.9680 N   0  0  0  0  0  0  0  0  0  0  0  0
   33.6114  -18.6563   34.6543 C   0  0  0  0  0  0  0  0  0  0  0  0
   33.2501  -19.9432   33.9668 C   0  0  0  0  0  0  0  0  0  0  0  0
   32.4296  -20.5987   35.0805 C   0  0  0  0  0  0  0  0  0  0  0  0
   33.0226  -20.0153   36.3829 C   0  0  0  0  0  0  0  0  0  0  0  0
   33.3621  -21.1823   37.1913 C   0  0  0  0  0  0  0  0  0  0  0  0
   33.0315  -21.2729   38.3933 O   0  0  0  0  0  0  0  0  0  0  0  0
   34.0877  -22.2240   36.5612 N   0  0  0  0  0  0  0  0  0  0  0  0
   34.3739  -22.1436   35.5862 H   0  0  0  0  0  0  0  0  0  0  0  0
   34.4747  -23.4724   37.2586 C   0  0  0  0  0  0  0  0  0  0  0  0
   35.9017  -23.6342   37.3189 C   0  0  0  0  0  0  0  0  0  0  0  0
   36.5474  -24.2619   36.4744 O   0  0  0  0  0  0  0  0  0  0  0  0
   36.6629  -23.0128   38.4334 C   0  0  0  0  0  0  0  0  0  0  0  0
   37.8794  -22.5014   38.3892 N   0  0  0  0  0  0  0  0  0  0  0  0
   38.4117  -21.9834   39.4576 C   0  0  0  0  0  0  0  0  0  0  0  0
   39.6954  -21.4031   39.5394 C   0  0  0  0  0  0  0  0  0  0  0  0
   40.1223  -20.8949   40.7161 C   0  0  0  0  0  0  0  0  0  0  0  0
   39.3979  -20.8865   41.8929 C   0  0  0  0  0  0  0  0  0  0  0  0
   38.1423  -21.4550   41.8159 C   0  0  0  0  0  0  0  0  0  0  0  0
   37.6672  -21.9926   40.6074 C   0  0  0  0  0  0  0  0  0  0  0  0
   36.2305  -22.7581   40.0670 S   0  0  0  0  0  0  0  0  0  0  0  0
   33.6516  -24.5746   36.7364 C   0  0  0  0  0  0  0  0  0  0  0  0
   32.3624  -24.3274   36.0806 C   0  0  0  0  0  0  0  0  0  0  0  0
   31.1186  -24.3510   36.9183 C   0  0  0  0  0  0  0  0  0  0  0  0
   30.2154  -23.2723   36.5125 N   0  0  0  0  0  0  0  0  0  0  0  0
   29.3316  -23.3816   35.6027 C   0  0  0  0  0  0  0  0  0  0  0  0
   28.5227  -22.2521   35.3119 N   0  0  0  0  0  0  0  0  0  0  0  0
   29.0972  -24.5650   34.8505 N   0  0  0  0  0  0  0  0  0  0  0  0
   27.9665  -21.8387   36.0753 H   0  0  0  0  0  0  0  0  0  0  0  0
   28.4828  -21.8450   34.3598 H   0  0  0  0  0  0  0  0  0  0  0  0
   29.2153  -24.5903   33.8200 H   0  0  0  0  0  0  0  0  0  0  0  0
   28.8002  -25.4395   35.3268 H   0  0  0  0  0  0  0  0  0  0  0  0
   36.3502  -17.9370   35.8676 C   0  0  0  0  0  0  0  0  0  0  0  0
   38.5077  -19.1653   35.2980 C   0  0  0  0  0  0  0  0  0  0  0  0
   39.0962  -18.9067   36.3794 O   0  0  0  0  0  0  0  0  0  0  0  0
   37.2073  -18.7341   35.0121 N   0  0  0  0  0  0  0  0  0  0  0  0
   36.8260  -19.0363   34.0693 H   0  0  0  0  0  0  0  0  0  0  0  0
   39.3172  -19.9812   34.3314 C   0  0  0  0  0  0  0  0  0  0  0  0
   38.8888  -19.7821   32.9665 N   0  0  0  0  0  0  0  0  0  0  0  0
   37.9980  -19.2600   32.9300 H   0  0  0  0  0  0  0  0  0  0  0  0
   39.6174  -19.3007   32.3827 H   0  0  0  0  0  0  0  0  0  0  0  0
   40.3006  -22.1000   35.2248 C   0  0  0  0  0  0  0  0  0  0  0  0
   39.0809  -21.4700   34.6053 C   0  0  0  0  0  0  0  0  0  0  0  0
   38.0099  -21.6721   35.4702 O   0  0  0  0  0  0  0  0  0  0  0  0
   38.3303  -21.9666   36.3404 H   0  0  0  0  0  0  0  0  0  0  0  0
   35.8094  -16.7633   35.1108 C   0  0  0  0  0  0  0  0  0  0  0  0
   35.4132  -15.6171   35.9766 C   0  0  0  0  0  0  0  0  0  0  0  0
   36.3031  -14.8975   36.7397 C   0  0  0  0  0  0  0  0  0  0  0  0
   35.8833  -13.8419   37.5354 C   0  0  0  0  0  0  0  0  0  0  0  0
   34.5605  -13.4795   37.5868 C   0  0  0  0  0  0  0  0  0  0  0  0
   33.6469  -14.1765   36.8372 C   0  0  0  0  0  0  0  0  0  0  0  0
   34.0828  -15.2162   36.0593 C   0  0  0  0  0  0  0  0  0  0  0  0
 44 45  1  0  0  0
 45 46  1  0  0  0
 45 40  1  0  0  0
 40 41  1  0  0  0
 40 36  1  0  0  0
 36 37  2  0  0  0
 36 38  1  0  0  0
 38 35  1  0  0  0
 35 48  1  0  0  0
 48 49  1  0  0  0
 49 50  2  0  0  0
 50 51  1  0  0  0
 51 52  2  0  0  0
 52 53  1  0  0  0
 53 54  2  0  0  0
 35  1  1  0  0  0
  1  2  2  0  0  0
  1  3  1  0  0  0
  3  4  1  0  0  0
  4  5  1  0  0  0
  5  6  1  0  0  0
  6  7  1  0  0  0
  7  8  1  0  0  0
  8  9  2  0  0  0
  8 10  1  0  0  0
 10 12  1  0  0  0
 12 24  1  0  0  0
 24 25  1  0  0  0
 25 26  1  0  0  0
 26 27  1  0  0  0
 27 28  2  0  0  0
 28 29  1  0  0  0
 28 30  1  0  0  0
 12 13  1  0  0  0
 13 14  2  0  0  0
 13 15  1  0  0  0
 15 16  2  0  0  0
 16 17  1  0  0  0
 17 18  2  0  0  0
 18 19  1  0  0  0
 19 20  2  0  0  0
 20 21  1  0  0  0
 21 22  2  0  0  0
 22 23  1  0  0  0
 54 49  1  0  0  0
  7  3  1  0  0  0
 23 15  1  0  0  0
 22 17  1  0  0  0
 46 47  1  0  0  0
 41 42  1  0  0  0
 41 43  1  0  0  0
 38 39  1  0  0  0
 10 11  1  0  0  0
 29 31  1  0  0  0
 29 32  1  0  0  0
 30 33  1  0  0  0
 30 34  1  0  0  0
M  END
> <minimizedAffinity>
-6.93239

> <CNNscore>
0.2408352047

> <CNNaffinity>
6.0955972672

> <CNN_VS>
1.4680343866

> <CNNaffinity_variance>
0.5879637003

$$$$
[H]O[C@]([H])(C([H])([H])[H])[C@]([H])(C(=O)N([H])[C@]([H])(C(=O)N1C([H])([H])C([H])([H])C([H])([H])[C@@]1([H])C(=O)N([H])[C@]([H])(C(=O)c1nc2c([H])c([H])c([H])c([H])c2s1)C([H])([H])C([H])([H])C([H])([H])N=C(N([H])[H])N([H])[H])C([H])([H])c1c([H])c([H])c([H])c([H])c1[H])N([H])[H]


 54 57  0  0  0  0  0  0  0  0999 V2000
   38.6595  -20.8710   35.9763 C   0  0  0  0  0  0  0  0  0  0  0  0
   38.0922  -20.0519   35.1784 O   0  0  0  0  0  0  0  0  0  0  0  0
   37.9141  -21.6880   36.8667 N   0  0  0  0  0  0  0  0  0  0  0  0
   38.5227  -22.7499   37.6974 C   0  0  0  0  0  0  0  0  0  0  0  0
   37.9721  -22.4166   39.0558 C   0  0  0  0  0  0  0  0  0  0  0  0
   36.4979  -22.2300   38.6879 C   0  0  0  0  0  0  0  0  0  0  0  0
   36.5301  -21.7600   37.2161 C   0  0  0  0  0  0  0  0  0  0  0  0
   35.7489  -20.5270   37.2031 C   0  0  0  0  0  0  0  0  0  0  0  0
   35.6052  -19.8245   38.2269 O   0  0  0  0  0  0  0  0  0  0  0  0
   35.1510  -20.1461   35.9758 N   0  0  0  0  0  0  0  0  0  0  0  0
   35.2521  -20.7274   35.1447 H   0  0  0  0  0  0  0  0  0  0  0  0
   34.3540  -18.9074   35.8183 C   0  0  0  0  0  0  0  0  0  0  0  0
   33.2854  -19.0727   34.8712 C   0  0  0  0  0  0  0  0  0  0  0  0
   33.1799  -18.3940   33.8454 O   0  0  0  0  0  0  0  0  0  0  0  0
   32.2525  -20.1146   35.1066 C   0  0  0  0  0  0  0  0  0  0  0  0
   31.0867  -19.9692   35.7091 N   0  0  0  0  0  0  0  0  0  0  0  0
   30.2822  -20.9842   35.8333 C   0  0  0  0  0  0  0  0  0  0  0  0
   29.0127  -20.9582   36.4489 C   0  0  0  0  0  0  0  0  0  0  0  0
   28.2760  -22.0894   36.5034 C   0  0  0  0  0  0  0  0  0  0  0  0
   28.6575  -23.3167   35.9959 C   0  0  0  0  0  0  0  0  0  0  0  0
   29.8997  -23.3454   35.3944 C   0  0  0  0  0  0  0  0  0  0  0  0
   30.6917  -22.1867   35.3204 C   0  0  0  0  0  0  0  0  0  0  0  0
   32.2299  -21.7707   34.6855 S   0  0  0  0  0  0  0  0  0  0  0  0
   35.2780  -17.7728   35.6629 C   0  0  0  0  0  0  0  0  0  0  0  0
   35.0476  -16.4949   36.3461 C   0  0  0  0  0  0  0  0  0  0  0  0
   35.8345  -15.2968   35.9047 C   0  0  0  0  0  0  0  0  0  0  0  0
   35.0465  -14.0771   36.0930 N   0  0  0  0  0  0  0  0  0  0  0  0
   35.5345  -12.9562   36.4482 C   0  0  0  0  0  0  0  0  0  0  0  0
   34.6519  -11.8539   36.5924 N   0  0  0  0  0  0  0  0  0  0  0  0
   36.9126  -12.7297   36.7142 N   0  0  0  0  0  0  0  0  0  0  0  0
   34.0853  -11.5708   35.7788 H   0  0  0  0  0  0  0  0  0  0  0  0
   34.5712  -11.3379   37.4873 H   0  0  0  0  0  0  0  0  0  0  0  0
   37.2464  -12.4252   37.6483 H   0  0  0  0  0  0  0  0  0  0  0  0
   37.6211  -12.8684   35.9668 H   0  0  0  0  0  0  0  0  0  0  0  0
   40.1438  -20.8729   35.8700 C   0  0  0  0  0  0  0  0  0  0  0  0
   41.7938  -22.2266   34.4795 C   0  0  0  0  0  0  0  0  0  0  0  0
   42.6210  -22.4198   35.4075 O   0  0  0  0  0  0  0  0  0  0  0  0
   40.6057  -21.5069   34.6507 N   0  0  0  0  0  0  0  0  0  0  0  0
   39.9915  -21.4334   33.7888 H   0  0  0  0  0  0  0  0  0  0  0  0
   42.1847  -22.8357   33.1637 C   0  0  0  0  0  0  0  0  0  0  0  0
   41.7390  -22.0370   32.0459 N   0  0  0  0  0  0  0  0  0  0  0  0
   41.0856  -21.2988   32.3549 H   0  0  0  0  0  0  0  0  0  0  0  0
   42.5376  -21.6154   31.5094 H   0  0  0  0  0  0  0  0  0  0  0  0
   41.9521  -24.8934   31.7613 C   0  0  0  0  0  0  0  0  0  0  0  0
   41.4696  -24.1804   32.9971 C   0  0  0  0  0  0  0  0  0  0  0  0
   41.6867  -25.0189   34.0861 O   0  0  0  0  0  0  0  0  0  0  0  0
   42.2785  -25.7497   33.8361 H   0  0  0  0  0  0  0  0  0  0  0  0
   40.7783  -19.5253   36.0260 C   0  0  0  0  0  0  0  0  0  0  0  0
   41.4621  -19.3278   37.3351 C   0  0  0  0  0  0  0  0  0  0  0  0
   42.5579  -18.5141   37.5054 C   0  0  0  0  0  0  0  0  0  0  0  0
   43.1636  -18.3685   38.7445 C   0  0  0  0  0  0  0  0  0  0  0  0
   42.6866  -19.0343   39.8459 C   0  0  0  0  0  0  0  0  0  0  0  0
   41.5944  -19.8536   39.7103 C   0  0  0  0  0  0  0  0  0  0  0  0
   41.0123  -19.9839   38.4773 C   0  0  0  0  0  0  0  0  0  0  0  0
 44 45  1  0  0  0
 45 46  1  0  0  0
 45 40  1  0  0  0
 40 41  1  0  0  0
 40 36  1  0  0  0
 36 37  2  0  0  0
 36 38  1  0  0  0
 38 35  1  0  0  0
 35 48  1  0  0  0
 48 49  1  0  0  0
 49 50  2  0  0  0
 50 51  1  0  0  0
 51 52  2  0  0  0
 52 53  1  0  0  0
 53 54  2  0  0  0
 35  1  1  0  0  0
  1  2  2  0  0  0
  1  3  1  0  0  0
  3  4  1  0  0  0
  4  5  1  0  0  0
  5  6  1  0  0  0
  6  7  1  0  0  0
  7  8  1  0  0  0
  8  9  2  0  0  0
  8 10  1  0  0  0
 10 12  1  0  0  0
 12 24  1  0  0  0
 24 25  1  0  0  0
 25 26  1  0  0  0
 26 27  1  0  0  0
 27 28  2  0  0  0
 28 29  1  0  0  0
 28 30  1  0  0  0
 12 13  1  0  0  0
 13 14  2  0  0  0
 13 15  1  0  0  0
 15 16  2  0  0  0
 16 17  1  0  0  0
 17 18  2  0  0  0
 18 19  1  0  0  0
 19 20  2  0  0  0
 20 21  1  0  0  0
 21 22  2  0  0  0
 22 23  1  0  0  0
 54 49  1  0  0  0
  7  3  1  0  0  0
 23 15  1  0  0  0
 22 17  1  0  0  0
 46 47  1  0  0  0
 41 42  1  0  0  0
 41 43  1  0  0  0
 38 39  1  0  0  0
 10 11  1  0  0  0
 29 31  1  0  0  0
 29 32  1  0  0  0
 30 33  1  0  0  0
 30 34  1  0  0  0
M  END
> <minimizedAffinity>
-6.83019

> <CNNscore>
0.2364993989

> <CNNaffinity>
6.3292264938

> <CNN_VS>
1.4968582392

> <CNNaffinity_variance>
0.2574271560

$$$$
[H]O[C@]([H])(C([H])([H])[H])[C@]([H])(C(=O)N([H])[C@]([H])(C(=O)N1C([H])([H])C([H])([H])C([H])([H])[C@@]1([H])C(=O)N([H])[C@]([H])(C(=O)c1nc2c([H])c([H])c([H])c([H])c2s1)C([H])([H])C([H])([H])C([H])([H])N=C(N([H])[H])N([H])[H])C([H])([H])c1c([H])c([H])c([H])c([H])c1[H])N([H])[H]


 54 57  0  0  0  0  0  0  0  0999 V2000
   37.3056  -18.7995   36.5445 C   0  0  0  0  0  0  0  0  0  0  0  0
   38.3585  -18.1411   36.2487 O   0  0  0  0  0  0  0  0  0  0  0  0
   37.3506  -19.9536   37.3703 N   0  0  0  0  0  0  0  0  0  0  0  0
   36.1409  -20.6540   37.8540 C   0  0  0  0  0  0  0  0  0  0  0  0
   36.4521  -22.0765   37.4810 C   0  0  0  0  0  0  0  0  0  0  0  0
   37.8807  -22.1693   38.0231 C   0  0  0  0  0  0  0  0  0  0  0  0
   38.4147  -20.7217   37.9361 C   0  0  0  0  0  0  0  0  0  0  0  0
   39.6627  -20.8310   37.1867 C   0  0  0  0  0  0  0  0  0  0  0  0
   39.8809  -21.7776   36.4002 O   0  0  0  0  0  0  0  0  0  0  0  0
   40.6319  -19.8154   37.3813 N   0  0  0  0  0  0  0  0  0  0  0  0
   40.4629  -19.0527   38.0360 H   0  0  0  0  0  0  0  0  0  0  0  0
   41.9290  -19.7921   36.6661 C   0  0  0  0  0  0  0  0  0  0  0  0
   43.0420  -19.9132   37.5676 C   0  0  0  0  0  0  0  0  0  0  0  0
   44.2082  -20.0527   37.1873 O   0  0  0  0  0  0  0  0  0  0  0  0
   42.8070  -19.8554   39.0336 C   0  0  0  0  0  0  0  0  0  0  0  0
   42.1193  -20.7073   39.7717 N   0  0  0  0  0  0  0  0  0  0  0  0
   42.0086  -20.5217   41.0548 C   0  0  0  0  0  0  0  0  0  0  0  0
   41.3088  -21.3581   41.9504 C   0  0  0  0  0  0  0  0  0  0  0  0
   41.2796  -21.0490   43.2652 C   0  0  0  0  0  0  0  0  0  0  0  0
   41.8913  -19.9523   43.8420 C   0  0  0  0  0  0  0  0  0  0  0  0
   42.5753  -19.1316   42.9679 C   0  0  0  0  0  0  0  0  0  0  0  0
   42.6258  -19.4242   41.5942 C   0  0  0  0  0  0  0  0  0  0  0  0
   43.3337  -18.7216   40.1987 S   0  0  0  0  0  0  0  0  0  0  0  0
   41.9100  -18.6839   35.6983 C   0  0  0  0  0  0  0  0  0  0  0  0
   42.4092  -18.8510   34.3286 C   0  0  0  0  0  0  0  0  0  0  0  0
   41.4121  -18.9862   33.2164 C   0  0  0  0  0  0  0  0  0  0  0  0
   40.4216  -20.0124   33.5477 N   0  0  0  0  0  0  0  0  0  0  0  0
   39.1623  -19.8498   33.4540 C   0  0  0  0  0  0  0  0  0  0  0  0
   38.3163  -20.9328   33.8089 N   0  0  0  0  0  0  0  0  0  0  0  0
   38.5391  -18.6492   33.0167 N   0  0  0  0  0  0  0  0  0  0  0  0
   38.4345  -21.8292   33.3133 H   0  0  0  0  0  0  0  0  0  0  0  0
   37.5934  -20.8369   34.5451 H   0  0  0  0  0  0  0  0  0  0  0  0
   37.8991  -18.1103   33.6304 H   0  0  0  0  0  0  0  0  0  0  0  0
   38.7172  -18.2836   32.0604 H   0  0  0  0  0  0  0  0  0  0  0  0
   36.0650  -18.2372   35.9452 C   0  0  0  0  0  0  0  0  0  0  0  0
   34.1410  -19.0733   34.5004 C   0  0  0  0  0  0  0  0  0  0  0  0
   33.7852  -17.9401   34.0858 O   0  0  0  0  0  0  0  0  0  0  0  0
   35.2162  -19.2653   35.3755 N   0  0  0  0  0  0  0  0  0  0  0  0
   35.4175  -20.2748   35.6325 H   0  0  0  0  0  0  0  0  0  0  0  0
   33.3150  -20.2127   33.9762 C   0  0  0  0  0  0  0  0  0  0  0  0
   32.0734  -19.7568   33.3962 N   0  0  0  0  0  0  0  0  0  0  0  0
   31.9076  -18.7600   33.6115 H   0  0  0  0  0  0  0  0  0  0  0  0
   32.0314  -19.9174   32.3590 H   0  0  0  0  0  0  0  0  0  0  0  0
   31.6181  -20.6208   35.7675 C   0  0  0  0  0  0  0  0  0  0  0  0
   32.8975  -21.1129   35.1436 C   0  0  0  0  0  0  0  0  0  0  0  0
   32.6952  -22.4275   34.7350 O   0  0  0  0  0  0  0  0  0  0  0  0
   31.7461  -22.6415   34.7454 H   0  0  0  0  0  0  0  0  0  0  0  0
   35.2724  -17.3626   36.8671 C   0  0  0  0  0  0  0  0  0  0  0  0
   35.7192  -15.9412   36.8836 C   0  0  0  0  0  0  0  0  0  0  0  0
   35.1694  -14.9621   36.0892 C   0  0  0  0  0  0  0  0  0  0  0  0
   35.6254  -13.6532   36.1367 C   0  0  0  0  0  0  0  0  0  0  0  0
   36.6442  -13.2909   36.9820 C   0  0  0  0  0  0  0  0  0  0  0  0
   37.2142  -14.2435   37.7883 C   0  0  0  0  0  0  0  0  0  0  0  0
   36.7494  -15.5304   37.7246 C   0  0  0  0  0  0  0  0  0  0  0  0
 44 45  1  0  0  0
 45 46  1  0  0  0
 45 40  1  0  0  0
 40 41  1  0  0  0
 40 36  1  0  0  0
 36 37  2  0  0  0
 36 38  1  0  0  0
 38 35  1  0  0  0
 35 48  1  0  0  0
 48 49  1  0  0  0
 49 50  2  0  0  0
 50 51  1  0  0  0
 51 52  2  0  0  0
 52 53  1  0  0  0
 53 54  2  0  0  0
 35  1  1  0  0  0
  1  2  2  0  0  0
  1  3  1  0  0  0
  3  4  1  0  0  0
  4  5  1  0  0  0
  5  6  1  0  0  0
  6  7  1  0  0  0
  7  8  1  0  0  0
  8  9  2  0  0  0
  8 10  1  0  0  0
 10 12  1  0  0  0
 12 24  1  0  0  0
 24 25  1  0  0  0
 25 26  1  0  0  0
 26 27  1  0  0  0
 27 28  2  0  0  0
 28 29  1  0  0  0
 28 30  1  0  0  0
 12 13  1  0  0  0
 13 14  2  0  0  0
 13 15  1  0  0  0
 15 16  2  0  0  0
 16 17  1  0  0  0
 17 18  2  0  0  0
 18 19  1  0  0  0
 19 20  2  0  0  0
 20 21  1  0  0  0
 21 22  2  0  0  0
 22 23  1  0  0  0
 54 49  1  0  0  0
  7  3  1  0  0  0
 23 15  1  0  0  0
 22 17  1  0  0  0
 46 47  1  0  0  0
 41 42  1  0  0  0
 41 43  1  0  0  0
 38 39  1  0  0  0
 10 11  1  0  0  0
 29 31  1  0  0  0
 29 32  1  0  0  0
 30 33  1  0  0  0
 30 34  1  0  0  0
M  END
> <minimizedAffinity>
-7.35214

> <CNNscore>
0.2345991582

> <CNNaffinity>
6.4279150963

> <CNN_VS>
1.5079834461

> <CNNaffinity_variance>
0.3849059641

$$$$
[H]O[C@]([H])(C([H])([H])[H])[C@]([H])(C(=O)N([H])[C@]([H])(C(=O)N1C([H])([H])C([H])([H])C([H])([H])[C@@]1([H])C(=O)N([H])[C@]([H])(C(=O)c1nc2c([H])c([H])c([H])c([H])c2s1)C([H])([H])C([H])([H])C([H])([H])N=C(N([H])[H])N([H])[H])C([H])([H])c1c([H])c([H])c([H])c([H])c1[H])N([H])[H]


 54 57  0  0  0  0  0  0  0  0999 V2000
   37.3558  -20.0089   35.3997 C   0  0  0  0  0  0  0  0  0  0  0  0
   37.1033  -20.9749   36.1952 O   0  0  0  0  0  0  0  0  0  0  0  0
   38.4790  -20.0270   34.5315 N   0  0  0  0  0  0  0  0  0  0  0  0
   38.7218  -18.9993   33.4957 C   0  0  0  0  0  0  0  0  0  0  0  0
   40.1483  -18.6210   33.7811 C   0  0  0  0  0  0  0  0  0  0  0  0
   40.7601  -20.0201   33.8889 C   0  0  0  0  0  0  0  0  0  0  0  0
   39.5936  -20.9082   34.3775 C   0  0  0  0  0  0  0  0  0  0  0  0
   40.1118  -21.5813   35.5646 C   0  0  0  0  0  0  0  0  0  0  0  0
   40.0726  -22.8243   35.6901 O   0  0  0  0  0  0  0  0  0  0  0  0
   40.6693  -20.7696   36.5840 N   0  0  0  0  0  0  0  0  0  0  0  0
   40.6854  -19.7547   36.4912 H   0  0  0  0  0  0  0  0  0  0  0  0
   41.2516  -21.3250   37.8278 C   0  0  0  0  0  0  0  0  0  0  0  0
   40.4773  -20.9747   38.9870 C   0  0  0  0  0  0  0  0  0  0  0  0
   40.8875  -20.2161   39.8703 O   0  0  0  0  0  0  0  0  0  0  0  0
   39.1070  -21.5267   39.1468 C   0  0  0  0  0  0  0  0  0  0  0  0
   38.0119  -20.8732   39.4890 N   0  0  0  0  0  0  0  0  0  0  0  0
   36.8761  -21.5012   39.5814 C   0  0  0  0  0  0  0  0  0  0  0  0
   35.6393  -20.9187   39.9313 C   0  0  0  0  0  0  0  0  0  0  0  0
   34.5314  -21.6900   39.9837 C   0  0  0  0  0  0  0  0  0  0  0  0
   34.4879  -23.0454   39.7178 C   0  0  0  0  0  0  0  0  0  0  0  0
   35.6967  -23.6180   39.3767 C   0  0  0  0  0  0  0  0  0  0  0  0
   36.8683  -22.8444   39.3127 C   0  0  0  0  0  0  0  0  0  0  0  0
   38.5202  -23.1184   38.9406 S   0  0  0  0  0  0  0  0  0  0  0  0
   42.6986  -21.0578   37.8270 C   0  0  0  0  0  0  0  0  0  0  0  0
   43.3760  -20.4965   36.6526 C   0  0  0  0  0  0  0  0  0  0  0  0
   44.1724  -19.2368   36.8215 C   0  0  0  0  0  0  0  0  0  0  0  0
   43.4306  -18.0941   36.2846 N   0  0  0  0  0  0  0  0  0  0  0  0
   43.6430  -17.5748   35.1417 C   0  0  0  0  0  0  0  0  0  0  0  0
   42.8467  -16.4679   34.7477 N   0  0  0  0  0  0  0  0  0  0  0  0
   44.6309  -18.0288   34.2257 N   0  0  0  0  0  0  0  0  0  0  0  0
   41.8228  -16.5864   34.7207 H   0  0  0  0  0  0  0  0  0  0  0  0
   43.2721  -15.5589   34.4899 H   0  0  0  0  0  0  0  0  0  0  0  0
   45.4113  -17.4189   33.9163 H   0  0  0  0  0  0  0  0  0  0  0  0
   44.5894  -18.9947   33.8448 H   0  0  0  0  0  0  0  0  0  0  0  0
   36.3699  -18.8973   35.4827 C   0  0  0  0  0  0  0  0  0  0  0  0
   34.0154  -19.8649   35.5760 C   0  0  0  0  0  0  0  0  0  0  0  0
   34.0450  -20.1665   36.7970 O   0  0  0  0  0  0  0  0  0  0  0  0
   35.0872  -19.2580   34.9112 N   0  0  0  0  0  0  0  0  0  0  0  0
   34.9222  -19.0437   33.8854 H   0  0  0  0  0  0  0  0  0  0  0  0
   32.7281  -20.2088   34.8834 C   0  0  0  0  0  0  0  0  0  0  0  0
   32.9454  -20.6317   33.5196 N   0  0  0  0  0  0  0  0  0  0  0  0
   33.9182  -20.4468   33.2247 H   0  0  0  0  0  0  0  0  0  0  0  0
   32.7052  -21.6432   33.3693 H   0  0  0  0  0  0  0  0  0  0  0  0
   30.3986  -19.3053   34.7742 C   0  0  0  0  0  0  0  0  0  0  0  0
   31.8621  -18.9498   34.7723 C   0  0  0  0  0  0  0  0  0  0  0  0
   32.0897  -18.0719   35.8275 O   0  0  0  0  0  0  0  0  0  0  0  0
   31.3269  -18.0658   36.4315 H   0  0  0  0  0  0  0  0  0  0  0  0
   36.1848  -18.3341   36.8580 C   0  0  0  0  0  0  0  0  0  0  0  0
   36.0424  -16.8512   36.8890 C   0  0  0  0  0  0  0  0  0  0  0  0
   36.8813  -16.0215   37.5959 C   0  0  0  0  0  0  0  0  0  0  0  0
   36.7028  -14.6461   37.5983 C   0  0  0  0  0  0  0  0  0  0  0  0
   35.6789  -14.0660   36.8920 C   0  0  0  0  0  0  0  0  0  0  0  0
   34.8243  -14.8655   36.1757 C   0  0  0  0  0  0  0  0  0  0  0  0
   35.0180  -16.2214   36.1880 C   0  0  0  0  0  0  0  0  0  0  0  0
 44 45  1  0  0  0
 45 46  1  0  0  0
 45 40  1  0  0  0
 40 41  1  0  0  0
 40 36  1  0  0  0
 36 37  2  0  0  0
 36 38  1  0  0  0
 38 35  1  0  0  0
 35 48  1  0  0  0
 48 49  1  0  0  0
 49 50  2  0  0  0
 50 51  1  0  0  0
 51 52  2  0  0  0
 52 53  1  0  0  0
 53 54  2  0  0  0
 35  1  1  0  0  0
  1  2  2  0  0  0
  1  3  1  0  0  0
  3  4  1  0  0  0
  4  5  1  0  0  0
  5  6  1  0  0  0
  6  7  1  0  0  0
  7  8  1  0  0  0
  8  9  2  0  0  0
  8 10  1  0  0  0
 10 12  1  0  0  0
 12 24  1  0  0  0
 24 25  1  0  0  0
 25 26  1  0  0  0
 26 27  1  0  0  0
 27 28  2  0  0  0
 28 29  1  0  0  0
 28 30  1  0  0  0
 12 13  1  0  0  0
 13 14  2  0  0  0
 13 15  1  0  0  0
 15 16  2  0  0  0
 16 17  1  0  0  0
 17 18  2  0  0  0
 18 19  1  0  0  0
 19 20  2  0  0  0
 20 21  1  0  0  0
 21 22  2  0  0  0
 22 23  1  0  0  0
 54 49  1  0  0  0
  7  3  1  0  0  0
 23 15  1  0  0  0
 22 17  1  0  0  0
 46 47  1  0  0  0
 41 42  1  0  0  0
 41 43  1  0  0  0
 38 39  1  0  0  0
 10 11  1  0  0  0
 29 31  1  0  0  0
 29 32  1  0  0  0
 30 33  1  0  0  0
 30 34  1  0  0  0
M  END
> <minimizedAffinity>
-6.89102

> <CNNscore>
0.2206923366

> <CNNaffinity>
6.2919187546

> <CNN_VS>
1.3885782957

> <CNNaffinity_variance>
0.9105842710

$$$$
[H]O[C@]([H])(C([H])([H])[H])[C@]([H])(C(=O)N([H])[C@]([H])(C(=O)N1C([H])([H])C([H])([H])C([H])([H])[C@@]1([H])C(=O)N([H])[C@]([H])(C(=O)c1nc2c([H])c([H])c([H])c([H])c2s1)C([H])([H])C([H])([H])C([H])([H])N=C(N([H])[H])N([H])[H])C([H])([H])c1c([H])c([H])c([H])c([H])c1[H])N([H])[H]


 54 57  0  0  0  0  0  0  0  0999 V2000
   33.5822  -13.4130   36.4093 C   0  0  0  0  0  0  0  0  0  0  0  0
   32.8093  -13.9422   35.5420 O   0  0  0  0  0  0  0  0  0  0  0  0
   34.9548  -13.7635   36.5032 N   0  0  0  0  0  0  0  0  0  0  0  0
   35.9117  -13.0689   37.3920 C   0  0  0  0  0  0  0  0  0  0  0  0
   36.5487  -14.2279   38.1063 C   0  0  0  0  0  0  0  0  0  0  0  0
   36.8528  -15.1249   36.9037 C   0  0  0  0  0  0  0  0  0  0  0  0
   35.7662  -14.7546   35.8691 C   0  0  0  0  0  0  0  0  0  0  0  0
   35.1479  -16.0269   35.5088 C   0  0  0  0  0  0  0  0  0  0  0  0
   33.9201  -16.1294   35.2987 O   0  0  0  0  0  0  0  0  0  0  0  0
   35.9959  -17.1575   35.4023 N   0  0  0  0  0  0  0  0  0  0  0  0
   36.9945  -17.0793   35.5912 H   0  0  0  0  0  0  0  0  0  0  0  0
   35.5027  -18.5013   35.0208 C   0  0  0  0  0  0  0  0  0  0  0  0
   34.9109  -19.1926   36.1335 C   0  0  0  0  0  0  0  0  0  0  0  0
   35.5074  -19.4028   37.1937 O   0  0  0  0  0  0  0  0  0  0  0  0
   33.5089  -19.6747   36.0346 C   0  0  0  0  0  0  0  0  0  0  0  0
   32.9642  -20.6980   36.6667 N   0  0  0  0  0  0  0  0  0  0  0  0
   31.7112  -20.9930   36.4779 C   0  0  0  0  0  0  0  0  0  0  0  0
   31.0129  -22.0531   37.0943 C   0  0  0  0  0  0  0  0  0  0  0  0
   29.7058  -22.2432   36.8108 C   0  0  0  0  0  0  0  0  0  0  0  0
   28.9558  -21.4718   35.9435 C   0  0  0  0  0  0  0  0  0  0  0  0
   29.6368  -20.4349   35.3380 C   0  0  0  0  0  0  0  0  0  0  0  0
   30.9969  -20.2092   35.6107 C   0  0  0  0  0  0  0  0  0  0  0  0
   32.1939  -19.0841   35.1169 S   0  0  0  0  0  0  0  0  0  0  0  0
   36.5459  -19.1763   34.2325 C   0  0  0  0  0  0  0  0  0  0  0  0
   37.9612  -19.1099   34.6140 C   0  0  0  0  0  0  0  0  0  0  0  0
   38.9855  -18.9390   33.5317 C   0  0  0  0  0  0  0  0  0  0  0  0
   40.2206  -19.6392   33.8897 N   0  0  0  0  0  0  0  0  0  0  0  0
   40.9755  -20.2335   33.0543 C   0  0  0  0  0  0  0  0  0  0  0  0
   42.1454  -20.8728   33.5415 N   0  0  0  0  0  0  0  0  0  0  0  0
   40.7261  -20.3033   31.6565 N   0  0  0  0  0  0  0  0  0  0  0  0
   42.8344  -20.3054   34.0577 H   0  0  0  0  0  0  0  0  0  0  0  0
   42.3146  -21.8834   33.3875 H   0  0  0  0  0  0  0  0  0  0  0  0
   40.5832  -21.2092   31.1710 H   0  0  0  0  0  0  0  0  0  0  0  0
   40.6802  -19.4350   31.0874 H   0  0  0  0  0  0  0  0  0  0  0  0
   32.9026  -12.4180   37.2827 C   0  0  0  0  0  0  0  0  0  0  0  0
   30.7665  -12.7219   38.6365 C   0  0  0  0  0  0  0  0  0  0  0  0
   30.1147  -11.8131   38.0604 O   0  0  0  0  0  0  0  0  0  0  0  0
   32.0851  -13.0490   38.3003 N   0  0  0  0  0  0  0  0  0  0  0  0
   32.5105  -13.8467   38.8555 H   0  0  0  0  0  0  0  0  0  0  0  0
   30.0108  -13.4345   39.7211 C   0  0  0  0  0  0  0  0  0  0  0  0
   28.5835  -13.2556   39.5912 N   0  0  0  0  0  0  0  0  0  0  0  0
   28.3632  -12.5301   38.8895 H   0  0  0  0  0  0  0  0  0  0  0  0
   28.0858  -14.1509   39.3582 H   0  0  0  0  0  0  0  0  0  0  0  0
   29.8150  -13.6428   42.2057 C   0  0  0  0  0  0  0  0  0  0  0  0
   30.3642  -12.8121   41.0758 C   0  0  0  0  0  0  0  0  0  0  0  0
   31.7403  -12.7073   41.2525 O   0  0  0  0  0  0  0  0  0  0  0  0
   32.0455  -13.3531   41.9133 H   0  0  0  0  0  0  0  0  0  0  0  0
   33.8196  -11.4109   37.9052 C   0  0  0  0  0  0  0  0  0  0  0  0
   33.7552  -10.0633   37.2727 C   0  0  0  0  0  0  0  0  0  0  0  0
   34.8153   -9.4781   36.6203 C   0  0  0  0  0  0  0  0  0  0  0  0
   34.7070   -8.2172   36.0530 C   0  0  0  0  0  0  0  0  0  0  0  0
   33.5331   -7.5097   36.1241 C   0  0  0  0  0  0  0  0  0  0  0  0
   32.4560   -8.0651   36.7674 C   0  0  0  0  0  0  0  0  0  0  0  0
   32.5851   -9.3110   37.3217 C   0  0  0  0  0  0  0  0  0  0  0  0
 44 45  1  0  0  0
 45 46  1  0  0  0
 45 40  1  0  0  0
 40 41  1  0  0  0
 40 36  1  0  0  0
 36 37  2  0  0  0
 36 38  1  0  0  0
 38 35  1  0  0  0
 35 48  1  0  0  0
 48 49  1  0  0  0
 49 50  2  0  0  0
 50 51  1  0  0  0
 51 52  2  0  0  0
 52 53  1  0  0  0
 53 54  2  0  0  0
 35  1  1  0  0  0
  1  2  2  0  0  0
  1  3  1  0  0  0
  3  4  1  0  0  0
  4  5  1  0  0  0
  5  6  1  0  0  0
  6  7  1  0  0  0
  7  8  1  0  0  0
  8  9  2  0  0  0
  8 10  1  0  0  0
 10 12  1  0  0  0
 12 24  1  0  0  0
 24 25  1  0  0  0
 25 26  1  0  0  0
 26 27  1  0  0  0
 27 28  2  0  0  0
 28 29  1  0  0  0
 28 30  1  0  0  0
 12 13  1  0  0  0
 13 14  2  0  0  0
 13 15  1  0  0  0
 15 16  2  0  0  0
 16 17  1  0  0  0
 17 18  2  0  0  0
 18 19  1  0  0  0
 19 20  2  0  0  0
 20 21  1  0  0  0
 21 22  2  0  0  0
 22 23  1  0  0  0
 54 49  1  0  0  0
  7  3  1  0  0  0
 23 15  1  0  0  0
 22 17  1  0  0  0
 46 47  1  0  0  0
 41 42  1  0  0  0
 41 43  1  0  0  0
 38 39  1  0  0  0
 10 11  1  0  0  0
 29 31  1  0  0  0
 29 32  1  0  0  0
 30 33  1  0  0  0
 30 34  1  0  0  0
M  END
> <minimizedAffinity>
-9.68483

> <CNNscore>
0.2159819752

> <CNNaffinity>
7.1564683914

> <CNN_VS>
1.5456681252

> <CNNaffinity_variance>
0.1233527809

$$$$
[H]OC(=O)[C@@]([H])(N([H])C(=O)[C@@]([H])(S[H])[C@@]([H])(C([H])([H])[H])C([H])([H])C([H])([H])[H])C([H])([H])c1c([H])c([H])c(-c2c([H])c([H])c([H])c([H])c2[H])c([H])c1[H]


 29 30  0  0  0  0  0  0  0  0999 V2000
   35.9131  -18.6126   35.1459 C   0  0  0  0  0  0  0  0  0  0  0  0
   36.3351  -16.4531   36.3893 C   0  0  0  0  0  0  0  0  0  0  0  0
   36.2562  -16.9326   37.5249 O   0  0  0  0  0  0  0  0  0  0  0  0
   36.1953  -17.1716   35.2077 N   0  0  0  0  0  0  0  0  0  0  0  0
   36.2953  -16.6903   34.2654 H   0  0  0  0  0  0  0  0  0  0  0  0
   36.6035  -14.9760   36.2698 C   0  0  0  0  0  0  0  0  0  0  0  0
   35.3795  -14.3260   35.1043 S   0  0  0  0  0  0  0  0  0  0  0  0
   34.2043  -15.0860   35.2409 H   0  0  0  0  0  0  0  0  0  0  0  0
   36.4649  -14.3132   37.6358 C   0  0  0  0  0  0  0  0  0  0  0  0
   37.8019  -13.8061   38.0593 C   0  0  0  0  0  0  0  0  0  0  0  0
   34.0488  -13.7248   37.9292 C   0  0  0  0  0  0  0  0  0  0  0  0
   35.4125  -13.2438   37.5081 C   0  0  0  0  0  0  0  0  0  0  0  0
   37.1088  -19.4214   35.0436 C   0  0  0  0  0  0  0  0  0  0  0  0
   37.3133  -20.6038   35.6861 O   0  0  0  0  0  0  0  0  0  0  0  0
   38.0878  -19.0257   34.2909 O   0  0  0  0  0  0  0  0  0  0  0  0
   37.5504  -21.4588   35.2043 H   0  0  0  0  0  0  0  0  0  0  0  0
   34.8481  -18.8135   34.1831 C   0  0  0  0  0  0  0  0  0  0  0  0
   33.6627  -19.5639   34.6336 C   0  0  0  0  0  0  0  0  0  0  0  0
   33.6565  -20.4804   35.6532 C   0  0  0  0  0  0  0  0  0  0  0  0
   32.5139  -21.1409   36.0436 C   0  0  0  0  0  0  0  0  0  0  0  0
   31.3156  -20.9082   35.4217 C   0  0  0  0  0  0  0  0  0  0  0  0
   31.3084  -19.9864   34.3912 C   0  0  0  0  0  0  0  0  0  0  0  0
   32.4277  -19.3341   34.0028 C   0  0  0  0  0  0  0  0  0  0  0  0
   30.1068  -21.5979   35.8243 C   0  0  0  0  0  0  0  0  0  0  0  0
   29.1299  -20.9643   36.5803 C   0  0  0  0  0  0  0  0  0  0  0  0
   27.9765  -21.6110   36.9682 C   0  0  0  0  0  0  0  0  0  0  0  0
   27.7476  -22.9115   36.6207 C   0  0  0  0  0  0  0  0  0  0  0  0
   28.7097  -23.5662   35.8649 C   0  0  0  0  0  0  0  0  0  0  0  0
   29.8696  -22.9071   35.4782 C   0  0  0  0  0  0  0  0  0  0  0  0
 11 12  1  0  0  0
 12  9  1  0  0  0
  9 10  1  0  0  0
  9  6  1  0  0  0
  6  7  1  0  0  0
  6  2  1  0  0  0
  2  3  2  0  0  0
  2  4  1  0  0  0
  4  1  1  0  0  0
  1 17  1  0  0  0
 17 18  1  0  0  0
 18 19  2  0  0  0
 19 20  1  0  0  0
 20 21  2  0  0  0
 21 22  1  0  0  0
 22 23  2  0  0  0
 21 24  1  0  0  0
 24 25  2  0  0  0
 25 26  1  0  0  0
 26 27  2  0  0  0
 27 28  1  0  0  0
 28 29  2  0  0  0
  1 13  1  0  0  0
 13 14  1  0  0  0
 13 15  2  0  0  0
 23 18  1  0  0  0
 29 24  1  0  0  0
  7  8  1  0  0  0
  4  5  1  0  0  0
 14 16  1  0  0  0
M  END
> <minimizedAffinity>
-5.16814

> <CNNscore>
0.3049589396

> <CNNaffinity>
4.5924081802

> <CNN_VS>
1.4004958868

> <CNNaffinity_variance>
0.3151347041

$$$$
[H]OC(=O)[C@@]([H])(N([H])C(=O)[C@@]([H])(S[H])[C@@]([H])(C([H])([H])[H])C([H])([H])C([H])([H])[H])C([H])([H])c1c([H])c([H])c(-c2c([H])c([H])c([H])c([H])c2[H])c([H])c1[H]


 29 30  0  0  0  0  0  0  0  0999 V2000
   35.2555  -19.4608   36.2947 C   0  0  0  0  0  0  0  0  0  0  0  0
   34.9029  -16.9589   36.2360 C   0  0  0  0  0  0  0  0  0  0  0  0
   34.2710  -16.9356   35.1751 O   0  0  0  0  0  0  0  0  0  0  0  0
   35.3995  -18.1056   36.8447 N   0  0  0  0  0  0  0  0  0  0  0  0
   35.9191  -18.0467   37.7700 H   0  0  0  0  0  0  0  0  0  0  0  0
   35.1580  -15.6459   36.9283 C   0  0  0  0  0  0  0  0  0  0  0  0
   36.9314  -15.5945   37.2910 S   0  0  0  0  0  0  0  0  0  0  0  0
   37.6025  -16.2965   36.2740 H   0  0  0  0  0  0  0  0  0  0  0  0
   34.7520  -14.4933   36.0166 C   0  0  0  0  0  0  0  0  0  0  0  0
   33.4210  -13.9829   36.4548 C   0  0  0  0  0  0  0  0  0  0  0  0
   35.3339  -12.0761   36.3138 C   0  0  0  0  0  0  0  0  0  0  0  0
   35.8542  -13.4690   36.0745 C   0  0  0  0  0  0  0  0  0  0  0  0
   34.7197  -20.4071   37.2495 C   0  0  0  0  0  0  0  0  0  0  0  0
   34.4365  -20.1320   38.5521 O   0  0  0  0  0  0  0  0  0  0  0  0
   34.4749  -21.6248   36.8767 O   0  0  0  0  0  0  0  0  0  0  0  0
   33.5268  -20.2853   38.9624 H   0  0  0  0  0  0  0  0  0  0  0  0
   36.4846  -19.7884   35.5995 C   0  0  0  0  0  0  0  0  0  0  0  0
   37.7329  -19.7553   36.3818 C   0  0  0  0  0  0  0  0  0  0  0  0
   38.0069  -20.5639   37.4545 C   0  0  0  0  0  0  0  0  0  0  0  0
   39.1991  -20.5010   38.1394 C   0  0  0  0  0  0  0  0  0  0  0  0
   40.1781  -19.6151   37.7742 C   0  0  0  0  0  0  0  0  0  0  0  0
   39.9139  -18.7933   36.6941 C   0  0  0  0  0  0  0  0  0  0  0  0
   38.7446  -18.8501   36.0169 C   0  0  0  0  0  0  0  0  0  0  0  0
   41.4365  -19.5402   38.4880 C   0  0  0  0  0  0  0  0  0  0  0  0
   42.5534  -18.9381   37.9245 C   0  0  0  0  0  0  0  0  0  0  0  0
   43.7548  -18.8613   38.5951 C   0  0  0  0  0  0  0  0  0  0  0  0
   43.8946  -19.3790   39.8508 C   0  0  0  0  0  0  0  0  0  0  0  0
   42.7921  -19.9859   40.4352 C   0  0  0  0  0  0  0  0  0  0  0  0
   41.5848  -20.0592   39.7524 C   0  0  0  0  0  0  0  0  0  0  0  0
 11 12  1  0  0  0
 12  9  1  0  0  0
  9 10  1  0  0  0
  9  6  1  0  0  0
  6  7  1  0  0  0
  6  2  1  0  0  0
  2  3  2  0  0  0
  2  4  1  0  0  0
  4  1  1  0  0  0
  1 17  1  0  0  0
 17 18  1  0  0  0
 18 19  2  0  0  0
 19 20  1  0  0  0
 20 21  2  0  0  0
 21 22  1  0  0  0
 22 23  2  0  0  0
 21 24  1  0  0  0
 24 25  2  0  0  0
 25 26  1  0  0  0
 26 27  2  0  0  0
 27 28  1  0  0  0
 28 29  2  0  0  0
  1 13  1  0  0  0
 13 14  1  0  0  0
 13 15  2  0  0  0
 23 18  1  0  0  0
 29 24  1  0  0  0
  7  8  1  0  0  0
  4  5  1  0  0  0
 14 16  1  0  0  0
M  END
> <minimizedAffinity>
-5.42075

> <CNNscore>
0.2952071130

> <CNNaffinity>
4.6933636665

> <CNN_VS>
1.3855143785

> <CNNaffinity_variance>
0.2821738124

$$$$
[H]OC(=O)[C@@]([H])(N([H])C(=O)[C@@]([H])(S[H])[C@@]([H])(C([H])([H])[H])C([H])([H])C([H])([H])[H])C([H])([H])c1c([H])c([H])c(-c2c([H])c([H])c([H])c([H])c2[H])c([H])c1[H]


 29 30  0  0  0  0  0  0  0  0999 V2000
   35.0041  -21.3669   37.4300 C   0  0  0  0  0  0  0  0  0  0  0  0
   34.3705  -19.8241   35.5312 C   0  0  0  0  0  0  0  0  0  0  0  0
   33.1915  -20.1834   35.4519 O   0  0  0  0  0  0  0  0  0  0  0  0
   35.2974  -20.3211   36.4399 N   0  0  0  0  0  0  0  0  0  0  0  0
   36.2921  -19.9473   36.4592 H   0  0  0  0  0  0  0  0  0  0  0  0
   34.8462  -18.7654   34.5713 C   0  0  0  0  0  0  0  0  0  0  0  0
   33.5439  -17.5087   34.5088 S   0  0  0  0  0  0  0  0  0  0  0  0
   32.9268  -17.4605   35.7715 H   0  0  0  0  0  0  0  0  0  0  0  0
   36.1588  -18.1695   35.0678 C   0  0  0  0  0  0  0  0  0  0  0  0
   37.0890  -18.0304   33.9105 C   0  0  0  0  0  0  0  0  0  0  0  0
   36.4467  -16.7661   37.1214 C   0  0  0  0  0  0  0  0  0  0  0  0
   35.8280  -16.8697   35.7522 C   0  0  0  0  0  0  0  0  0  0  0  0
   34.4327  -20.8464   38.6533 C   0  0  0  0  0  0  0  0  0  0  0  0
   34.9445  -19.8172   39.3824 O   0  0  0  0  0  0  0  0  0  0  0  0
   33.3470  -21.3729   39.1284 O   0  0  0  0  0  0  0  0  0  0  0  0
   34.4127  -18.9926   39.6204 H   0  0  0  0  0  0  0  0  0  0  0  0
   36.1626  -22.2345   37.5126 C   0  0  0  0  0  0  0  0  0  0  0  0
   37.4411  -21.6185   37.9094 C   0  0  0  0  0  0  0  0  0  0  0  0
   38.2332  -20.8591   37.0875 C   0  0  0  0  0  0  0  0  0  0  0  0
   39.4119  -20.2930   37.5171 C   0  0  0  0  0  0  0  0  0  0  0  0
   39.8516  -20.4662   38.8029 C   0  0  0  0  0  0  0  0  0  0  0  0
   39.0621  -21.2307   39.6419 C   0  0  0  0  0  0  0  0  0  0  0  0
   37.9029  -21.7896   39.2260 C   0  0  0  0  0  0  0  0  0  0  0  0
   41.0908  -19.8752   39.2657 C   0  0  0  0  0  0  0  0  0  0  0  0
   41.9899  -19.2942   38.3816 C   0  0  0  0  0  0  0  0  0  0  0  0
   43.1709  -18.7291   38.8114 C   0  0  0  0  0  0  0  0  0  0  0  0
   43.5057  -18.7184   40.1351 C   0  0  0  0  0  0  0  0  0  0  0  0
   42.6228  -19.2932   41.0382 C   0  0  0  0  0  0  0  0  0  0  0  0
   41.4346  -19.8608   40.5967 C   0  0  0  0  0  0  0  0  0  0  0  0
 11 12  1  0  0  0
 12  9  1  0  0  0
  9 10  1  0  0  0
  9  6  1  0  0  0
  6  7  1  0  0  0
  6  2  1  0  0  0
  2  3  2  0  0  0
  2  4  1  0  0  0
  4  1  1  0  0  0
  1 17  1  0  0  0
 17 18  1  0  0  0
 18 19  2  0  0  0
 19 20  1  0  0  0
 20 21  2  0  0  0
 21 22  1  0  0  0
 22 23  2  0  0  0
 21 24  1  0  0  0
 24 25  2  0  0  0
 25 26  1  0  0  0
 26 27  2  0  0  0
 27 28  1  0  0  0
 28 29  2  0  0  0
  1 13  1  0  0  0
 13 14  1  0  0  0
 13 15  2  0  0  0
 23 18  1  0  0  0
 29 24  1  0  0  0
  7  8  1  0  0  0
  4  5  1  0  0  0
 14 16  1  0  0  0
M  END
> <minimizedAffinity>
-5.23249

> <CNNscore>
0.2872118652

> <CNNaffinity>
4.2580933571

> <CNN_VS>
1.2229748964

> <CNNaffinity_variance>
0.5645416975

$$$$
[H]OC(=O)[C@@]([H])(N([H])C(=O)[C@@]([H])(S[H])[C@@]([H])(C([H])([H])[H])C([H])([H])C([H])([H])[H])C([H])([H])c1c([H])c([H])c(-c2c([H])c([H])c([H])c([H])c2[H])c([H])c1[H]


 29 30  0  0  0  0  0  0  0  0999 V2000
   35.0588  -23.0681   37.3377 C   0  0  0  0  0  0  0  0  0  0  0  0
   33.0292  -22.5236   35.9336 C   0  0  0  0  0  0  0  0  0  0  0  0
   32.5121  -23.6432   36.0025 O   0  0  0  0  0  0  0  0  0  0  0  0
   34.2258  -22.1581   36.5390 N   0  0  0  0  0  0  0  0  0  0  0  0
   34.5984  -21.1668   36.4491 H   0  0  0  0  0  0  0  0  0  0  0  0
   32.3118  -21.4688   35.1330 C   0  0  0  0  0  0  0  0  0  0  0  0
   30.7767  -21.1067   36.0227 S   0  0  0  0  0  0  0  0  0  0  0  0
   31.0218  -21.2758   37.3970 H   0  0  0  0  0  0  0  0  0  0  0  0
   33.1848  -20.2241   35.0182 C   0  0  0  0  0  0  0  0  0  0  0  0
   33.4479  -19.9558   33.5750 C   0  0  0  0  0  0  0  0  0  0  0  0
   33.0206  -17.7522   35.3819 C   0  0  0  0  0  0  0  0  0  0  0  0
   32.4675  -19.1087   35.7314 C   0  0  0  0  0  0  0  0  0  0  0  0
   34.3465  -23.6622   38.4484 C   0  0  0  0  0  0  0  0  0  0  0  0
   33.8914  -24.9443   38.4927 O   0  0  0  0  0  0  0  0  0  0  0  0
   34.1009  -22.9526   39.5057 O   0  0  0  0  0  0  0  0  0  0  0  0
   34.1386  -25.5916   39.2272 H   0  0  0  0  0  0  0  0  0  0  0  0
   36.3215  -22.4028   37.5919 C   0  0  0  0  0  0  0  0  0  0  0  0
   36.3716  -20.9452   37.3815 C   0  0  0  0  0  0  0  0  0  0  0  0
   37.0333  -20.3243   36.3537 C   0  0  0  0  0  0  0  0  0  0  0  0
   37.0324  -18.9571   36.1960 C   0  0  0  0  0  0  0  0  0  0  0  0
   36.3611  -18.1450   37.0715 C   0  0  0  0  0  0  0  0  0  0  0  0
   35.6902  -18.7588   38.1131 C   0  0  0  0  0  0  0  0  0  0  0  0
   35.6870  -20.1017   38.2736 C   0  0  0  0  0  0  0  0  0  0  0  0
   36.3538  -16.7047   36.9152 C   0  0  0  0  0  0  0  0  0  0  0  0
   36.7543  -15.8631   37.9441 C   0  0  0  0  0  0  0  0  0  0  0  0
   36.7514  -14.4921   37.8056 C   0  0  0  0  0  0  0  0  0  0  0  0
   36.3511  -13.9029   36.6407 C   0  0  0  0  0  0  0  0  0  0  0  0
   35.9462  -14.7235   35.5976 C   0  0  0  0  0  0  0  0  0  0  0  0
   35.9520  -16.1045   35.7454 C   0  0  0  0  0  0  0  0  0  0  0  0
 11 12  1  0  0  0
 12  9  1  0  0  0
  9 10  1  0  0  0
  9  6  1  0  0  0
  6  7  1  0  0  0
  6  2  1  0  0  0
  2  3  2  0  0  0
  2  4  1  0  0  0
  4  1  1  0  0  0
  1 17  1  0  0  0
 17 18  1  0  0  0
 18 19  2  0  0  0
 19 20  1  0  0  0
 20 21  2  0  0  0
 21 22  1  0  0  0
 22 23  2  0  0  0
 21 24  1  0  0  0
 24 25  2  0  0  0
 25 26  1  0  0  0
 26 27  2  0  0  0
 27 28  1  0  0  0
 28 29  2  0  0  0
  1 13  1  0  0  0
 13 14  1  0  0  0
 13 15  2  0  0  0
 23 18  1  0  0  0
 29 24  1  0  0  0
  7  8  1  0  0  0
  4  5  1  0  0  0
 14 16  1  0  0  0
M  END
> <minimizedAffinity>
-5.36115

> <CNNscore>
0.2572526336

> <CNNaffinity>
4.2950572968

> <CNN_VS>
1.1049147844

> <CNNaffinity_variance>
0.3841313124

$$$$
[H]OC(=O)[C@@]([H])(N([H])C(=O)[C@@]([H])(S[H])[C@@]([H])(C([H])([H])[H])C([H])([H])C([H])([H])[H])C([H])([H])c1c([H])c([H])c(-c2c([H])c([H])c([H])c([H])c2[H])c([H])c1[H]


 29 30  0  0  0  0  0  0  0  0999 V2000
   37.4718  -19.2751   34.9195 C   0  0  0  0  0  0  0  0  0  0  0  0
   35.0639  -19.4295   35.6716 C   0  0  0  0  0  0  0  0  0  0  0  0
   35.1927  -18.7328   36.6832 O   0  0  0  0  0  0  0  0  0  0  0  0
   36.0825  -19.7321   34.7755 N   0  0  0  0  0  0  0  0  0  0  0  0
   35.8891  -20.3249   33.9147 H   0  0  0  0  0  0  0  0  0  0  0  0
   33.6997  -19.9978   35.3814 C   0  0  0  0  0  0  0  0  0  0  0  0
   33.1706  -20.8531   36.8873 S   0  0  0  0  0  0  0  0  0  0  0  0
   33.7186  -20.1714   37.9884 H   0  0  0  0  0  0  0  0  0  0  0  0
   32.7360  -18.8718   35.0238 C   0  0  0  0  0  0  0  0  0  0  0  0
   33.4636  -17.8623   34.2020 C   0  0  0  0  0  0  0  0  0  0  0  0
   30.2453  -19.1226   34.9668 C   0  0  0  0  0  0  0  0  0  0  0  0
   31.5565  -19.4982   34.3282 C   0  0  0  0  0  0  0  0  0  0  0  0
   37.9018  -18.4154   33.8378 C   0  0  0  0  0  0  0  0  0  0  0  0
   37.0806  -17.6393   33.0788 O   0  0  0  0  0  0  0  0  0  0  0  0
   39.1607  -18.3487   33.5337 O   0  0  0  0  0  0  0  0  0  0  0  0
   37.2061  -16.6430   32.9736 H   0  0  0  0  0  0  0  0  0  0  0  0
   38.2826  -20.4269   35.2622 C   0  0  0  0  0  0  0  0  0  0  0  0
   39.0145  -20.3819   36.5404 C   0  0  0  0  0  0  0  0  0  0  0  0
   38.6300  -21.0284   37.6865 C   0  0  0  0  0  0  0  0  0  0  0  0
   39.3628  -20.9648   38.8498 C   0  0  0  0  0  0  0  0  0  0  0  0
   40.5249  -20.2422   38.9145 C   0  0  0  0  0  0  0  0  0  0  0  0
   40.9234  -19.5847   37.7653 C   0  0  0  0  0  0  0  0  0  0  0  0
   40.2079  -19.6433   36.6191 C   0  0  0  0  0  0  0  0  0  0  0  0
   41.3039  -20.1681   40.1337 C   0  0  0  0  0  0  0  0  0  0  0  0
   42.1436  -19.0931   40.3917 C   0  0  0  0  0  0  0  0  0  0  0  0
   42.8885  -19.0127   41.5482 C   0  0  0  0  0  0  0  0  0  0  0  0
   42.8290  -19.9960   42.4938 C   0  0  0  0  0  0  0  0  0  0  0  0
   41.9966  -21.0809   42.2585 C   0  0  0  0  0  0  0  0  0  0  0  0
   41.2492  -21.1542   41.0901 C   0  0  0  0  0  0  0  0  0  0  0  0
 11 12  1  0  0  0
 12  9  1  0  0  0
  9 10  1  0  0  0
  9  6  1  0  0  0
  6  7  1  0  0  0
  6  2  1  0  0  0
  2  3  2  0  0  0
  2  4  1  0  0  0
  4  1  1  0  0  0
  1 17  1  0  0  0
 17 18  1  0  0  0
 18 19  2  0  0  0
 19 20  1  0  0  0
 20 21  2  0  0  0
 21 22  1  0  0  0
 22 23  2  0  0  0
 21 24  1  0  0  0
 24 25  2  0  0  0
 25 26  1  0  0  0
 26 27  2  0  0  0
 27 28  1  0  0  0
 28 29  2  0  0  0
  1 13  1  0  0  0
 13 14  1  0  0  0
 13 15  2  0  0  0
 23 18  1  0  0  0
 29 24  1  0  0  0
  7  8  1  0  0  0
  4  5  1  0  0  0
 14 16  1  0  0  0
M  END
> <minimizedAffinity>
-5.49656

> <CNNscore>
0.2259690613

> <CNNaffinity>
4.4676208496

> <CNN_VS>
1.0095441341

> <CNNaffinity_variance>
0.1591203362

$$$$
[H]OC(=O)[C@@]([H])(N([H])C(=O)[C@@]([H])(S[H])[C@@]([H])(C([H])([H])[H])C([H])([H])C([H])([H])[H])C([H])([H])c1c([H])c([H])c(-c2c([H])c([H])c([H])c([H])c2[H])c([H])c1[H]


 29 30  0  0  0  0  0  0  0  0999 V2000
   33.6135  -17.9279   34.7730 C   0  0  0  0  0  0  0  0  0  0  0  0
   34.2984  -15.8246   35.9954 C   0  0  0  0  0  0  0  0  0  0  0  0
   33.5116  -15.0687   35.4166 O   0  0  0  0  0  0  0  0  0  0  0  0
   34.4109  -17.1903   35.7630 N   0  0  0  0  0  0  0  0  0  0  0  0
   35.1012  -17.7795   36.3162 H   0  0  0  0  0  0  0  0  0  0  0  0
   35.2089  -15.2254   37.0348 C   0  0  0  0  0  0  0  0  0  0  0  0
   36.3910  -16.5203   37.4875 S   0  0  0  0  0  0  0  0  0  0  0  0
   36.6153  -17.3190   36.3520 H   0  0  0  0  0  0  0  0  0  0  0  0
   35.9239  -14.0092   36.4564 C   0  0  0  0  0  0  0  0  0  0  0  0
   35.3407  -12.7781   37.0634 C   0  0  0  0  0  0  0  0  0  0  0  0
   37.9416  -13.1509   37.6655 C   0  0  0  0  0  0  0  0  0  0  0  0
   37.3953  -14.1890   36.7210 C   0  0  0  0  0  0  0  0  0  0  0  0
   32.5634  -18.7249   35.3697 C   0  0  0  0  0  0  0  0  0  0  0  0
   31.4122  -18.2326   35.9036 O   0  0  0  0  0  0  0  0  0  0  0  0
   32.6881  -20.0147   35.4207 O   0  0  0  0  0  0  0  0  0  0  0  0
   30.4949  -18.5319   35.6062 H   0  0  0  0  0  0  0  0  0  0  0  0
   34.5329  -18.5613   33.8483 C   0  0  0  0  0  0  0  0  0  0  0  0
   35.9326  -18.7118   34.2838 C   0  0  0  0  0  0  0  0  0  0  0  0
   36.9952  -18.0239   33.7572 C   0  0  0  0  0  0  0  0  0  0  0  0
   38.2821  -18.1923   34.2151 C   0  0  0  0  0  0  0  0  0  0  0  0
   38.5618  -19.0674   35.2314 C   0  0  0  0  0  0  0  0  0  0  0  0
   37.4988  -19.7680   35.7708 C   0  0  0  0  0  0  0  0  0  0  0  0
   36.2320  -19.6070   35.3254 C   0  0  0  0  0  0  0  0  0  0  0  0
   39.9126  -19.2528   35.7210 C   0  0  0  0  0  0  0  0  0  0  0  0
   40.9647  -19.5241   34.8567 C   0  0  0  0  0  0  0  0  0  0  0  0
   42.2532  -19.7018   35.3120 C   0  0  0  0  0  0  0  0  0  0  0  0
   42.5477  -19.6169   36.6426 C   0  0  0  0  0  0  0  0  0  0  0  0
   41.5126  -19.3465   37.5262 C   0  0  0  0  0  0  0  0  0  0  0  0
   40.2168  -19.1689   37.0591 C   0  0  0  0  0  0  0  0  0  0  0  0
 11 12  1  0  0  0
 12  9  1  0  0  0
  9 10  1  0  0  0
  9  6  1  0  0  0
  6  7  1  0  0  0
  6  2  1  0  0  0
  2  3  2  0  0  0
  2  4  1  0  0  0
  4  1  1  0  0  0
  1 17  1  0  0  0
 17 18  1  0  0  0
 18 19  2  0  0  0
 19 20  1  0  0  0
 20 21  2  0  0  0
 21 22  1  0  0  0
 22 23  2  0  0  0
 21 24  1  0  0  0
 24 25  2  0  0  0
 25 26  1  0  0  0
 26 27  2  0  0  0
 27 28  1  0  0  0
 28 29  2  0  0  0
  1 13  1  0  0  0
 13 14  1  0  0  0
 13 15  2  0  0  0
 23 18  1  0  0  0
 29 24  1  0  0  0
  7  8  1  0  0  0
  4  5  1  0  0  0
 14 16  1  0  0  0
M  END
> <minimizedAffinity>
-6.31271

> <CNNscore>
0.2201658487

> <CNNaffinity>
4.6432380676

> <CNN_VS>
1.0222824812

> <CNNaffinity_variance>
0.5280146599

$$$$
[H]OC(=O)[C@@]([H])(N([H])C(=O)[C@@]([H])(S[H])[C@@]([H])(C([H])([H])[H])C([H])([H])C([H])([H])[H])C([H])([H])c1c([H])c([H])c(-c2c([H])c([H])c([H])c([H])c2[H])c([H])c1[H]


 29 30  0  0  0  0  0  0  0  0999 V2000
   34.1629  -17.8466   34.6475 C   0  0  0  0  0  0  0  0  0  0  0  0
   34.5627  -15.5568   35.6396 C   0  0  0  0  0  0  0  0  0  0  0  0
   33.3770  -15.2121   35.6679 O   0  0  0  0  0  0  0  0  0  0  0  0
   35.0266  -16.7848   35.1826 N   0  0  0  0  0  0  0  0  0  0  0  0
   36.0637  -17.0159   35.2071 H   0  0  0  0  0  0  0  0  0  0  0  0
   35.5898  -14.5744   36.1377 C   0  0  0  0  0  0  0  0  0  0  0  0
   34.7139  -13.4296   37.2338 S   0  0  0  0  0  0  0  0  0  0  0  0
   33.6730  -14.1389   37.8591 H   0  0  0  0  0  0  0  0  0  0  0  0
   36.6924  -15.3143   36.8869 C   0  0  0  0  0  0  0  0  0  0  0  0
   37.6637  -14.3150   37.4178 C   0  0  0  0  0  0  0  0  0  0  0  0
   36.3683  -17.6126   37.8264 C   0  0  0  0  0  0  0  0  0  0  0  0
   36.0271  -16.1507   37.9477 C   0  0  0  0  0  0  0  0  0  0  0  0
   33.2570  -18.3932   35.6348 C   0  0  0  0  0  0  0  0  0  0  0  0
   31.9675  -17.9988   35.8198 O   0  0  0  0  0  0  0  0  0  0  0  0
   33.6650  -19.3354   36.4270 O   0  0  0  0  0  0  0  0  0  0  0  0
   31.1859  -18.6372   35.7867 H   0  0  0  0  0  0  0  0  0  0  0  0
   34.9984  -18.7542   33.8862 C   0  0  0  0  0  0  0  0  0  0  0  0
   36.3897  -18.9317   34.3381 C   0  0  0  0  0  0  0  0  0  0  0  0
   36.7925  -19.8160   35.3052 C   0  0  0  0  0  0  0  0  0  0  0  0
   38.1108  -19.9520   35.6766 C   0  0  0  0  0  0  0  0  0  0  0  0
   39.0921  -19.1989   35.0879 C   0  0  0  0  0  0  0  0  0  0  0  0
   38.6990  -18.3027   34.1113 C   0  0  0  0  0  0  0  0  0  0  0  0
   37.4053  -18.1643   33.7418 C   0  0  0  0  0  0  0  0  0  0  0  0
   40.4828  -19.3337   35.4712 C   0  0  0  0  0  0  0  0  0  0  0  0
   40.9726  -18.7534   36.6334 C   0  0  0  0  0  0  0  0  0  0  0  0
   42.2933  -18.8758   37.0072 C   0  0  0  0  0  0  0  0  0  0  0  0
   43.1792  -19.5789   36.2423 C   0  0  0  0  0  0  0  0  0  0  0  0
   42.7132  -20.1683   35.0758 C   0  0  0  0  0  0  0  0  0  0  0  0
   41.3806  -20.0400   34.7062 C   0  0  0  0  0  0  0  0  0  0  0  0
 11 12  1  0  0  0
 12  9  1  0  0  0
  9 10  1  0  0  0
  9  6  1  0  0  0
  6  7  1  0  0  0
  6  2  1  0  0  0
  2  3  2  0  0  0
  2  4  1  0  0  0
  4  1  1  0  0  0
  1 17  1  0  0  0
 17 18  1  0  0  0
 18 19  2  0  0  0
 19 20  1  0  0  0
 20 21  2  0  0  0
 21 22  1  0  0  0
 22 23  2  0  0  0
 21 24  1  0  0  0
 24 25  2  0  0  0
 25 26  1  0  0  0
 26 27  2  0  0  0
 27 28  1  0  0  0
 28 29  2  0  0  0
  1 13  1  0  0  0
 13 14  1  0  0  0
 13 15  2  0  0  0
 23 18  1  0  0  0
 29 24  1  0  0  0
  7  8  1  0  0  0
  4  5  1  0  0  0
 14 16  1  0  0  0
M  END
> <minimizedAffinity>
-5.45398

> <CNNscore>
0.2122936249

> <CNNaffinity>
4.4618005753

> <CNN_VS>
0.9472118020

> <CNNaffinity_variance>
0.5555781722

$$$$
[H]OC(=O)[C@@]([H])(N([H])C(=O)[C@@]([H])(S[H])[C@@]([H])(C([H])([H])[H])C([H])([H])C([H])([H])[H])C([H])([H])c1c([H])c([H])c(-c2c([H])c([H])c([H])c([H])c2[H])c([H])c1[H]


 29 30  0  0  0  0  0  0  0  0999 V2000
   38.2839  -21.0045   37.1418 C   0  0  0  0  0  0  0  0  0  0  0  0
   40.6044  -21.1663   38.1301 C   0  0  0  0  0  0  0  0  0  0  0  0
   40.3148  -21.9649   39.0266 O   0  0  0  0  0  0  0  0  0  0  0  0
   39.7129  -20.6645   37.1890 N   0  0  0  0  0  0  0  0  0  0  0  0
   40.0423  -19.9928   36.4342 H   0  0  0  0  0  0  0  0  0  0  0  0
   42.0327  -20.6962   38.0451 C   0  0  0  0  0  0  0  0  0  0  0  0
   41.9957  -19.0968   37.1970 S   0  0  0  0  0  0  0  0  0  0  0  0
   40.7870  -18.4585   37.5276 H   0  0  0  0  0  0  0  0  0  0  0  0
   42.6161  -20.5593   39.4470 C   0  0  0  0  0  0  0  0  0  0  0  0
   44.1019  -20.6523   39.3580 C   0  0  0  0  0  0  0  0  0  0  0  0
   42.9458  -18.7751   41.1726 C   0  0  0  0  0  0  0  0  0  0  0  0
   42.1131  -19.2584   40.0145 C   0  0  0  0  0  0  0  0  0  0  0  0
   38.0198  -22.3922   37.4560 C   0  0  0  0  0  0  0  0  0  0  0  0
   38.5829  -23.4599   36.8270 O   0  0  0  0  0  0  0  0  0  0  0  0
   37.1870  -22.6871   38.4053 O   0  0  0  0  0  0  0  0  0  0  0  0
   39.0892  -24.1835   37.3164 H   0  0  0  0  0  0  0  0  0  0  0  0
   37.7373  -20.4476   35.9202 C   0  0  0  0  0  0  0  0  0  0  0  0
   37.1733  -19.0880   35.9905 C   0  0  0  0  0  0  0  0  0  0  0  0
   37.0592  -18.2312   34.9264 C   0  0  0  0  0  0  0  0  0  0  0  0
   36.5076  -16.9760   35.0467 C   0  0  0  0  0  0  0  0  0  0  0  0
   36.0420  -16.5212   36.2522 C   0  0  0  0  0  0  0  0  0  0  0  0
   36.1519  -17.3756   37.3337 C   0  0  0  0  0  0  0  0  0  0  0  0
   36.6928  -18.6101   37.2221 C   0  0  0  0  0  0  0  0  0  0  0  0
   35.4598  -15.2018   36.3903 C   0  0  0  0  0  0  0  0  0  0  0  0
   36.2515  -14.0785   36.5876 C   0  0  0  0  0  0  0  0  0  0  0  0
   35.7079  -12.8192   36.7198 C   0  0  0  0  0  0  0  0  0  0  0  0
   34.3575  -12.6255   36.6613 C   0  0  0  0  0  0  0  0  0  0  0  0
   33.5452  -13.7332   36.4647 C   0  0  0  0  0  0  0  0  0  0  0  0
   34.1012  -14.9991   36.3325 C   0  0  0  0  0  0  0  0  0  0  0  0
 11 12  1  0  0  0
 12  9  1  0  0  0
  9 10  1  0  0  0
  9  6  1  0  0  0
  6  7  1  0  0  0
  6  2  1  0  0  0
  2  3  2  0  0  0
  2  4  1  0  0  0
  4  1  1  0  0  0
  1 17  1  0  0  0
 17 18  1  0  0  0
 18 19  2  0  0  0
 19 20  1  0  0  0
 20 21  2  0  0  0
 21 22  1  0  0  0
 22 23  2  0  0  0
 21 24  1  0  0  0
 24 25  2  0  0  0
 25 26  1  0  0  0
 26 27  2  0  0  0
 27 28  1  0  0  0
 28 29  2  0  0  0
  1 13  1  0  0  0
 13 14  1  0  0  0
 13 15  2  0  0  0
 23 18  1  0  0  0
 29 24  1  0  0  0
  7  8  1  0  0  0
  4  5  1  0  0  0
 14 16  1  0  0  0
M  END
> <minimizedAffinity>
-5.57438

> <CNNscore>
0.1843556464

> <CNNaffinity>
4.2031488419

> <CNN_VS>
0.7748742104

> <CNNaffinity_variance>
0.4804265499

$$$$
[H]OC(=O)[C@@]([H])(N([H])C(=O)[C@@]([H])(S[H])[C@@]([H])(C([H])([H])[H])C([H])([H])C([H])([H])[H])C([H])([H])c1c([H])c([H])c(-c2c([H])c([H])c([H])c([H])c2[H])c([H])c1[H]


 29 30  0  0  0  0  0  0  0  0999 V2000
   35.3448  -21.4548   37.2517 C   0  0  0  0  0  0  0  0  0  0  0  0
   33.4143  -22.8282   36.3718 C   0  0  0  0  0  0  0  0  0  0  0  0
   33.9188  -23.9326   36.5986 O   0  0  0  0  0  0  0  0  0  0  0  0
   34.0104  -21.6048   36.6545 N   0  0  0  0  0  0  0  0  0  0  0  0
   33.5038  -20.6939   36.4465 H   0  0  0  0  0  0  0  0  0  0  0  0
   32.0475  -22.7990   35.7401 C   0  0  0  0  0  0  0  0  0  0  0  0
   32.1313  -21.5905   34.3942 S   0  0  0  0  0  0  0  0  0  0  0  0
   33.4365  -21.6135   33.8713 H   0  0  0  0  0  0  0  0  0  0  0  0
   31.6927  -24.1842   35.2109 C   0  0  0  0  0  0  0  0  0  0  0  0
   30.6640  -24.7889   36.1054 C   0  0  0  0  0  0  0  0  0  0  0  0
   31.3244  -25.2987   32.9992 C   0  0  0  0  0  0  0  0  0  0  0  0
   31.2452  -24.0152   33.7832 C   0  0  0  0  0  0  0  0  0  0  0  0
   35.3031  -21.1517   38.6661 C   0  0  0  0  0  0  0  0  0  0  0  0
   36.3303  -21.3392   39.5392 O   0  0  0  0  0  0  0  0  0  0  0  0
   34.2206  -20.6608   39.1847 O   0  0  0  0  0  0  0  0  0  0  0  0
   36.7050  -20.6001   40.1160 H   0  0  0  0  0  0  0  0  0  0  0  0
   36.1275  -20.6043   36.3768 C   0  0  0  0  0  0  0  0  0  0  0  0
   35.9014  -19.1510   36.4677 C   0  0  0  0  0  0  0  0  0  0  0  0
   36.6497  -18.2876   37.2254 C   0  0  0  0  0  0  0  0  0  0  0  0
   36.4036  -16.9339   37.2596 C   0  0  0  0  0  0  0  0  0  0  0  0
   35.3855  -16.3821   36.5278 C   0  0  0  0  0  0  0  0  0  0  0  0
   34.6227  -17.2422   35.7597 C   0  0  0  0  0  0  0  0  0  0  0  0
   34.8594  -18.5733   35.7217 C   0  0  0  0  0  0  0  0  0  0  0  0
   35.1173  -14.9586   36.5564 C   0  0  0  0  0  0  0  0  0  0  0  0
   33.8195  -14.4661   36.5335 C   0  0  0  0  0  0  0  0  0  0  0  0
   33.5535  -13.1143   36.5607 C   0  0  0  0  0  0  0  0  0  0  0  0
   34.5652  -12.1986   36.6121 C   0  0  0  0  0  0  0  0  0  0  0  0
   35.8712  -12.6666   36.6359 C   0  0  0  0  0  0  0  0  0  0  0  0
   36.1306  -14.0308   36.6080 C   0  0  0  0  0  0  0  0  0  0  0  0
 11 12  1  0  0  0
 12  9  1  0  0  0
  9 10  1  0  0  0
  9  6  1  0  0  0
  6  7  1  0  0  0
  6  2  1  0  0  0
  2  3  2  0  0  0
  2  4  1  0  0  0
  4  1  1  0  0  0
  1 17  1  0  0  0
 17 18  1  0  0  0
 18 19  2  0  0  0
 19 20  1  0  0  0
 20 21  2  0  0  0
 21 22  1  0  0  0
 22 23  2  0  0  0
 21 24  1  0  0  0
 24 25  2  0  0  0
 25 26  1  0  0  0
 26 27  2  0  0  0
 27 28  1  0  0  0
 28 29  2  0  0  0
  1 13  1  0  0  0
 13 14  1  0  0  0
 13 15  2  0  0  0
 23 18  1  0  0  0
 29 24  1  0  0  0
  7  8  1  0  0  0
  4  5  1  0  0  0
 14 16  1  0  0  0
M  END
> <minimizedAffinity>
-5.78452

> <CNNscore>
0.1740393192

> <CNNaffinity>
4.3349390030

> <CNN_VS>
0.7544498444

> <CNNaffinity_variance>
0.2606161237

$$$$
[H]c1c([H])c([H])c(S(=O)(=O)[C@@]2([H])C([H])([H])N(C(=O)C3(C#N)C([H])([H])C3([H])[H])[C@]([H])(C(=O)N([H])[C@]([H])(C(=O)C(=O)N([H])C3([H])C([H])([H])C3([H])[H])C([H])([H])C([H])([H])[H])C2([H])[H])c(Cl)c1[H]


 38 41  0  0  0  0  0  0  0  0999 V2000
   38.6322  -21.7614   35.6836 C   0  0  0  0  0  0  0  0  0  0  0  0
   37.6923  -22.3577   36.7901 C   0  0  0  0  0  0  0  0  0  0  0  0
   38.3399  -21.7523   37.9779 C   0  0  0  0  0  0  0  0  0  0  0  0
   39.8064  -22.0647   37.6669 C   0  0  0  0  0  0  0  0  0  0  0  0
   39.9267  -21.8807   36.2377 N   0  0  0  0  0  0  0  0  0  0  0  0
   41.2150  -21.8582   35.6230 C   0  0  0  0  0  0  0  0  0  0  0  0
   42.2072  -21.9747   36.4359 O   0  0  0  0  0  0  0  0  0  0  0  0
   36.8096  -20.0586   35.1745 N   0  0  0  0  0  0  0  0  0  0  0  0
   38.1429  -20.4099   35.4374 C   0  0  0  0  0  0  0  0  0  0  0  0
   39.0119  -19.4873   35.4679 O   0  0  0  0  0  0  0  0  0  0  0  0
   35.9964  -20.7053   35.1201 H   0  0  0  0  0  0  0  0  0  0  0  0
   36.4305  -18.6474   34.9390 C   0  0  0  0  0  0  0  0  0  0  0  0
   34.1608  -19.4203   34.2059 C   0  0  0  0  0  0  0  0  0  0  0  0
   35.3664  -18.6013   33.8627 C   0  0  0  0  0  0  0  0  0  0  0  0
   35.9767  -18.0433   36.2048 C   0  0  0  0  0  0  0  0  0  0  0  0
   35.7542  -18.7868   37.1894 O   0  0  0  0  0  0  0  0  0  0  0  0
   35.7889  -16.6153   36.3216 C   0  0  0  0  0  0  0  0  0  0  0  0
   34.6630  -16.0454   36.2887 O   0  0  0  0  0  0  0  0  0  0  0  0
   36.9168  -15.7453   36.4862 N   0  0  0  0  0  0  0  0  0  0  0  0
   37.8515  -16.1853   36.5165 H   0  0  0  0  0  0  0  0  0  0  0  0
   36.7860  -14.3146   36.6082 C   0  0  0  0  0  0  0  0  0  0  0  0
   37.9013  -13.6388   37.3895 C   0  0  0  0  0  0  0  0  0  0  0  0
   36.5247  -13.8019   37.9862 C   0  0  0  0  0  0  0  0  0  0  0  0
   41.5503  -21.7231   34.2136 C   0  0  0  0  0  0  0  0  0  0  0  0
   42.6175  -22.6948   33.6782 C   0  0  0  0  0  0  0  0  0  0  0  0
   41.2159  -22.9914   33.3876 C   0  0  0  0  0  0  0  0  0  0  0  0
   41.4592  -20.4698   33.4846 C   0  0  0  0  0  0  0  0  0  0  0  0
   41.3735  -19.4479   32.9282 N   0  0  0  0  0  0  0  0  0  0  0  0
   37.8893  -22.3152   39.5566 S   0  0  0  0  0  0  0  0  0  0  0  0
   36.7776  -23.3447   39.4231 O   0  0  0  0  0  0  0  0  0  0  0  0
   37.2524  -21.1849   40.3570 O   0  0  0  0  0  0  0  0  0  0  0  0
   39.1384  -23.0508   40.5003 C   0  0  0  0  0  0  0  0  0  0  0  0
   39.1145  -24.4429   40.6206 C   0  0  0  0  0  0  0  0  0  0  0  0
   40.0185  -25.1128   41.3932 C   0  0  0  0  0  0  0  0  0  0  0  0
   40.9817  -24.4057   42.0745 C   0  0  0  0  0  0  0  0  0  0  0  0
   41.0196  -23.0469   41.9666 C   0  0  0  0  0  0  0  0  0  0  0  0
   40.1080  -22.3607   41.1848 C   0  0  0  0  0  0  0  0  0  0  0  0
   40.2371  -20.6140   41.0035 Cl  0  0  0  0  0  0  0  0  0  0  0  0
 13 14  1  0  0  0
 14 12  1  0  0  0
 12  8  1  0  0  0
  8  9  1  0  0  0
  9 10  2  0  0  0
  9  1  1  0  0  0
  1  2  1  0  0  0
  2  3  1  0  0  0
  3  4  1  0  0  0
  4  5  1  0  0  0
  5  6  1  0  0  0
  6  7  2  0  0  0
  6 24  1  0  0  0
 24 25  1  0  0  0
 25 26  1  0  0  0
 24 27  1  0  0  0
 27 28  3  0  0  0
  3 29  1  0  0  0
 29 30  2  0  0  0
 29 31  2  0  0  0
 29 32  1  0  0  0
 32 33  2  0  0  0
 33 34  1  0  0  0
 34 35  2  0  0  0
 35 36  1  0  0  0
 36 37  2  0  0  0
 37 38  1  0  0  0
 12 15  1  0  0  0
 15 16  2  0  0  0
 15 17  1  0  0  0
 17 18  2  0  0  0
 17 19  1  0  0  0
 19 21  1  0  0  0
 21 22  1  0  0  0
 22 23  1  0  0  0
  5  1  1  0  0  0
 26 24  1  0  0  0
 37 32  1  0  0  0
 23 21  1  0  0  0
  8 11  1  0  0  0
 19 20  1  0  0  0
M  END
> <minimizedAffinity>
-5.03315

> <CNNscore>
0.4415049851

> <CNNaffinity>
6.1970224380

> <CNN_VS>
2.7360162735

> <CNNaffinity_variance>
0.0782854185

$$$$
[H]c1c([H])c([H])c(S(=O)(=O)[C@@]2([H])C([H])([H])N(C(=O)C3(C#N)C([H])([H])C3([H])[H])[C@]([H])(C(=O)N([H])[C@]([H])(C(=O)C(=O)N([H])C3([H])C([H])([H])C3([H])[H])C([H])([H])C([H])([H])[H])C2([H])[H])c(Cl)c1[H]


 38 41  0  0  0  0  0  0  0  0999 V2000
   35.6782  -19.0548   36.3540 C   0  0  0  0  0  0  0  0  0  0  0  0
   34.6329  -19.8008   37.2562 C   0  0  0  0  0  0  0  0  0  0  0  0
   35.4923  -20.0340   38.4411 C   0  0  0  0  0  0  0  0  0  0  0  0
   36.7508  -20.5703   37.7529 C   0  0  0  0  0  0  0  0  0  0  0  0
   36.8735  -19.7839   36.5457 N   0  0  0  0  0  0  0  0  0  0  0  0
   38.0678  -19.8471   35.7662 C   0  0  0  0  0  0  0  0  0  0  0  0
   38.9899  -20.6082   36.2455 O   0  0  0  0  0  0  0  0  0  0  0  0
   35.0868  -16.5891   36.1280 N   0  0  0  0  0  0  0  0  0  0  0  0
   35.6721  -17.6688   36.8076 C   0  0  0  0  0  0  0  0  0  0  0  0
   36.2499  -17.4404   37.9127 O   0  0  0  0  0  0  0  0  0  0  0  0
   34.5826  -16.6276   35.2188 H   0  0  0  0  0  0  0  0  0  0  0  0
   35.1443  -15.2205   36.6886 C   0  0  0  0  0  0  0  0  0  0  0  0
   37.2291  -13.9323   37.2180 C   0  0  0  0  0  0  0  0  0  0  0  0
   36.3705  -14.5204   36.1416 C   0  0  0  0  0  0  0  0  0  0  0  0
   33.8967  -14.5047   36.3651 C   0  0  0  0  0  0  0  0  0  0  0  0
   33.3278  -14.7358   35.2721 O   0  0  0  0  0  0  0  0  0  0  0  0
   33.3274  -13.5492   37.2874 C   0  0  0  0  0  0  0  0  0  0  0  0
   33.7778  -13.3305   38.4462 O   0  0  0  0  0  0  0  0  0  0  0  0
   32.1794  -12.7751   36.9149 N   0  0  0  0  0  0  0  0  0  0  0  0
   31.7894  -12.9338   35.9710 H   0  0  0  0  0  0  0  0  0  0  0  0
   31.5723  -11.8083   37.7957 C   0  0  0  0  0  0  0  0  0  0  0  0
   30.2970  -11.1754   37.2623 C   0  0  0  0  0  0  0  0  0  0  0  0
   31.5871  -10.3941   37.3160 C   0  0  0  0  0  0  0  0  0  0  0  0
   38.3765  -19.1725   34.5146 C   0  0  0  0  0  0  0  0  0  0  0  0
   39.8718  -19.0040   34.1902 C   0  0  0  0  0  0  0  0  0  0  0  0
   39.1422  -20.0747   33.5135 C   0  0  0  0  0  0  0  0  0  0  0  0
   37.5140  -18.1723   33.9094 C   0  0  0  0  0  0  0  0  0  0  0  0
   36.8396  -17.3440   33.4400 N   0  0  0  0  0  0  0  0  0  0  0  0
   34.9354  -21.1127   39.6815 S   0  0  0  0  0  0  0  0  0  0  0  0
   34.4404  -22.4003   39.0406 O   0  0  0  0  0  0  0  0  0  0  0  0
   33.6980  -20.5388   40.3621 O   0  0  0  0  0  0  0  0  0  0  0  0
   36.0910  -21.5680   40.8854 C   0  0  0  0  0  0  0  0  0  0  0  0
   36.1056  -20.8286   42.0712 C   0  0  0  0  0  0  0  0  0  0  0  0
   37.0193  -21.0687   43.0563 C   0  0  0  0  0  0  0  0  0  0  0  0
   37.9537  -22.0633   42.8845 C   0  0  0  0  0  0  0  0  0  0  0  0
   37.9521  -22.7950   41.7339 C   0  0  0  0  0  0  0  0  0  0  0  0
   37.0289  -22.5588   40.7313 C   0  0  0  0  0  0  0  0  0  0  0  0
   37.0042  -23.5765   39.2947 Cl  0  0  0  0  0  0  0  0  0  0  0  0
 13 14  1  0  0  0
 14 12  1  0  0  0
 12  8  1  0  0  0
  8  9  1  0  0  0
  9 10  2  0  0  0
  9  1  1  0  0  0
  1  2  1  0  0  0
  2  3  1  0  0  0
  3  4  1  0  0  0
  4  5  1  0  0  0
  5  6  1  0  0  0
  6  7  2  0  0  0
  6 24  1  0  0  0
 24 25  1  0  0  0
 25 26  1  0  0  0
 24 27  1  0  0  0
 27 28  3  0  0  0
  3 29  1  0  0  0
 29 30  2  0  0  0
 29 31  2  0  0  0
 29 32  1  0  0  0
 32 33  2  0  0  0
 33 34  1  0  0  0
 34 35  2  0  0  0
 35 36  1  0  0  0
 36 37  2  0  0  0
 37 38  1  0  0  0
 12 15  1  0  0  0
 15 16  2  0  0  0
 15 17  1  0  0  0
 17 18  2  0  0  0
 17 19  1  0  0  0
 19 21  1  0  0  0
 21 22  1  0  0  0
 22 23  1  0  0  0
  5  1  1  0  0  0
 26 24  1  0  0  0
 37 32  1  0  0  0
 23 21  1  0  0  0
  8 11  1  0  0  0
 19 20  1  0  0  0
M  END
> <minimizedAffinity>
-6.59966

> <CNNscore>
0.3729496002

> <CNNaffinity>
6.3974027634

> <CNN_VS>
2.3859088421

> <CNNaffinity_variance>
0.0873976052

$$$$
[H]c1c([H])c([H])c(S(=O)(=O)[C@@]2([H])C([H])([H])N(C(=O)C3(C#N)C([H])([H])C3([H])[H])[C@]([H])(C(=O)N([H])[C@]([H])(C(=O)C(=O)N([H])C3([H])C([H])([H])C3([H])[H])C([H])([H])C([H])([H])[H])C2([H])[H])c(Cl)c1[H]


 38 41  0  0  0  0  0  0  0  0999 V2000
   36.3290  -18.9123   35.5798 C   0  0  0  0  0  0  0  0  0  0  0  0
   34.8752  -19.4807   35.4178 C   0  0  0  0  0  0  0  0  0  0  0  0
   34.7155  -20.0642   36.7708 C   0  0  0  0  0  0  0  0  0  0  0  0
   36.0486  -20.8072   36.8969 C   0  0  0  0  0  0  0  0  0  0  0  0
   37.0172  -19.9333   36.2733 N   0  0  0  0  0  0  0  0  0  0  0  0
   38.4138  -20.1946   36.4124 C   0  0  0  0  0  0  0  0  0  0  0  0
   38.7058  -21.2139   37.1437 O   0  0  0  0  0  0  0  0  0  0  0  0
   35.3905  -16.5592   35.8293 N   0  0  0  0  0  0  0  0  0  0  0  0
   36.1784  -17.6350   36.2672 C   0  0  0  0  0  0  0  0  0  0  0  0
   36.8224  -17.5052   37.3516 O   0  0  0  0  0  0  0  0  0  0  0  0
   34.8120  -16.5246   34.9653 H   0  0  0  0  0  0  0  0  0  0  0  0
   35.3151  -15.3067   36.6144 C   0  0  0  0  0  0  0  0  0  0  0  0
   37.3059  -14.0465   37.4718 C   0  0  0  0  0  0  0  0  0  0  0  0
   36.5083  -14.4411   36.2677 C   0  0  0  0  0  0  0  0  0  0  0  0
   34.0329  -14.6325   36.3411 C   0  0  0  0  0  0  0  0  0  0  0  0
   33.4022  -14.9230   35.2974 O   0  0  0  0  0  0  0  0  0  0  0  0
   33.4998  -13.6500   37.2569 C   0  0  0  0  0  0  0  0  0  0  0  0
   33.9842  -13.4110   38.3978 O   0  0  0  0  0  0  0  0  0  0  0  0
   32.3507  -12.8709   36.8983 N   0  0  0  0  0  0  0  0  0  0  0  0
   31.9333  -13.0459   35.9691 H   0  0  0  0  0  0  0  0  0  0  0  0
   31.7788  -11.8776   37.7732 C   0  0  0  0  0  0  0  0  0  0  0  0
   30.2868  -12.0320   38.0205 C   0  0  0  0  0  0  0  0  0  0  0  0
   30.8167  -10.9292   37.1370 C   0  0  0  0  0  0  0  0  0  0  0  0
   39.5384  -19.4688   35.8418 C   0  0  0  0  0  0  0  0  0  0  0  0
   40.4138  -18.6890   36.8395 C   0  0  0  0  0  0  0  0  0  0  0  0
   40.9098  -19.9762   36.3560 C   0  0  0  0  0  0  0  0  0  0  0  0
   39.5448  -18.9339   34.4911 C   0  0  0  0  0  0  0  0  0  0  0  0
   39.5806  -18.4885   33.4134 N   0  0  0  0  0  0  0  0  0  0  0  0
   33.3687  -21.1152   37.0770 S   0  0  0  0  0  0  0  0  0  0  0  0
   33.1091  -21.1737   38.5747 O   0  0  0  0  0  0  0  0  0  0  0  0
   33.7254  -22.5503   36.7072 O   0  0  0  0  0  0  0  0  0  0  0  0
   31.8691  -20.6876   36.3282 C   0  0  0  0  0  0  0  0  0  0  0  0
   31.8501  -19.5276   35.5492 C   0  0  0  0  0  0  0  0  0  0  0  0
   30.7027  -19.0715   34.9676 C   0  0  0  0  0  0  0  0  0  0  0  0
   29.5298  -19.7670   35.1485 C   0  0  0  0  0  0  0  0  0  0  0  0
   29.5316  -20.9017   35.9047 C   0  0  0  0  0  0  0  0  0  0  0  0
   30.6903  -21.3711   36.4965 C   0  0  0  0  0  0  0  0  0  0  0  0
   30.6724  -22.8835   37.3980 Cl  0  0  0  0  0  0  0  0  0  0  0  0
 13 14  1  0  0  0
 14 12  1  0  0  0
 12  8  1  0  0  0
  8  9  1  0  0  0
  9 10  2  0  0  0
  9  1  1  0  0  0
  1  2  1  0  0  0
  2  3  1  0  0  0
  3  4  1  0  0  0
  4  5  1  0  0  0
  5  6  1  0  0  0
  6  7  2  0  0  0
  6 24  1  0  0  0
 24 25  1  0  0  0
 25 26  1  0  0  0
 24 27  1  0  0  0
 27 28  3  0  0  0
  3 29  1  0  0  0
 29 30  2  0  0  0
 29 31  2  0  0  0
 29 32  1  0  0  0
 32 33  2  0  0  0
 33 34  1  0  0  0
 34 35  2  0  0  0
 35 36  1  0  0  0
 36 37  2  0  0  0
 37 38  1  0  0  0
 12 15  1  0  0  0
 15 16  2  0  0  0
 15 17  1  0  0  0
 17 18  2  0  0  0
 17 19  1  0  0  0
 19 21  1  0  0  0
 21 22  1  0  0  0
 22 23  1  0  0  0
  5  1  1  0  0  0
 26 24  1  0  0  0
 37 32  1  0  0  0
 23 21  1  0  0  0
  8 11  1  0  0  0
 19 20  1  0  0  0
M  END
> <minimizedAffinity>
-7.69513

> <CNNscore>
0.3575103581

> <CNNaffinity>
6.6228318214

> <CNN_VS>
2.3677310944

> <CNNaffinity_variance>
0.0561131462

$$$$
[H]c1c([H])c([H])c(S(=O)(=O)[C@@]2([H])C([H])([H])N(C(=O)C3(C#N)C([H])([H])C3([H])[H])[C@]([H])(C(=O)N([H])[C@]([H])(C(=O)C(=O)N([H])C3([H])C([H])([H])C3([H])[H])C([H])([H])C([H])([H])[H])C2([H])[H])c(Cl)c1[H]


 38 41  0  0  0  0  0  0  0  0999 V2000
   36.1233  -19.0036   35.5067 C   0  0  0  0  0  0  0  0  0  0  0  0
   34.7093  -19.6374   35.7557 C   0  0  0  0  0  0  0  0  0  0  0  0
   34.9253  -20.1189   37.1407 C   0  0  0  0  0  0  0  0  0  0  0  0
   36.2873  -20.7990   36.9743 C   0  0  0  0  0  0  0  0  0  0  0  0
   37.0190  -19.9405   36.0696 N   0  0  0  0  0  0  0  0  0  0  0  0
   38.4185  -20.1373   35.8678 C   0  0  0  0  0  0  0  0  0  0  0  0
   38.9405  -21.0845   36.5672 O   0  0  0  0  0  0  0  0  0  0  0  0
   35.1480  -16.6740   35.8270 N   0  0  0  0  0  0  0  0  0  0  0  0
   36.0775  -17.6831   36.1238 C   0  0  0  0  0  0  0  0  0  0  0  0
   36.9613  -17.4458   37.0012 O   0  0  0  0  0  0  0  0  0  0  0  0
   34.3730  -16.7280   35.1350 H   0  0  0  0  0  0  0  0  0  0  0  0
   35.2005  -15.3679   36.5212 C   0  0  0  0  0  0  0  0  0  0  0  0
   37.1962  -14.0061   37.1913 C   0  0  0  0  0  0  0  0  0  0  0  0
   36.4324  -14.6187   36.0585 C   0  0  0  0  0  0  0  0  0  0  0  0
   33.9566  -14.6218   36.2579 C   0  0  0  0  0  0  0  0  0  0  0  0
   33.3172  -14.8555   35.2051 O   0  0  0  0  0  0  0  0  0  0  0  0
   33.4704  -13.6336   37.1934 C   0  0  0  0  0  0  0  0  0  0  0  0
   33.9698  -13.4358   38.3357 O   0  0  0  0  0  0  0  0  0  0  0  0
   32.3543  -12.7997   36.8546 N   0  0  0  0  0  0  0  0  0  0  0  0
   31.9254  -12.9402   35.9247 H   0  0  0  0  0  0  0  0  0  0  0  0
   31.8296  -11.7984   37.7497 C   0  0  0  0  0  0  0  0  0  0  0  0
   30.4061  -12.0500   38.2204 C   0  0  0  0  0  0  0  0  0  0  0  0
   30.7101  -10.9695   37.2116 C   0  0  0  0  0  0  0  0  0  0  0  0
   39.3225  -19.4164   34.9845 C   0  0  0  0  0  0  0  0  0  0  0  0
   39.3077  -19.8473   33.5067 C   0  0  0  0  0  0  0  0  0  0  0  0
   38.5829  -18.6313   33.8712 C   0  0  0  0  0  0  0  0  0  0  0  0
   40.5754  -18.8285   35.4264 C   0  0  0  0  0  0  0  0  0  0  0  0
   41.5982  -18.3857   35.7713 N   0  0  0  0  0  0  0  0  0  0  0  0
   33.7588  -21.1927   37.8465 S   0  0  0  0  0  0  0  0  0  0  0  0
   33.8838  -22.5637   37.1996 O   0  0  0  0  0  0  0  0  0  0  0  0
   32.3462  -20.7435   37.4909 O   0  0  0  0  0  0  0  0  0  0  0  0
   33.8680  -21.4369   39.5555 C   0  0  0  0  0  0  0  0  0  0  0  0
   34.7777  -20.6430   40.2591 C   0  0  0  0  0  0  0  0  0  0  0  0
   34.9830  -20.8011   41.5991 C   0  0  0  0  0  0  0  0  0  0  0  0
   34.2793  -21.7656   42.2821 C   0  0  0  0  0  0  0  0  0  0  0  0
   33.3867  -22.5477   41.6106 C   0  0  0  0  0  0  0  0  0  0  0  0
   33.1720  -22.3930   40.2530 C   0  0  0  0  0  0  0  0  0  0  0  0
   31.9529  -23.3646   39.4345 Cl  0  0  0  0  0  0  0  0  0  0  0  0
 13 14  1  0  0  0
 14 12  1  0  0  0
 12  8  1  0  0  0
  8  9  1  0  0  0
  9 10  2  0  0  0
  9  1  1  0  0  0
  1  2  1  0  0  0
  2  3  1  0  0  0
  3  4  1  0  0  0
  4  5  1  0  0  0
  5  6  1  0  0  0
  6  7  2  0  0  0
  6 24  1  0  0  0
 24 25  1  0  0  0
 25 26  1  0  0  0
 24 27  1  0  0  0
 27 28  3  0  0  0
  3 29  1  0  0  0
 29 30  2  0  0  0
 29 31  2  0  0  0
 29 32  1  0  0  0
 32 33  2  0  0  0
 33 34  1  0  0  0
 34 35  2  0  0  0
 35 36  1  0  0  0
 36 37  2  0  0  0
 37 38  1  0  0  0
 12 15  1  0  0  0
 15 16  2  0  0  0
 15 17  1  0  0  0
 17 18  2  0  0  0
 17 19  1  0  0  0
 19 21  1  0  0  0
 21 22  1  0  0  0
 22 23  1  0  0  0
  5  1  1  0  0  0
 26 24  1  0  0  0
 37 32  1  0  0  0
 23 21  1  0  0  0
  8 11  1  0  0  0
 19 20  1  0  0  0
M  END
> <minimizedAffinity>
-6.80362

> <CNNscore>
0.3015552163

> <CNNaffinity>
6.3462848663

> <CNN_VS>
1.9137552977

> <CNNaffinity_variance>
0.0097912159

$$$$
[H]c1c([H])c([H])c(S(=O)(=O)[C@@]2([H])C([H])([H])N(C(=O)C3(C#N)C([H])([H])C3([H])[H])[C@]([H])(C(=O)N([H])[C@]([H])(C(=O)C(=O)N([H])C3([H])C([H])([H])C3([H])[H])C([H])([H])C([H])([H])[H])C2([H])[H])c(Cl)c1[H]


 38 41  0  0  0  0  0  0  0  0999 V2000
   35.6418  -18.0543   35.1329 C   0  0  0  0  0  0  0  0  0  0  0  0
   34.1805  -18.2528   34.5960 C   0  0  0  0  0  0  0  0  0  0  0  0
   33.6400  -19.0524   35.7209 C   0  0  0  0  0  0  0  0  0  0  0  0
   34.7695  -20.0733   35.8856 C   0  0  0  0  0  0  0  0  0  0  0  0
   35.9828  -19.3186   35.6642 N   0  0  0  0  0  0  0  0  0  0  0  0
   37.2526  -19.8956   35.9686 C   0  0  0  0  0  0  0  0  0  0  0  0
   37.2046  -21.0812   36.4698 O   0  0  0  0  0  0  0  0  0  0  0  0
   35.1719  -15.6326   35.7615 N   0  0  0  0  0  0  0  0  0  0  0  0
   35.5683  -16.9424   36.0736 C   0  0  0  0  0  0  0  0  0  0  0  0
   35.8943  -17.2017   37.2710 O   0  0  0  0  0  0  0  0  0  0  0  0
   34.8791  -15.2784   34.8282 H   0  0  0  0  0  0  0  0  0  0  0  0
   35.1366  -14.5831   36.8046 C   0  0  0  0  0  0  0  0  0  0  0  0
   37.3951  -14.0895   37.7751 C   0  0  0  0  0  0  0  0  0  0  0  0
   36.4007  -13.7553   36.7068 C   0  0  0  0  0  0  0  0  0  0  0  0
   33.9178  -13.7699   36.6416 C   0  0  0  0  0  0  0  0  0  0  0  0
   33.0897  -14.0845   35.7545 O   0  0  0  0  0  0  0  0  0  0  0  0
   33.6696  -12.6250   37.4875 C   0  0  0  0  0  0  0  0  0  0  0  0
   33.3389  -12.7028   38.7032 O   0  0  0  0  0  0  0  0  0  0  0  0
   33.7917  -11.2954   36.9646 N   0  0  0  0  0  0  0  0  0  0  0  0
   34.0614  -11.2020   35.9712 H   0  0  0  0  0  0  0  0  0  0  0  0
   33.5562  -10.1190   37.7643 C   0  0  0  0  0  0  0  0  0  0  0  0
   32.2948   -9.3494   37.4066 C   0  0  0  0  0  0  0  0  0  0  0  0
   33.6588   -8.8142   37.0451 C   0  0  0  0  0  0  0  0  0  0  0  0
   38.5795  -19.3266   35.7881 C   0  0  0  0  0  0  0  0  0  0  0  0
   39.0569  -18.3655   36.8919 C   0  0  0  0  0  0  0  0  0  0  0  0
   39.5703  -19.7340   36.9084 C   0  0  0  0  0  0  0  0  0  0  0  0
   39.1812  -19.0930   34.4866 C   0  0  0  0  0  0  0  0  0  0  0  0
   39.6701  -18.8721   33.4506 N   0  0  0  0  0  0  0  0  0  0  0  0
   32.1001  -19.8304   35.5326 S   0  0  0  0  0  0  0  0  0  0  0  0
   32.0120  -20.4370   34.1405 O   0  0  0  0  0  0  0  0  0  0  0  0
   30.9807  -18.7960   35.5569 O   0  0  0  0  0  0  0  0  0  0  0  0
   31.7324  -21.0971   36.6518 C   0  0  0  0  0  0  0  0  0  0  0  0
   32.7430  -21.4835   37.5363 C   0  0  0  0  0  0  0  0  0  0  0  0
   32.5732  -22.5139   38.4152 C   0  0  0  0  0  0  0  0  0  0  0  0
   31.3783  -23.1948   38.4367 C   0  0  0  0  0  0  0  0  0  0  0  0
   30.3815  -22.8293   37.5811 C   0  0  0  0  0  0  0  0  0  0  0  0
   30.5451  -21.7856   36.6883 C   0  0  0  0  0  0  0  0  0  0  0  0
   29.2087  -21.2881   35.6554 Cl  0  0  0  0  0  0  0  0  0  0  0  0
 13 14  1  0  0  0
 14 12  1  0  0  0
 12  8  1  0  0  0
  8  9  1  0  0  0
  9 10  2  0  0  0
  9  1  1  0  0  0
  1  2  1  0  0  0
  2  3  1  0  0  0
  3  4  1  0  0  0
  4  5  1  0  0  0
  5  6  1  0  0  0
  6  7  2  0  0  0
  6 24  1  0  0  0
 24 25  1  0  0  0
 25 26  1  0  0  0
 24 27  1  0  0  0
 27 28  3  0  0  0
  3 29  1  0  0  0
 29 30  2  0  0  0
 29 31  2  0  0  0
 29 32  1  0  0  0
 32 33  2  0  0  0
 33 34  1  0  0  0
 34 35  2  0  0  0
 35 36  1  0  0  0
 36 37  2  0  0  0
 37 38  1  0  0  0
 12 15  1  0  0  0
 15 16  2  0  0  0
 15 17  1  0  0  0
 17 18  2  0  0  0
 17 19  1  0  0  0
 19 21  1  0  0  0
 21 22  1  0  0  0
 22 23  1  0  0  0
  5  1  1  0  0  0
 26 24  1  0  0  0
 37 32  1  0  0  0
 23 21  1  0  0  0
  8 11  1  0  0  0
 19 20  1  0  0  0
M  END
> <minimizedAffinity>
-7.88172

> <CNNscore>
0.2897256911

> <CNNaffinity>
6.5262351036

> <CNN_VS>
1.8908179998

> <CNNaffinity_variance>
0.0767591149

$$$$
[H]c1c([H])c([H])c(S(=O)(=O)[C@@]2([H])C([H])([H])N(C(=O)C3(C#N)C([H])([H])C3([H])[H])[C@]([H])(C(=O)N([H])[C@]([H])(C(=O)C(=O)N([H])C3([H])C([H])([H])C3([H])[H])C([H])([H])C([H])([H])[H])C2([H])[H])c(Cl)c1[H]


 38 41  0  0  0  0  0  0  0  0999 V2000
   40.0294  -21.0880   37.9175 C   0  0  0  0  0  0  0  0  0  0  0  0
   38.7718  -22.0110   38.0891 C   0  0  0  0  0  0  0  0  0  0  0  0
   38.0774  -21.2413   39.1484 C   0  0  0  0  0  0  0  0  0  0  0  0
   39.2476  -20.9934   40.1047 C   0  0  0  0  0  0  0  0  0  0  0  0
   40.3809  -20.7436   39.2421 N   0  0  0  0  0  0  0  0  0  0  0  0
   41.6007  -20.2409   39.7875 C   0  0  0  0  0  0  0  0  0  0  0  0
   41.5751  -20.0098   41.0544 O   0  0  0  0  0  0  0  0  0  0  0  0
   38.5803  -20.0735   36.0867 N   0  0  0  0  0  0  0  0  0  0  0  0
   39.6035  -19.9999   37.0449 C   0  0  0  0  0  0  0  0  0  0  0  0
   40.2227  -18.9018   37.1787 O   0  0  0  0  0  0  0  0  0  0  0  0
   37.9917  -20.9033   35.8696 H   0  0  0  0  0  0  0  0  0  0  0  0
   38.2354  -18.8985   35.2554 C   0  0  0  0  0  0  0  0  0  0  0  0
   39.8224  -19.3155   33.3597 C   0  0  0  0  0  0  0  0  0  0  0  0
   38.3908  -19.2710   33.7959 C   0  0  0  0  0  0  0  0  0  0  0  0
   36.8682  -18.4523   35.5794 C   0  0  0  0  0  0  0  0  0  0  0  0
   35.9132  -18.8529   34.8729 O   0  0  0  0  0  0  0  0  0  0  0  0
   36.6199  -17.5670   36.6941 C   0  0  0  0  0  0  0  0  0  0  0  0
   36.0264  -17.9132   37.7531 O   0  0  0  0  0  0  0  0  0  0  0  0
   37.0526  -16.2008   36.6472 N   0  0  0  0  0  0  0  0  0  0  0  0
   37.5415  -15.8899   35.7913 H   0  0  0  0  0  0  0  0  0  0  0  0
   36.8313  -15.2757   37.7308 C   0  0  0  0  0  0  0  0  0  0  0  0
   36.1384  -13.9829   37.3312 C   0  0  0  0  0  0  0  0  0  0  0  0
   37.6097  -14.0029   37.6666 C   0  0  0  0  0  0  0  0  0  0  0  0
   42.8557  -19.9592   39.1073 C   0  0  0  0  0  0  0  0  0  0  0  0
   43.1603  -18.4737   38.8420 C   0  0  0  0  0  0  0  0  0  0  0  0
   43.8347  -19.1193   39.9668 C   0  0  0  0  0  0  0  0  0  0  0  0
   43.4853  -20.8776   38.1742 C   0  0  0  0  0  0  0  0  0  0  0  0
   43.9592  -21.6277   37.4166 N   0  0  0  0  0  0  0  0  0  0  0  0
   36.7294  -21.9674   39.9656 S   0  0  0  0  0  0  0  0  0  0  0  0
   37.1446  -23.3271   40.5064 O   0  0  0  0  0  0  0  0  0  0  0  0
   35.6204  -22.2883   38.9701 O   0  0  0  0  0  0  0  0  0  0  0  0
   36.0653  -21.0840   41.2962 C   0  0  0  0  0  0  0  0  0  0  0  0
   34.9815  -20.2430   41.0295 C   0  0  0  0  0  0  0  0  0  0  0  0
   34.4265  -19.4574   41.9979 C   0  0  0  0  0  0  0  0  0  0  0  0
   34.9421  -19.4891   43.2727 C   0  0  0  0  0  0  0  0  0  0  0  0
   35.9986  -20.3054   43.5498 C   0  0  0  0  0  0  0  0  0  0  0  0
   36.5660  -21.1054   42.5745 C   0  0  0  0  0  0  0  0  0  0  0  0
   37.8757  -22.2076   42.9868 Cl  0  0  0  0  0  0  0  0  0  0  0  0
 13 14  1  0  0  0
 14 12  1  0  0  0
 12  8  1  0  0  0
  8  9  1  0  0  0
  9 10  2  0  0  0
  9  1  1  0  0  0
  1  2  1  0  0  0
  2  3  1  0  0  0
  3  4  1  0  0  0
  4  5  1  0  0  0
  5  6  1  0  0  0
  6  7  2  0  0  0
  6 24  1  0  0  0
 24 25  1  0  0  0
 25 26  1  0  0  0
 24 27  1  0  0  0
 27 28  3  0  0  0
  3 29  1  0  0  0
 29 30  2  0  0  0
 29 31  2  0  0  0
 29 32  1  0  0  0
 32 33  2  0  0  0
 33 34  1  0  0  0
 34 35  2  0  0  0
 35 36  1  0  0  0
 36 37  2  0  0  0
 37 38  1  0  0  0
 12 15  1  0  0  0
 15 16  2  0  0  0
 15 17  1  0  0  0
 17 18  2  0  0  0
 17 19  1  0  0  0
 19 21  1  0  0  0
 21 22  1  0  0  0
 22 23  1  0  0  0
  5  1  1  0  0  0
 26 24  1  0  0  0
 37 32  1  0  0  0
 23 21  1  0  0  0
  8 11  1  0  0  0
 19 20  1  0  0  0
M  END
> <minimizedAffinity>
-5.81198

> <CNNscore>
0.2847528160

> <CNNaffinity>
5.6886782646

> <CNN_VS>
1.6198672056

> <CNNaffinity_variance>
0.3786512017

$$$$
[H]c1c([H])c([H])c(S(=O)(=O)[C@@]2([H])C([H])([H])N(C(=O)C3(C#N)C([H])([H])C3([H])[H])[C@]([H])(C(=O)N([H])[C@]([H])(C(=O)C(=O)N([H])C3([H])C([H])([H])C3([H])[H])C([H])([H])C([H])([H])[H])C2([H])[H])c(Cl)c1[H]


 38 41  0  0  0  0  0  0  0  0999 V2000
   35.4624  -19.0925   35.7815 C   0  0  0  0  0  0  0  0  0  0  0  0
   34.2898  -19.0582   34.7390 C   0  0  0  0  0  0  0  0  0  0  0  0
   33.1712  -19.3820   35.6559 C   0  0  0  0  0  0  0  0  0  0  0  0
   33.7801  -20.5704   36.4055 C   0  0  0  0  0  0  0  0  0  0  0  0
   35.1718  -20.2202   36.5820 N   0  0  0  0  0  0  0  0  0  0  0  0
   36.0017  -20.9923   37.4499 C   0  0  0  0  0  0  0  0  0  0  0  0
   35.4036  -21.9587   38.0560 O   0  0  0  0  0  0  0  0  0  0  0  0
   35.1203  -16.5704   35.8304 N   0  0  0  0  0  0  0  0  0  0  0  0
   35.4408  -17.7925   36.4419 C   0  0  0  0  0  0  0  0  0  0  0  0
   35.7399  -17.7871   37.6739 O   0  0  0  0  0  0  0  0  0  0  0  0
   34.8568  -16.4248   34.8346 H   0  0  0  0  0  0  0  0  0  0  0  0
   35.1322  -15.3095   36.6056 C   0  0  0  0  0  0  0  0  0  0  0  0
   37.2334  -14.2738   37.4993 C   0  0  0  0  0  0  0  0  0  0  0  0
   36.4032  -14.5516   36.2846 C   0  0  0  0  0  0  0  0  0  0  0  0
   33.9194  -14.5310   36.2950 C   0  0  0  0  0  0  0  0  0  0  0  0
   33.3331  -14.7259   35.2043 O   0  0  0  0  0  0  0  0  0  0  0  0
   33.4036  -13.5552   37.2277 C   0  0  0  0  0  0  0  0  0  0  0  0
   33.8770  -13.3611   38.3816 O   0  0  0  0  0  0  0  0  0  0  0  0
   32.2861  -12.7303   36.8719 N   0  0  0  0  0  0  0  0  0  0  0  0
   31.8782  -12.8680   35.9322 H   0  0  0  0  0  0  0  0  0  0  0  0
   31.7325  -11.7414   37.7634 C   0  0  0  0  0  0  0  0  0  0  0  0
   30.2636  -11.9412   38.1006 C   0  0  0  0  0  0  0  0  0  0  0  0
   30.7027  -10.8370   37.1703 C   0  0  0  0  0  0  0  0  0  0  0  0
   37.4194  -20.8328   37.7359 C   0  0  0  0  0  0  0  0  0  0  0  0
   37.8581  -21.1601   39.1747 C   0  0  0  0  0  0  0  0  0  0  0  0
   38.1086  -22.1612   38.1395 C   0  0  0  0  0  0  0  0  0  0  0  0
   38.2729  -19.8779   37.0501 C   0  0  0  0  0  0  0  0  0  0  0  0
   38.9860  -19.1317   36.5063 N   0  0  0  0  0  0  0  0  0  0  0  0
   31.6224  -19.7797   34.9814 S   0  0  0  0  0  0  0  0  0  0  0  0
   31.6132  -19.4227   33.5028 O   0  0  0  0  0  0  0  0  0  0  0  0
   30.5412  -18.8896   35.5834 O   0  0  0  0  0  0  0  0  0  0  0  0
   31.1310  -21.4341   35.0971 C   0  0  0  0  0  0  0  0  0  0  0  0
   31.9482  -22.3892   34.4864 C   0  0  0  0  0  0  0  0  0  0  0  0
   31.6160  -23.7129   34.4680 C   0  0  0  0  0  0  0  0  0  0  0  0
   30.4473  -24.1255   35.0646 C   0  0  0  0  0  0  0  0  0  0  0  0
   29.6395  -23.2063   35.6661 C   0  0  0  0  0  0  0  0  0  0  0  0
   29.9694  -21.8633   35.6901 C   0  0  0  0  0  0  0  0  0  0  0  0
   28.9442  -20.7163   36.5465 Cl  0  0  0  0  0  0  0  0  0  0  0  0
 13 14  1  0  0  0
 14 12  1  0  0  0
 12  8  1  0  0  0
  8  9  1  0  0  0
  9 10  2  0  0  0
  9  1  1  0  0  0
  1  2  1  0  0  0
  2  3  1  0  0  0
  3  4  1  0  0  0
  4  5  1  0  0  0
  5  6  1  0  0  0
  6  7  2  0  0  0
  6 24  1  0  0  0
 24 25  1  0  0  0
 25 26  1  0  0  0
 24 27  1  0  0  0
 27 28  3  0  0  0
  3 29  1  0  0  0
 29 30  2  0  0  0
 29 31  2  0  0  0
 29 32  1  0  0  0
 32 33  2  0  0  0
 33 34  1  0  0  0
 34 35  2  0  0  0
 35 36  1  0  0  0
 36 37  2  0  0  0
 37 38  1  0  0  0
 12 15  1  0  0  0
 15 16  2  0  0  0
 15 17  1  0  0  0
 17 18  2  0  0  0
 17 19  1  0  0  0
 19 21  1  0  0  0
 21 22  1  0  0  0
 22 23  1  0  0  0
  5  1  1  0  0  0
 26 24  1  0  0  0
 37 32  1  0  0  0
 23 21  1  0  0  0
  8 11  1  0  0  0
 19 20  1  0  0  0
M  END
> <minimizedAffinity>
-7.72601

> <CNNscore>
0.2281910926

> <CNNaffinity>
6.3686652184

> <CNN_VS>
1.4532727003

> <CNNaffinity_variance>
0.2682569623

$$$$
[H]c1c([H])c([H])c(S(=O)(=O)[C@@]2([H])C([H])([H])N(C(=O)C3(C#N)C([H])([H])C3([H])[H])[C@]([H])(C(=O)N([H])[C@]([H])(C(=O)C(=O)N([H])C3([H])C([H])([H])C3([H])[H])C([H])([H])C([H])([H])[H])C2([H])[H])c(Cl)c1[H]


 38 41  0  0  0  0  0  0  0  0999 V2000
   38.8451  -21.3908   37.6355 C   0  0  0  0  0  0  0  0  0  0  0  0
   37.4236  -22.0231   37.4288 C   0  0  0  0  0  0  0  0  0  0  0  0
   36.6657  -21.1748   38.3789 C   0  0  0  0  0  0  0  0  0  0  0  0
   37.5984  -21.2386   39.5917 C   0  0  0  0  0  0  0  0  0  0  0  0
   38.9315  -21.1998   39.0330 N   0  0  0  0  0  0  0  0  0  0  0  0
   40.0610  -21.0054   39.8842 C   0  0  0  0  0  0  0  0  0  0  0  0
   39.7803  -20.8391   41.1302 O   0  0  0  0  0  0  0  0  0  0  0  0
   38.2063  -20.0374   35.5762 N   0  0  0  0  0  0  0  0  0  0  0  0
   38.8682  -20.1929   36.8042 C   0  0  0  0  0  0  0  0  0  0  0  0
   39.5500  -19.2197   37.2461 O   0  0  0  0  0  0  0  0  0  0  0  0
   37.6151  -20.7457   35.0956 H   0  0  0  0  0  0  0  0  0  0  0  0
   38.3036  -18.7695   34.8187 C   0  0  0  0  0  0  0  0  0  0  0  0
   40.0387  -19.5958   33.2084 C   0  0  0  0  0  0  0  0  0  0  0  0
   38.6406  -19.0873   33.3770 C   0  0  0  0  0  0  0  0  0  0  0  0
   37.0399  -18.0217   34.9492 C   0  0  0  0  0  0  0  0  0  0  0  0
   36.2282  -18.0257   33.9938 O   0  0  0  0  0  0  0  0  0  0  0  0
   36.7295  -17.2917   36.1570 C   0  0  0  0  0  0  0  0  0  0  0  0
   36.3329  -17.8315   37.2269 O   0  0  0  0  0  0  0  0  0  0  0  0
   36.8625  -15.8646   36.1977 N   0  0  0  0  0  0  0  0  0  0  0  0
   37.1856  -15.3960   35.3350 H   0  0  0  0  0  0  0  0  0  0  0  0
   36.5670  -15.0878   37.3760 C   0  0  0  0  0  0  0  0  0  0  0  0
   36.2702  -13.6203   37.1119 C   0  0  0  0  0  0  0  0  0  0  0  0
   37.5756  -14.0474   37.7372 C   0  0  0  0  0  0  0  0  0  0  0  0
   41.4725  -20.9715   39.5326 C   0  0  0  0  0  0  0  0  0  0  0  0
   42.3866  -21.9281   40.3194 C   0  0  0  0  0  0  0  0  0  0  0  0
   41.9883  -22.3201   38.9687 C   0  0  0  0  0  0  0  0  0  0  0  0
   42.1417  -19.7900   39.0162 C   0  0  0  0  0  0  0  0  0  0  0  0
   42.7100  -18.8569   38.6068 N   0  0  0  0  0  0  0  0  0  0  0  0
   35.0436  -21.6283   38.7978 S   0  0  0  0  0  0  0  0  0  0  0  0
   34.5506  -22.6849   37.8209 O   0  0  0  0  0  0  0  0  0  0  0  0
   34.0958  -20.4541   38.5819 O   0  0  0  0  0  0  0  0  0  0  0  0
   34.8066  -22.2699   40.3866 C   0  0  0  0  0  0  0  0  0  0  0  0
   34.7608  -23.6606   40.5154 C   0  0  0  0  0  0  0  0  0  0  0  0
   34.5165  -24.2633   41.7154 C   0  0  0  0  0  0  0  0  0  0  0  0
   34.3090  -23.4877   42.8322 C   0  0  0  0  0  0  0  0  0  0  0  0
   34.3517  -22.1291   42.7238 C   0  0  0  0  0  0  0  0  0  0  0  0
   34.5999  -21.5106   41.5117 C   0  0  0  0  0  0  0  0  0  0  0  0
   34.7292  -19.7568   41.4243 Cl  0  0  0  0  0  0  0  0  0  0  0  0
 13 14  1  0  0  0
 14 12  1  0  0  0
 12  8  1  0  0  0
  8  9  1  0  0  0
  9 10  2  0  0  0
  9  1  1  0  0  0
  1  2  1  0  0  0
  2  3  1  0  0  0
  3  4  1  0  0  0
  4  5  1  0  0  0
  5  6  1  0  0  0
  6  7  2  0  0  0
  6 24  1  0  0  0
 24 25  1  0  0  0
 25 26  1  0  0  0
 24 27  1  0  0  0
 27 28  3  0  0  0
  3 29  1  0  0  0
 29 30  2  0  0  0
 29 31  2  0  0  0
 29 32  1  0  0  0
 32 33  2  0  0  0
 33 34  1  0  0  0
 34 35  2  0  0  0
 35 36  1  0  0  0
 36 37  2  0  0  0
 37 38  1  0  0  0
 12 15  1  0  0  0
 15 16  2  0  0  0
 15 17  1  0  0  0
 17 18  2  0  0  0
 17 19  1  0  0  0
 19 21  1  0  0  0
 21 22  1  0  0  0
 22 23  1  0  0  0
  5  1  1  0  0  0
 26 24  1  0  0  0
 37 32  1  0  0  0
 23 21  1  0  0  0
  8 11  1  0  0  0
 19 20  1  0  0  0
M  END
> <minimizedAffinity>
-5.10882

> <CNNscore>
0.2133994102

> <CNNaffinity>
5.8311605453

> <CNN_VS>
1.2443661690

> <CNNaffinity_variance>
0.1676876247

$$$$
[H]c1c([H])c([H])c(S(=O)(=O)[C@@]2([H])C([H])([H])N(C(=O)C3(C#N)C([H])([H])C3([H])[H])[C@]([H])(C(=O)N([H])[C@]([H])(C(=O)C(=O)N([H])C3([H])C([H])([H])C3([H])[H])C([H])([H])C([H])([H])[H])C2([H])[H])c(Cl)c1[H]


 38 41  0  0  0  0  0  0  0  0999 V2000
   35.2923  -18.1466   34.9012 C   0  0  0  0  0  0  0  0  0  0  0  0
   33.8021  -18.4182   34.4905 C   0  0  0  0  0  0  0  0  0  0  0  0
   33.3842  -19.1952   35.6814 C   0  0  0  0  0  0  0  0  0  0  0  0
   34.5626  -20.1673   35.7891 C   0  0  0  0  0  0  0  0  0  0  0  0
   35.7238  -19.3772   35.4457 N   0  0  0  0  0  0  0  0  0  0  0  0
   37.0355  -19.8957   35.6664 C   0  0  0  0  0  0  0  0  0  0  0  0
   37.0741  -21.0630   36.2095 O   0  0  0  0  0  0  0  0  0  0  0  0
   34.4863  -15.8413   35.6200 N   0  0  0  0  0  0  0  0  0  0  0  0
   35.2495  -17.0044   35.8069 C   0  0  0  0  0  0  0  0  0  0  0  0
   35.9704  -17.0887   36.8463 O   0  0  0  0  0  0  0  0  0  0  0  0
   33.8534  -15.6360   34.8202 H   0  0  0  0  0  0  0  0  0  0  0  0
   34.5239  -14.7432   36.6117 C   0  0  0  0  0  0  0  0  0  0  0  0
   35.6968  -12.5438   36.3414 C   0  0  0  0  0  0  0  0  0  0  0  0
   35.8518  -14.0252   36.4942 C   0  0  0  0  0  0  0  0  0  0  0  0
   33.3768  -13.8438   36.3917 C   0  0  0  0  0  0  0  0  0  0  0  0
   32.9499  -13.6750   35.2252 O   0  0  0  0  0  0  0  0  0  0  0  0
   32.7442  -13.1619   37.4976 C   0  0  0  0  0  0  0  0  0  0  0  0
   33.2106  -13.1332   38.6703 O   0  0  0  0  0  0  0  0  0  0  0  0
   31.5089  -12.4592   37.3070 N   0  0  0  0  0  0  0  0  0  0  0  0
   31.1040  -12.4663   36.3561 H   0  0  0  0  0  0  0  0  0  0  0  0
   30.8361  -11.7622   38.3750 C   0  0  0  0  0  0  0  0  0  0  0  0
   29.3573  -12.0867   38.5131 C   0  0  0  0  0  0  0  0  0  0  0  0
   29.8116  -10.7612   37.9524 C   0  0  0  0  0  0  0  0  0  0  0  0
   38.3205  -19.2854   35.3609 C   0  0  0  0  0  0  0  0  0  0  0  0
   38.9364  -19.6559   33.9996 C   0  0  0  0  0  0  0  0  0  0  0  0
   38.2708  -18.3599   34.1184 C   0  0  0  0  0  0  0  0  0  0  0  0
   39.2889  -18.9059   36.3752 C   0  0  0  0  0  0  0  0  0  0  0  0
   40.0907  -18.6207   37.1733 N   0  0  0  0  0  0  0  0  0  0  0  0
   31.8661  -20.0355   35.6438 S   0  0  0  0  0  0  0  0  0  0  0  0
   31.6802  -20.6734   34.2754 O   0  0  0  0  0  0  0  0  0  0  0  0
   30.7126  -19.0446   35.7497 O   0  0  0  0  0  0  0  0  0  0  0  0
   31.6495  -21.2923   36.8124 C   0  0  0  0  0  0  0  0  0  0  0  0
   32.7202  -21.5617   37.6691 C   0  0  0  0  0  0  0  0  0  0  0  0
   32.6716  -22.5739   38.5834 C   0  0  0  0  0  0  0  0  0  0  0  0
   31.5419  -23.3539   38.6698 C   0  0  0  0  0  0  0  0  0  0  0  0
   30.4878  -23.1032   37.8421 C   0  0  0  0  0  0  0  0  0  0  0  0
   30.5286  -22.0787   36.9137 C   0  0  0  0  0  0  0  0  0  0  0  0
   29.1187  -21.7315   35.9178 Cl  0  0  0  0  0  0  0  0  0  0  0  0
 13 14  1  0  0  0
 14 12  1  0  0  0
 12  8  1  0  0  0
  8  9  1  0  0  0
  9 10  2  0  0  0
  9  1  1  0  0  0
  1  2  1  0  0  0
  2  3  1  0  0  0
  3  4  1  0  0  0
  4  5  1  0  0  0
  5  6  1  0  0  0
  6  7  2  0  0  0
  6 24  1  0  0  0
 24 25  1  0  0  0
 25 26  1  0  0  0
 24 27  1  0  0  0
 27 28  3  0  0  0
  3 29  1  0  0  0
 29 30  2  0  0  0
 29 31  2  0  0  0
 29 32  1  0  0  0
 32 33  2  0  0  0
 33 34  1  0  0  0
 34 35  2  0  0  0
 35 36  1  0  0  0
 36 37  2  0  0  0
 37 38  1  0  0  0
 12 15  1  0  0  0
 15 16  2  0  0  0
 15 17  1  0  0  0
 17 18  2  0  0  0
 17 19  1  0  0  0
 19 21  1  0  0  0
 21 22  1  0  0  0
 22 23  1  0  0  0
  5  1  1  0  0  0
 26 24  1  0  0  0
 37 32  1  0  0  0
 23 21  1  0  0  0
  8 11  1  0  0  0
 19 20  1  0  0  0
M  END
> <minimizedAffinity>
-6.95353

> <CNNscore>
0.2012199759

> <CNNaffinity>
6.3167285919

> <CNN_VS>
1.2710520029

> <CNNaffinity_variance>
0.2340739667

$$$$
[H]c1c(C#N)c([H])c2c(c1[H])c(C1=C(c3c([H])n(C([H])([H])[H])c4c([H])c([H])c(Cl)c([H])c34)C(=O)N([H])C1=O)c([H])n2C([H])([H])[H]


 31 35  0  0  0  0  0  0  0  0999 V2000
   42.3168  -18.6717   36.7781 C   0  0  0  0  0  0  0  0  0  0  0  0
   42.6811  -19.4628   37.7814 C   0  0  0  0  0  0  0  0  0  0  0  0
   43.5457  -18.6259   38.6587 C   0  0  0  0  0  0  0  0  0  0  0  0
   44.0966  -18.9976   39.7228 O   0  0  0  0  0  0  0  0  0  0  0  0
   43.6682  -17.3213   38.1206 N   0  0  0  0  0  0  0  0  0  0  0  0
   42.8935  -17.3408   36.9279 C   0  0  0  0  0  0  0  0  0  0  0  0
   42.7556  -16.3602   36.1588 O   0  0  0  0  0  0  0  0  0  0  0  0
   44.2063  -16.5292   38.5148 H   0  0  0  0  0  0  0  0  0  0  0  0
   40.8793  -20.3319   32.3067 C   0  0  0  0  0  0  0  0  0  0  0  0
   40.8427  -19.8293   33.6824 N   0  0  0  0  0  0  0  0  0  0  0  0
   41.8972  -19.5229   34.4350 C   0  0  0  0  0  0  0  0  0  0  0  0
   41.4712  -19.0802   35.6777 C   0  0  0  0  0  0  0  0  0  0  0  0
   40.0967  -19.1395   35.6296 C   0  0  0  0  0  0  0  0  0  0  0  0
   39.1166  -18.8331   36.5814 C   0  0  0  0  0  0  0  0  0  0  0  0
   37.7987  -19.0141   36.2184 C   0  0  0  0  0  0  0  0  0  0  0  0
   36.5799  -18.6193   37.4392 Cl  0  0  0  0  0  0  0  0  0  0  0  0
   37.4102  -19.4751   34.9834 C   0  0  0  0  0  0  0  0  0  0  0  0
   38.3805  -19.7729   34.0606 C   0  0  0  0  0  0  0  0  0  0  0  0
   39.6957  -19.6059   34.3860 C   0  0  0  0  0  0  0  0  0  0  0  0
   42.3229  -20.8359   38.0620 C   0  0  0  0  0  0  0  0  0  0  0  0
   42.9988  -21.9778   37.6756 C   0  0  0  0  0  0  0  0  0  0  0  0
   42.3930  -23.0626   38.1520 N   0  0  0  0  0  0  0  0  0  0  0  0
   42.8467  -24.4441   37.9293 C   0  0  0  0  0  0  0  0  0  0  0  0
   41.3189  -22.6733   38.8553 C   0  0  0  0  0  0  0  0  0  0  0  0
   40.4129  -23.4513   39.5305 C   0  0  0  0  0  0  0  0  0  0  0  0
   39.3694  -22.8203   40.2155 C   0  0  0  0  0  0  0  0  0  0  0  0
   39.2835  -21.4524   40.1927 C   0  0  0  0  0  0  0  0  0  0  0  0
   40.2180  -20.7141   39.4999 C   0  0  0  0  0  0  0  0  0  0  0  0
   41.2640  -21.2831   38.8074 C   0  0  0  0  0  0  0  0  0  0  0  0
   38.4149  -23.6105   40.9245 C   0  0  0  0  0  0  0  0  0  0  0  0
   37.6346  -24.2538   41.4877 N   0  0  0  0  0  0  0  0  0  0  0  0
  9 10  1  0  0  0
 10 11  1  0  0  0
 11 12  2  0  0  0
 12  1  1  0  0  0
  1  2  2  0  0  0
  2  3  1  0  0  0
  3  4  2  0  0  0
  3  5  1  0  0  0
  5  6  1  0  0  0
  6  7  2  0  0  0
  2 20  1  0  0  0
 20 21  2  0  0  0
 21 22  1  0  0  0
 22 23  1  0  0  0
 22 24  1  0  0  0
 24 25  2  0  0  0
 25 26  1  0  0  0
 26 27  2  0  0  0
 27 28  1  0  0  0
 28 29  2  0  0  0
 26 30  1  0  0  0
 30 31  3  0  0  0
 12 13  1  0  0  0
 13 14  2  0  0  0
 14 15  1  0  0  0
 15 16  1  0  0  0
 15 17  2  0  0  0
 17 18  1  0  0  0
 18 19  2  0  0  0
 19 10  1  0  0  0
  6  1  1  0  0  0
 29 20  1  0  0  0
 19 13  1  0  0  0
 29 24  1  0  0  0
  5  8  1  0  0  0
M  END
> <minimizedAffinity>
-4.65817

> <CNNscore>
0.3784335554

> <CNNaffinity>
5.2595710754

> <CNN_VS>
1.9903981686

> <CNNaffinity_variance>
0.1054328308

$$$$
[H]c1c(C#N)c([H])c2c(c1[H])c(C1=C(c3c([H])n(C([H])([H])[H])c4c([H])c([H])c(Cl)c([H])c34)C(=O)N([H])C1=O)c([H])n2C([H])([H])[H]


 31 35  0  0  0  0  0  0  0  0999 V2000
   36.4443  -19.5351   37.6595 C   0  0  0  0  0  0  0  0  0  0  0  0
   37.6527  -20.0108   37.3791 C   0  0  0  0  0  0  0  0  0  0  0  0
   37.9852  -20.9430   38.4918 C   0  0  0  0  0  0  0  0  0  0  0  0
   39.0439  -21.6058   38.6076 O   0  0  0  0  0  0  0  0  0  0  0  0
   36.9219  -20.9844   39.4268 N   0  0  0  0  0  0  0  0  0  0  0  0
   35.9409  -20.0944   38.9085 C   0  0  0  0  0  0  0  0  0  0  0  0
   34.8417  -19.8545   39.4618 O   0  0  0  0  0  0  0  0  0  0  0  0
   36.8747  -21.5435   40.2972 H   0  0  0  0  0  0  0  0  0  0  0  0
   33.1946  -17.6222   34.4043 C   0  0  0  0  0  0  0  0  0  0  0  0
   34.2696  -17.7379   35.3929 N   0  0  0  0  0  0  0  0  0  0  0  0
   34.7003  -18.8644   35.9567 C   0  0  0  0  0  0  0  0  0  0  0  0
   35.7292  -18.5802   36.8413 C   0  0  0  0  0  0  0  0  0  0  0  0
   35.8919  -17.2147   36.7779 C   0  0  0  0  0  0  0  0  0  0  0  0
   36.7638  -16.3478   37.4477 C   0  0  0  0  0  0  0  0  0  0  0  0
   36.6664  -15.0021   37.1629 C   0  0  0  0  0  0  0  0  0  0  0  0
   37.7798  -13.9282   38.0224 Cl  0  0  0  0  0  0  0  0  0  0  0  0
   35.7652  -14.4818   36.2652 C   0  0  0  0  0  0  0  0  0  0  0  0
   34.9157  -15.3418   35.6169 C   0  0  0  0  0  0  0  0  0  0  0  0
   34.9842  -16.6807   35.8747 C   0  0  0  0  0  0  0  0  0  0  0  0
   38.5086  -19.7654   36.2390 C   0  0  0  0  0  0  0  0  0  0  0  0
   38.2115  -19.9675   34.9045 C   0  0  0  0  0  0  0  0  0  0  0  0
   39.2311  -19.5908   34.1369 N   0  0  0  0  0  0  0  0  0  0  0  0
   39.2511  -19.6707   32.6682 C   0  0  0  0  0  0  0  0  0  0  0  0
   40.2129  -19.1361   34.9302 C   0  0  0  0  0  0  0  0  0  0  0  0
   41.4388  -18.6366   34.5702 C   0  0  0  0  0  0  0  0  0  0  0  0
   42.3054  -18.2013   35.5780 C   0  0  0  0  0  0  0  0  0  0  0  0
   41.9069  -18.2856   36.8869 C   0  0  0  0  0  0  0  0  0  0  0  0
   40.6653  -18.7953   37.1984 C   0  0  0  0  0  0  0  0  0  0  0  0
   39.7735  -19.2393   36.2472 C   0  0  0  0  0  0  0  0  0  0  0  0
   43.5863  -17.6783   35.2261 C   0  0  0  0  0  0  0  0  0  0  0  0
   44.6188  -17.2443   34.9338 N   0  0  0  0  0  0  0  0  0  0  0  0
  9 10  1  0  0  0
 10 11  1  0  0  0
 11 12  2  0  0  0
 12  1  1  0  0  0
  1  2  2  0  0  0
  2  3  1  0  0  0
  3  4  2  0  0  0
  3  5  1  0  0  0
  5  6  1  0  0  0
  6  7  2  0  0  0
  2 20  1  0  0  0
 20 21  2  0  0  0
 21 22  1  0  0  0
 22 23  1  0  0  0
 22 24  1  0  0  0
 24 25  2  0  0  0
 25 26  1  0  0  0
 26 27  2  0  0  0
 27 28  1  0  0  0
 28 29  2  0  0  0
 26 30  1  0  0  0
 30 31  3  0  0  0
 12 13  1  0  0  0
 13 14  2  0  0  0
 14 15  1  0  0  0
 15 16  1  0  0  0
 15 17  2  0  0  0
 17 18  1  0  0  0
 18 19  2  0  0  0
 19 10  1  0  0  0
  6  1  1  0  0  0
 29 20  1  0  0  0
 19 13  1  0  0  0
 29 24  1  0  0  0
  5  8  1  0  0  0
M  END
> <minimizedAffinity>
-7.51628

> <CNNscore>
0.3231128752

> <CNNaffinity>
5.3805708885

> <CNN_VS>
1.7385317087

> <CNNaffinity_variance>
0.5097225904

$$$$
[H]c1c(C#N)c([H])c2c(c1[H])c(C1=C(c3c([H])n(C([H])([H])[H])c4c([H])c([H])c(Cl)c([H])c34)C(=O)N([H])C1=O)c([H])n2C([H])([H])[H]


 31 35  0  0  0  0  0  0  0  0999 V2000
   40.1913  -20.4587   37.9768 C   0  0  0  0  0  0  0  0  0  0  0  0
   39.1576  -21.0029   38.6097 C   0  0  0  0  0  0  0  0  0  0  0  0
   39.5196  -20.9903   40.0541 C   0  0  0  0  0  0  0  0  0  0  0  0
   38.8095  -21.4162   40.9965 O   0  0  0  0  0  0  0  0  0  0  0  0
   40.8043  -20.4198   40.2295 N   0  0  0  0  0  0  0  0  0  0  0  0
   41.2386  -20.0806   38.9182 C   0  0  0  0  0  0  0  0  0  0  0  0
   42.3436  -19.5499   38.6551 O   0  0  0  0  0  0  0  0  0  0  0  0
   41.3118  -20.2819   41.1215 H   0  0  0  0  0  0  0  0  0  0  0  0
   39.6507  -18.4656   33.4434 C   0  0  0  0  0  0  0  0  0  0  0  0
   40.0310  -19.3743   34.5279 N   0  0  0  0  0  0  0  0  0  0  0  0
   39.7494  -19.2170   35.8195 C   0  0  0  0  0  0  0  0  0  0  0  0
   40.2718  -20.2773   36.5438 C   0  0  0  0  0  0  0  0  0  0  0  0
   40.8865  -21.0824   35.6115 C   0  0  0  0  0  0  0  0  0  0  0  0
   41.5945  -22.2836   35.7392 C   0  0  0  0  0  0  0  0  0  0  0  0
   42.1061  -22.8459   34.5888 C   0  0  0  0  0  0  0  0  0  0  0  0
   42.9963  -24.3637   34.7775 Cl  0  0  0  0  0  0  0  0  0  0  0  0
   41.9549  -22.2884   33.3418 C   0  0  0  0  0  0  0  0  0  0  0  0
   41.2603  -21.1108   33.2308 C   0  0  0  0  0  0  0  0  0  0  0  0
   40.7401  -20.5257   34.3492 C   0  0  0  0  0  0  0  0  0  0  0  0
   37.8967  -21.4854   38.0904 C   0  0  0  0  0  0  0  0  0  0  0  0
   37.4918  -22.7994   37.9499 C   0  0  0  0  0  0  0  0  0  0  0  0
   36.2504  -22.8571   37.4742 N   0  0  0  0  0  0  0  0  0  0  0  0
   35.5115  -24.1000   37.2037 C   0  0  0  0  0  0  0  0  0  0  0  0
   35.8082  -21.6037   37.2916 C   0  0  0  0  0  0  0  0  0  0  0  0
   34.5846  -21.1889   36.8305 C   0  0  0  0  0  0  0  0  0  0  0  0
   34.3361  -19.8158   36.7362 C   0  0  0  0  0  0  0  0  0  0  0  0
   35.3158  -18.9307   37.1052 C   0  0  0  0  0  0  0  0  0  0  0  0
   36.5294  -19.3963   37.5622 C   0  0  0  0  0  0  0  0  0  0  0  0
   36.8280  -20.7364   37.6737 C   0  0  0  0  0  0  0  0  0  0  0  0
   33.0697  -19.3617   36.2585 C   0  0  0  0  0  0  0  0  0  0  0  0
   32.0375  -19.0055   35.8746 N   0  0  0  0  0  0  0  0  0  0  0  0
  9 10  1  0  0  0
 10 11  1  0  0  0
 11 12  2  0  0  0
 12  1  1  0  0  0
  1  2  2  0  0  0
  2  3  1  0  0  0
  3  4  2  0  0  0
  3  5  1  0  0  0
  5  6  1  0  0  0
  6  7  2  0  0  0
  2 20  1  0  0  0
 20 21  2  0  0  0
 21 22  1  0  0  0
 22 23  1  0  0  0
 22 24  1  0  0  0
 24 25  2  0  0  0
 25 26  1  0  0  0
 26 27  2  0  0  0
 27 28  1  0  0  0
 28 29  2  0  0  0
 26 30  1  0  0  0
 30 31  3  0  0  0
 12 13  1  0  0  0
 13 14  2  0  0  0
 14 15  1  0  0  0
 15 16  1  0  0  0
 15 17  2  0  0  0
 17 18  1  0  0  0
 18 19  2  0  0  0
 19 10  1  0  0  0
  6  1  1  0  0  0
 29 20  1  0  0  0
 19 13  1  0  0  0
 29 24  1  0  0  0
  5  8  1  0  0  0
M  END
> <minimizedAffinity>
-5.04264

> <CNNscore>
0.3123666048

> <CNNaffinity>
5.1991152763

> <CNN_VS>
1.6240299940

> <CNNaffinity_variance>
0.1044391766

$$$$
[H]c1c(C#N)c([H])c2c(c1[H])c(C1=C(c3c([H])n(C([H])([H])[H])c4c([H])c([H])c(Cl)c([H])c34)C(=O)N([H])C1=O)c([H])n2C([H])([H])[H]


 31 35  0  0  0  0  0  0  0  0999 V2000
   37.6152  -20.1661   37.5608 C   0  0  0  0  0  0  0  0  0  0  0  0
   36.4020  -19.6457   37.7110 C   0  0  0  0  0  0  0  0  0  0  0  0
   35.8614  -20.2430   38.9635 C   0  0  0  0  0  0  0  0  0  0  0  0
   34.7353  -20.0110   39.4654 O   0  0  0  0  0  0  0  0  0  0  0  0
   36.8096  -21.1308   39.5287 N   0  0  0  0  0  0  0  0  0  0  0  0
   37.9242  -21.0896   38.6461 C   0  0  0  0  0  0  0  0  0  0  0  0
   38.9767  -21.7519   38.8058 O   0  0  0  0  0  0  0  0  0  0  0  0
   36.7076  -21.6863   40.3966 H   0  0  0  0  0  0  0  0  0  0  0  0
   39.3254  -19.5230   32.9264 C   0  0  0  0  0  0  0  0  0  0  0  0
   39.2540  -19.5751   34.3888 N   0  0  0  0  0  0  0  0  0  0  0  0
   38.1977  -19.9425   35.1110 C   0  0  0  0  0  0  0  0  0  0  0  0
   38.5052  -19.8659   36.4606 C   0  0  0  0  0  0  0  0  0  0  0  0
   39.8098  -19.4290   36.5086 C   0  0  0  0  0  0  0  0  0  0  0  0
   40.6609  -19.1517   37.5853 C   0  0  0  0  0  0  0  0  0  0  0  0
   41.9341  -18.7106   37.2925 C   0  0  0  0  0  0  0  0  0  0  0  0
   42.9897  -18.3677   38.6709 Cl  0  0  0  0  0  0  0  0  0  0  0  0
   42.3978  -18.5332   36.0110 C   0  0  0  0  0  0  0  0  0  0  0  0
   41.5533  -18.8072   34.9653 C   0  0  0  0  0  0  0  0  0  0  0  0
   40.2854  -19.2455   35.2183 C   0  0  0  0  0  0  0  0  0  0  0  0
   35.7012  -18.6694   36.9059 C   0  0  0  0  0  0  0  0  0  0  0  0
   34.7367  -18.9072   35.9449 C   0  0  0  0  0  0  0  0  0  0  0  0
   34.2879  -17.7606   35.4403 N   0  0  0  0  0  0  0  0  0  0  0  0
   33.2580  -17.6486   34.3959 C   0  0  0  0  0  0  0  0  0  0  0  0
   34.9321  -16.7509   36.0448 C   0  0  0  0  0  0  0  0  0  0  0  0
   34.7803  -15.4019   35.8476 C   0  0  0  0  0  0  0  0  0  0  0  0
   35.5559  -14.5232   36.6109 C   0  0  0  0  0  0  0  0  0  0  0  0
   36.4386  -15.0325   37.5278 C   0  0  0  0  0  0  0  0  0  0  0  0
   36.5554  -16.3958   37.6894 C   0  0  0  0  0  0  0  0  0  0  0  0
   35.8183  -17.3057   36.9640 C   0  0  0  0  0  0  0  0  0  0  0  0
   35.4145  -13.1153   36.4219 C   0  0  0  0  0  0  0  0  0  0  0  0
   35.2921  -11.9760   36.2578 N   0  0  0  0  0  0  0  0  0  0  0  0
  9 10  1  0  0  0
 10 11  1  0  0  0
 11 12  2  0  0  0
 12  1  1  0  0  0
  1  2  2  0  0  0
  2  3  1  0  0  0
  3  4  2  0  0  0
  3  5  1  0  0  0
  5  6  1  0  0  0
  6  7  2  0  0  0
  2 20  1  0  0  0
 20 21  2  0  0  0
 21 22  1  0  0  0
 22 23  1  0  0  0
 22 24  1  0  0  0
 24 25  2  0  0  0
 25 26  1  0  0  0
 26 27  2  0  0  0
 27 28  1  0  0  0
 28 29  2  0  0  0
 26 30  1  0  0  0
 30 31  3  0  0  0
 12 13  1  0  0  0
 13 14  2  0  0  0
 14 15  1  0  0  0
 15 16  1  0  0  0
 15 17  2  0  0  0
 17 18  1  0  0  0
 18 19  2  0  0  0
 19 10  1  0  0  0
  6  1  1  0  0  0
 29 20  1  0  0  0
 19 13  1  0  0  0
 29 24  1  0  0  0
  5  8  1  0  0  0
M  END
> <minimizedAffinity>
-8.04040

> <CNNscore>
0.2789375186

> <CNNaffinity>
5.5196528435

> <CNN_VS>
1.5396382809

> <CNNaffinity_variance>
0.3431726396

$$$$
[H]c1c(C#N)c([H])c2c(c1[H])c(C1=C(c3c([H])n(C([H])([H])[H])c4c([H])c([H])c(Cl)c([H])c34)C(=O)N([H])C1=O)c([H])n2C([H])([H])[H]


 31 35  0  0  0  0  0  0  0  0999 V2000
   37.8245  -19.1346   36.5115 C   0  0  0  0  0  0  0  0  0  0  0  0
   37.3597  -20.0444   37.3609 C   0  0  0  0  0  0  0  0  0  0  0  0
   36.1367  -19.4443   37.9622 C   0  0  0  0  0  0  0  0  0  0  0  0
   35.3943  -19.9835   38.8176 O   0  0  0  0  0  0  0  0  0  0  0  0
   35.9156  -18.1509   37.4283 N   0  0  0  0  0  0  0  0  0  0  0  0
   36.9809  -17.9452   36.5086 C   0  0  0  0  0  0  0  0  0  0  0  0
   37.1369  -16.9028   35.8297 O   0  0  0  0  0  0  0  0  0  0  0  0
   35.1438  -17.5009   37.6609 H   0  0  0  0  0  0  0  0  0  0  0  0
   40.7823  -19.9345   32.5837 C   0  0  0  0  0  0  0  0  0  0  0  0
   40.3242  -19.6483   33.9456 N   0  0  0  0  0  0  0  0  0  0  0  0
   39.0580  -19.5929   34.3530 C   0  0  0  0  0  0  0  0  0  0  0  0
   39.0155  -19.2975   35.7068 C   0  0  0  0  0  0  0  0  0  0  0  0
   40.3321  -19.1767   36.0907 C   0  0  0  0  0  0  0  0  0  0  0  0
   40.9190  -18.8774   37.3261 C   0  0  0  0  0  0  0  0  0  0  0  0
   42.2957  -18.8197   37.3790 C   0  0  0  0  0  0  0  0  0  0  0  0
   43.0124  -18.4399   38.9519 Cl  0  0  0  0  0  0  0  0  0  0  0  0
   43.1049  -19.0392   36.2901 C   0  0  0  0  0  0  0  0  0  0  0  0
   42.5170  -19.3302   35.0854 C   0  0  0  0  0  0  0  0  0  0  0  0
   41.1563  -19.3951   34.9963 C   0  0  0  0  0  0  0  0  0  0  0  0
   37.8473  -21.3727   37.6616 C   0  0  0  0  0  0  0  0  0  0  0  0
   37.4463  -22.5658   37.0909 C   0  0  0  0  0  0  0  0  0  0  0  0
   38.1469  -23.5810   37.5902 N   0  0  0  0  0  0  0  0  0  0  0  0
   37.9760  -24.9900   37.2037 C   0  0  0  0  0  0  0  0  0  0  0  0
   39.0162  -23.0941   38.4887 C   0  0  0  0  0  0  0  0  0  0  0  0
   39.9417  -23.7760   39.2373 C   0  0  0  0  0  0  0  0  0  0  0  0
   40.7621  -23.0515   40.1081 C   0  0  0  0  0  0  0  0  0  0  0  0
   40.6186  -21.6904   40.1869 C   0  0  0  0  0  0  0  0  0  0  0  0
   39.6740  -21.0506   39.4145 C   0  0  0  0  0  0  0  0  0  0  0  0
   38.8395  -21.7143   38.5424 C   0  0  0  0  0  0  0  0  0  0  0  0
   41.7319  -23.7408   40.8970 C   0  0  0  0  0  0  0  0  0  0  0  0
   42.5230  -24.3056   41.5254 N   0  0  0  0  0  0  0  0  0  0  0  0
  9 10  1  0  0  0
 10 11  1  0  0  0
 11 12  2  0  0  0
 12  1  1  0  0  0
  1  2  2  0  0  0
  2  3  1  0  0  0
  3  4  2  0  0  0
  3  5  1  0  0  0
  5  6  1  0  0  0
  6  7  2  0  0  0
  2 20  1  0  0  0
 20 21  2  0  0  0
 21 22  1  0  0  0
 22 23  1  0  0  0
 22 24  1  0  0  0
 24 25  2  0  0  0
 25 26  1  0  0  0
 26 27  2  0  0  0
 27 28  1  0  0  0
 28 29  2  0  0  0
 26 30  1  0  0  0
 30 31  3  0  0  0
 12 13  1  0  0  0
 13 14  2  0  0  0
 14 15  1  0  0  0
 15 16  1  0  0  0
 15 17  2  0  0  0
 17 18  1  0  0  0
 18 19  2  0  0  0
 19 10  1  0  0  0
  6  1  1  0  0  0
 29 20  1  0  0  0
 19 13  1  0  0  0
 29 24  1  0  0  0
  5  8  1  0  0  0
M  END
> <minimizedAffinity>
-4.82096

> <CNNscore>
0.2736895382

> <CNNaffinity>
5.1352758408

> <CNN_VS>
1.4054713249

> <CNNaffinity_variance>
0.0377794318

$$$$
[H]c1c(C#N)c([H])c2c(c1[H])c(C1=C(c3c([H])n(C([H])([H])[H])c4c([H])c([H])c(Cl)c([H])c34)C(=O)N([H])C1=O)c([H])n2C([H])([H])[H]


 31 35  0  0  0  0  0  0  0  0999 V2000
   31.8132  -20.5699   36.0521 C   0  0  0  0  0  0  0  0  0  0  0  0
   32.8401  -19.7271   36.0368 C   0  0  0  0  0  0  0  0  0  0  0  0
   32.3224  -18.4750   35.4188 C   0  0  0  0  0  0  0  0  0  0  0  0
   32.9784  -17.4243   35.2199 O   0  0  0  0  0  0  0  0  0  0  0  0
   30.9567  -18.6296   35.0756 N   0  0  0  0  0  0  0  0  0  0  0  0
   30.6251  -19.9546   35.4723 C   0  0  0  0  0  0  0  0  0  0  0  0
   29.4924  -20.4726   35.3288 O   0  0  0  0  0  0  0  0  0  0  0  0
   30.3389  -17.9265   34.6325 H   0  0  0  0  0  0  0  0  0  0  0  0
   32.1569  -24.3938   39.2265 C   0  0  0  0  0  0  0  0  0  0  0  0
   32.0166  -23.6189   37.9911 N   0  0  0  0  0  0  0  0  0  0  0  0
   32.0291  -22.2914   37.8909 C   0  0  0  0  0  0  0  0  0  0  0  0
   31.8700  -21.9217   36.5643 C   0  0  0  0  0  0  0  0  0  0  0  0
   31.7593  -23.1059   35.8710 C   0  0  0  0  0  0  0  0  0  0  0  0
   31.5709  -23.3751   34.5100 C   0  0  0  0  0  0  0  0  0  0  0  0
   31.4890  -24.6976   34.1284 C   0  0  0  0  0  0  0  0  0  0  0  0
   31.2511  -25.0106   32.4030 Cl  0  0  0  0  0  0  0  0  0  0  0  0
   31.5822  -25.7471   35.0108 C   0  0  0  0  0  0  0  0  0  0  0  0
   31.7654  -25.4695   36.3416 C   0  0  0  0  0  0  0  0  0  0  0  0
   31.8506  -24.1712   36.7550 C   0  0  0  0  0  0  0  0  0  0  0  0
   34.1882  -19.8926   36.5344 C   0  0  0  0  0  0  0  0  0  0  0  0
   34.5755  -20.3493   37.7801 C   0  0  0  0  0  0  0  0  0  0  0  0
   35.9022  -20.4062   37.8647 N   0  0  0  0  0  0  0  0  0  0  0  0
   36.6499  -20.8480   39.0521 C   0  0  0  0  0  0  0  0  0  0  0  0
   36.4191  -19.9965   36.6964 C   0  0  0  0  0  0  0  0  0  0  0  0
   37.7384  -19.9044   36.3322 C   0  0  0  0  0  0  0  0  0  0  0  0
   38.0464  -19.4616   35.0417 C   0  0  0  0  0  0  0  0  0  0  0  0
   37.0276  -19.1354   34.1844 C   0  0  0  0  0  0  0  0  0  0  0  0
   35.7175  -19.2443   34.5969 C   0  0  0  0  0  0  0  0  0  0  0  0
   35.3577  -19.6729   35.8556 C   0  0  0  0  0  0  0  0  0  0  0  0
   39.4128  -19.3578   34.6416 C   0  0  0  0  0  0  0  0  0  0  0  0
   40.5179  -19.2805   34.3058 N   0  0  0  0  0  0  0  0  0  0  0  0
  9 10  1  0  0  0
 10 11  1  0  0  0
 11 12  2  0  0  0
 12  1  1  0  0  0
  1  2  2  0  0  0
  2  3  1  0  0  0
  3  4  2  0  0  0
  3  5  1  0  0  0
  5  6  1  0  0  0
  6  7  2  0  0  0
  2 20  1  0  0  0
 20 21  2  0  0  0
 21 22  1  0  0  0
 22 23  1  0  0  0
 22 24  1  0  0  0
 24 25  2  0  0  0
 25 26  1  0  0  0
 26 27  2  0  0  0
 27 28  1  0  0  0
 28 29  2  0  0  0
 26 30  1  0  0  0
 30 31  3  0  0  0
 12 13  1  0  0  0
 13 14  2  0  0  0
 14 15  1  0  0  0
 15 16  1  0  0  0
 15 17  2  0  0  0
 17 18  1  0  0  0
 18 19  2  0  0  0
 19 10  1  0  0  0
  6  1  1  0  0  0
 29 20  1  0  0  0
 19 13  1  0  0  0
 29 24  1  0  0  0
  5  8  1  0  0  0
M  END
> <minimizedAffinity>
-5.94678

> <CNNscore>
0.2582194507

> <CNNaffinity>
4.9436073303

> <CNN_VS>
1.2765355110

> <CNNaffinity_variance>
0.2803997695

$$$$
[H]c1c(C#N)c([H])c2c(c1[H])c(C1=C(c3c([H])n(C([H])([H])[H])c4c([H])c([H])c(Cl)c([H])c34)C(=O)N([H])C1=O)c([H])n2C([H])([H])[H]


 31 35  0  0  0  0  0  0  0  0999 V2000
   35.9178  -20.7743   37.6356 C   0  0  0  0  0  0  0  0  0  0  0  0
   37.1099  -21.3598   37.6017 C   0  0  0  0  0  0  0  0  0  0  0  0
   36.8958  -22.7369   38.1263 C   0  0  0  0  0  0  0  0  0  0  0  0
   37.7754  -23.6216   38.2575 O   0  0  0  0  0  0  0  0  0  0  0  0
   35.5333  -22.9221   38.4669 N   0  0  0  0  0  0  0  0  0  0  0  0
   34.9055  -21.6831   38.1604 C   0  0  0  0  0  0  0  0  0  0  0  0
   33.6855  -21.4484   38.3293 O   0  0  0  0  0  0  0  0  0  0  0  0
   35.0952  -23.7766   38.8545 H   0  0  0  0  0  0  0  0  0  0  0  0
   36.2311  -15.8142   37.2959 C   0  0  0  0  0  0  0  0  0  0  0  0
   35.8159  -17.2010   37.0712 N   0  0  0  0  0  0  0  0  0  0  0  0
   36.2946  -18.2752   37.6953 C   0  0  0  0  0  0  0  0  0  0  0  0
   35.6612  -19.4128   37.2193 C   0  0  0  0  0  0  0  0  0  0  0  0
   34.7731  -18.9601   36.2699 C   0  0  0  0  0  0  0  0  0  0  0  0
   33.8685  -19.6362   35.4423 C   0  0  0  0  0  0  0  0  0  0  0  0
   33.1130  -18.8783   34.5727 C   0  0  0  0  0  0  0  0  0  0  0  0
   31.9773  -19.7568   33.5381 Cl  0  0  0  0  0  0  0  0  0  0  0  0
   33.2071  -17.5101   34.4831 C   0  0  0  0  0  0  0  0  0  0  0  0
   34.0982  -16.8602   35.2986 C   0  0  0  0  0  0  0  0  0  0  0  0
   34.8628  -17.5791   36.1717 C   0  0  0  0  0  0  0  0  0  0  0  0
   38.3813  -20.8570   37.1290 C   0  0  0  0  0  0  0  0  0  0  0  0
   38.7072  -20.4682   35.8434 C   0  0  0  0  0  0  0  0  0  0  0  0
   39.9596  -20.0212   35.7942 N   0  0  0  0  0  0  0  0  0  0  0  0
   40.6288  -19.5292   34.5800 C   0  0  0  0  0  0  0  0  0  0  0  0
   40.4861  -20.1003   37.0256 C   0  0  0  0  0  0  0  0  0  0  0  0
   41.7423  -19.7385   37.4417 C   0  0  0  0  0  0  0  0  0  0  0  0
   42.0706  -19.8966   38.7921 C   0  0  0  0  0  0  0  0  0  0  0  0
   41.1337  -20.4045   39.6543 C   0  0  0  0  0  0  0  0  0  0  0  0
   39.8850  -20.7538   39.1884 C   0  0  0  0  0  0  0  0  0  0  0  0
   39.5092  -20.6208   37.8699 C   0  0  0  0  0  0  0  0  0  0  0  0
   43.3723  -19.5270   39.2469 C   0  0  0  0  0  0  0  0  0  0  0  0
   44.4222  -19.2209   39.6263 N   0  0  0  0  0  0  0  0  0  0  0  0
  9 10  1  0  0  0
 10 11  1  0  0  0
 11 12  2  0  0  0
 12  1  1  0  0  0
  1  2  2  0  0  0
  2  3  1  0  0  0
  3  4  2  0  0  0
  3  5  1  0  0  0
  5  6  1  0  0  0
  6  7  2  0  0  0
  2 20  1  0  0  0
 20 21  2  0  0  0
 21 22  1  0  0  0
 22 23  1  0  0  0
 22 24  1  0  0  0
 24 25  2  0  0  0
 25 26  1  0  0  0
 26 27  2  0  0  0
 27 28  1  0  0  0
 28 29  2  0  0  0
 26 30  1  0  0  0
 30 31  3  0  0  0
 12 13  1  0  0  0
 13 14  2  0  0  0
 14 15  1  0  0  0
 15 16  1  0  0  0
 15 17  2  0  0  0
 17 18  1  0  0  0
 18 19  2  0  0  0
 19 10  1  0  0  0
  6  1  1  0  0  0
 29 20  1  0  0  0
 19 13  1  0  0  0
 29 24  1  0  0  0
  5  8  1  0  0  0
M  END
> <minimizedAffinity>
-5.95323

> <CNNscore>
0.2435702980

> <CNNaffinity>
4.9846172333

> <CNN_VS>
1.2141046524

> <CNNaffinity_variance>
0.6306249499

$$$$
[H]c1c(C#N)c([H])c2c(c1[H])c(C1=C(c3c([H])n(C([H])([H])[H])c4c([H])c([H])c(Cl)c([H])c34)C(=O)N([H])C1=O)c([H])n2C([H])([H])[H]


 31 35  0  0  0  0  0  0  0  0999 V2000
   32.7719  -20.1713   36.0194 C   0  0  0  0  0  0  0  0  0  0  0  0
   33.5321  -19.2068   35.5123 C   0  0  0  0  0  0  0  0  0  0  0  0
   32.6846  -18.5185   34.4997 C   0  0  0  0  0  0  0  0  0  0  0  0
   33.0283  -17.5426   33.7903 O   0  0  0  0  0  0  0  0  0  0  0  0
   31.4061  -19.1257   34.4404 N   0  0  0  0  0  0  0  0  0  0  0  0
   31.4521  -20.1751   35.3994 C   0  0  0  0  0  0  0  0  0  0  0  0
   30.4995  -20.9536   35.6412 O   0  0  0  0  0  0  0  0  0  0  0  0
   30.6137  -18.8587   33.8295 H   0  0  0  0  0  0  0  0  0  0  0  0
   34.5604  -21.9576   40.3120 C   0  0  0  0  0  0  0  0  0  0  0  0
   33.9933  -21.8858   38.9631 N   0  0  0  0  0  0  0  0  0  0  0  0
   33.7305  -20.7740   38.2797 C   0  0  0  0  0  0  0  0  0  0  0  0
   33.2010  -21.1014   37.0410 C   0  0  0  0  0  0  0  0  0  0  0  0
   33.1590  -22.4772   37.0194 C   0  0  0  0  0  0  0  0  0  0  0  0
   32.7146  -23.3810   36.0467 C   0  0  0  0  0  0  0  0  0  0  0  0
   32.7986  -24.7253   36.3417 C   0  0  0  0  0  0  0  0  0  0  0  0
   32.2308  -25.8464   35.0957 Cl  0  0  0  0  0  0  0  0  0  0  0  0
   33.2910  -25.2103   37.5296 C   0  0  0  0  0  0  0  0  0  0  0  0
   33.7218  -24.3141   38.4745 C   0  0  0  0  0  0  0  0  0  0  0  0
   33.6529  -22.9753   38.2163 C   0  0  0  0  0  0  0  0  0  0  0  0
   34.8828  -18.8124   35.8475 C   0  0  0  0  0  0  0  0  0  0  0  0
   36.0266  -19.5852   35.7798 C   0  0  0  0  0  0  0  0  0  0  0  0
   37.0940  -18.8710   36.1283 N   0  0  0  0  0  0  0  0  0  0  0  0
   38.4719  -19.3845   36.1676 C   0  0  0  0  0  0  0  0  0  0  0  0
   36.6912  -17.6273   36.4297 C   0  0  0  0  0  0  0  0  0  0  0  0
   37.4515  -16.5565   36.8263 C   0  0  0  0  0  0  0  0  0  0  0  0
   36.8118  -15.3375   37.0736 C   0  0  0  0  0  0  0  0  0  0  0  0
   35.4532  -15.2491   36.9130 C   0  0  0  0  0  0  0  0  0  0  0  0
   34.7327  -16.3532   36.5129 C   0  0  0  0  0  0  0  0  0  0  0  0
   35.3106  -17.5772   36.2575 C   0  0  0  0  0  0  0  0  0  0  0  0
   37.5834  -14.2101   37.4877 C   0  0  0  0  0  0  0  0  0  0  0  0
   38.2010  -13.2944   37.8343 N   0  0  0  0  0  0  0  0  0  0  0  0
  9 10  1  0  0  0
 10 11  1  0  0  0
 11 12  2  0  0  0
 12  1  1  0  0  0
  1  2  2  0  0  0
  2  3  1  0  0  0
  3  4  2  0  0  0
  3  5  1  0  0  0
  5  6  1  0  0  0
  6  7  2  0  0  0
  2 20  1  0  0  0
 20 21  2  0  0  0
 21 22  1  0  0  0
 22 23  1  0  0  0
 22 24  1  0  0  0
 24 25  2  0  0  0
 25 26  1  0  0  0
 26 27  2  0  0  0
 27 28  1  0  0  0
 28 29  2  0  0  0
 26 30  1  0  0  0
 30 31  3  0  0  0
 12 13  1  0  0  0
 13 14  2  0  0  0
 14 15  1  0  0  0
 15 16  1  0  0  0
 15 17  2  0  0  0
 17 18  1  0  0  0
 18 19  2  0  0  0
 19 10  1  0  0  0
  6  1  1  0  0  0
 29 20  1  0  0  0
 19 13  1  0  0  0
 29 24  1  0  0  0
  5  8  1  0  0  0
M  END
> <minimizedAffinity>
-6.09444

> <CNNscore>
0.2258960456

> <CNNaffinity>
5.1332697868

> <CNN_VS>
1.1595853567

> <CNNaffinity_variance>
0.4472824931

$$$$
[H]c1c(C#N)c([H])c2c(c1[H])c(C1=C(c3c([H])n(C([H])([H])[H])c4c([H])c([H])c(Cl)c([H])c34)C(=O)N([H])C1=O)c([H])n2C([H])([H])[H]


 31 35  0  0  0  0  0  0  0  0999 V2000
   37.2650  -19.5236   36.4274 C   0  0  0  0  0  0  0  0  0  0  0  0
   37.1911  -20.4463   37.3804 C   0  0  0  0  0  0  0  0  0  0  0  0
   38.5372  -21.0812   37.4296 C   0  0  0  0  0  0  0  0  0  0  0  0
   38.8895  -22.0051   38.2016 O   0  0  0  0  0  0  0  0  0  0  0  0
   39.3901  -20.4901   36.4653 N   0  0  0  0  0  0  0  0  0  0  0  0
   38.5924  -19.5023   35.8243 C   0  0  0  0  0  0  0  0  0  0  0  0
   38.9963  -18.7595   34.8985 O   0  0  0  0  0  0  0  0  0  0  0  0
   40.3793  -20.7294   36.2736 H   0  0  0  0  0  0  0  0  0  0  0  0
   32.9857  -17.9757   34.4005 C   0  0  0  0  0  0  0  0  0  0  0  0
   34.2559  -17.9872   35.1304 N   0  0  0  0  0  0  0  0  0  0  0  0
   35.0647  -19.0336   35.2830 C   0  0  0  0  0  0  0  0  0  0  0  0
   36.1707  -18.6637   36.0325 C   0  0  0  0  0  0  0  0  0  0  0  0
   35.9794  -17.3319   36.3238 C   0  0  0  0  0  0  0  0  0  0  0  0
   36.7470  -16.4184   37.0565 C   0  0  0  0  0  0  0  0  0  0  0  0
   36.2640  -15.1323   37.1747 C   0  0  0  0  0  0  0  0  0  0  0  0
   37.2531  -13.9975   38.1052 Cl  0  0  0  0  0  0  0  0  0  0  0  0
   35.0809  -14.7135   36.6146 C   0  0  0  0  0  0  0  0  0  0  0  0
   34.3379  -15.6188   35.9005 C   0  0  0  0  0  0  0  0  0  0  0  0
   34.7857  -16.9012   35.7632 C   0  0  0  0  0  0  0  0  0  0  0  0
   36.0951  -20.7920   38.2590 C   0  0  0  0  0  0  0  0  0  0  0  0
   35.8902  -20.3649   39.5573 C   0  0  0  0  0  0  0  0  0  0  0  0
   34.7515  -20.8587   40.0371 N   0  0  0  0  0  0  0  0  0  0  0  0
   34.2293  -20.6047   41.3887 C   0  0  0  0  0  0  0  0  0  0  0  0
   34.1820  -21.6121   39.0843 C   0  0  0  0  0  0  0  0  0  0  0  0
   32.9970  -22.3014   39.1358 C   0  0  0  0  0  0  0  0  0  0  0  0
   32.5886  -23.0144   38.0039 C   0  0  0  0  0  0  0  0  0  0  0  0
   33.3789  -23.0031   36.8838 C   0  0  0  0  0  0  0  0  0  0  0  0
   34.5612  -22.2957   36.8809 C   0  0  0  0  0  0  0  0  0  0  0  0
   35.0119  -21.5782   37.9670 C   0  0  0  0  0  0  0  0  0  0  0  0
   31.3591  -23.7392   38.0355 C   0  0  0  0  0  0  0  0  0  0  0  0
   30.3617  -24.3264   38.0475 N   0  0  0  0  0  0  0  0  0  0  0  0
  9 10  1  0  0  0
 10 11  1  0  0  0
 11 12  2  0  0  0
 12  1  1  0  0  0
  1  2  2  0  0  0
  2  3  1  0  0  0
  3  4  2  0  0  0
  3  5  1  0  0  0
  5  6  1  0  0  0
  6  7  2  0  0  0
  2 20  1  0  0  0
 20 21  2  0  0  0
 21 22  1  0  0  0
 22 23  1  0  0  0
 22 24  1  0  0  0
 24 25  2  0  0  0
 25 26  1  0  0  0
 26 27  2  0  0  0
 27 28  1  0  0  0
 28 29  2  0  0  0
 26 30  1  0  0  0
 30 31  3  0  0  0
 12 13  1  0  0  0
 13 14  2  0  0  0
 14 15  1  0  0  0
 15 16  1  0  0  0
 15 17  2  0  0  0
 17 18  1  0  0  0
 18 19  2  0  0  0
 19 10  1  0  0  0
  6  1  1  0  0  0
 29 20  1  0  0  0
 19 13  1  0  0  0
 29 24  1  0  0  0
  5  8  1  0  0  0
M  END
> <minimizedAffinity>
-6.11257

> <CNNscore>
0.2169078141

> <CNNaffinity>
5.0330381393

> <CNN_VS>
1.0917053223

> <CNNaffinity_variance>
0.6595014334

$$$$
[H]c1c([H])c([H])c(N([H])S(=O)(=O)c2c([H])c([H])c(OC([H])([H])[H])c([H])c2[H])c(-c2c([H])c([H])c([H])c([H])c2C([H])([H])[H])c1[H]


 26 28  0  0  0  0  0  0  0  0999 V2000
   34.5841  -21.1636   36.6105 N   0  0  0  0  0  0  0  0  0  0  0  0
   35.2733  -21.5198   35.8697 H   0  0  0  0  0  0  0  0  0  0  0  0
   33.4226  -20.5235   36.1848 C   0  0  0  0  0  0  0  0  0  0  0  0
   32.1988  -21.1310   36.0594 C   0  0  0  0  0  0  0  0  0  0  0  0
   31.1250  -20.3883   35.5793 C   0  0  0  0  0  0  0  0  0  0  0  0
   31.2004  -19.0629   35.2155 C   0  0  0  0  0  0  0  0  0  0  0  0
   32.4508  -18.4684   35.3530 C   0  0  0  0  0  0  0  0  0  0  0  0
   33.5436  -19.1639   35.8233 C   0  0  0  0  0  0  0  0  0  0  0  0
   34.8300  -18.4997   36.0270 C   0  0  0  0  0  0  0  0  0  0  0  0
   35.1683  -17.8777   37.2009 C   0  0  0  0  0  0  0  0  0  0  0  0
   36.3603  -17.1785   37.3659 C   0  0  0  0  0  0  0  0  0  0  0  0
   37.2433  -17.1058   36.3075 C   0  0  0  0  0  0  0  0  0  0  0  0
   36.9095  -17.7267   35.1253 C   0  0  0  0  0  0  0  0  0  0  0  0
   35.7224  -18.4265   34.9517 C   0  0  0  0  0  0  0  0  0  0  0  0
   35.4315  -19.0904   33.6635 C   0  0  0  0  0  0  0  0  0  0  0  0
   35.0788  -21.4561   38.2193 S   0  0  0  0  0  0  0  0  0  0  0  0
   34.7698  -22.9214   38.5893 O   0  0  0  0  0  0  0  0  0  0  0  0
   34.3615  -20.5883   39.1984 O   0  0  0  0  0  0  0  0  0  0  0  0
   39.5654  -20.8584   38.7916 C   0  0  0  0  0  0  0  0  0  0  0  0
   38.7771  -21.3506   39.8072 C   0  0  0  0  0  0  0  0  0  0  0  0
   37.4181  -21.5236   39.6099 C   0  0  0  0  0  0  0  0  0  0  0  0
   36.7972  -21.2239   38.4271 C   0  0  0  0  0  0  0  0  0  0  0  0
   37.5784  -20.7257   37.3899 C   0  0  0  0  0  0  0  0  0  0  0  0
   38.9380  -20.5474   37.5786 C   0  0  0  0  0  0  0  0  0  0  0  0
   41.6382  -19.4918   38.9145 C   0  0  0  0  0  0  0  0  0  0  0  0
   40.8967  -20.6680   38.9184 O   0  0  0  0  0  0  0  0  0  0  0  0
 25 26  1  0  0  0
 26 19  1  0  0  0
 19 20  2  0  0  0
 20 21  1  0  0  0
 21 22  2  0  0  0
 22 23  1  0  0  0
 23 24  2  0  0  0
 22 16  1  0  0  0
 16 17  2  0  0  0
 16 18  2  0  0  0
 16  1  1  0  0  0
  1  3  1  0  0  0
  3  4  2  0  0  0
  4  5  1  0  0  0
  5  6  2  0  0  0
  6  7  1  0  0  0
  7  8  2  0  0  0
  8  9  1  0  0  0
  9 10  2  0  0  0
 10 11  1  0  0  0
 11 12  2  0  0  0
 12 13  1  0  0  0
 13 14  2  0  0  0
 14 15  1  0  0  0
 24 19  1  0  0  0
  8  3  1  0  0  0
 14  9  1  0  0  0
  1  2  1  0  0  0
M  END
> <minimizedAffinity>
-4.73167

> <CNNscore>
0.5066173673

> <CNNaffinity>
4.4534354210

> <CNN_VS>
2.2561876774

> <CNNaffinity_variance>
0.3535751104

$$$$
[H]c1c([H])c([H])c(N([H])S(=O)(=O)c2c([H])c([H])c(OC([H])([H])[H])c([H])c2[H])c(-c2c([H])c([H])c([H])c([H])c2C([H])([H])[H])c1[H]


 26 28  0  0  0  0  0  0  0  0999 V2000
   36.0061  -19.2344   36.8298 N   0  0  0  0  0  0  0  0  0  0  0  0
   36.3730  -19.7404   35.9580 H   0  0  0  0  0  0  0  0  0  0  0  0
   35.8013  -17.8583   36.7630 C   0  0  0  0  0  0  0  0  0  0  0  0
   36.6107  -16.9201   37.3521 C   0  0  0  0  0  0  0  0  0  0  0  0
   36.2689  -15.5757   37.2474 C   0  0  0  0  0  0  0  0  0  0  0  0
   35.1585  -15.1078   36.5820 C   0  0  0  0  0  0  0  0  0  0  0  0
   34.3543  -16.0776   35.9915 C   0  0  0  0  0  0  0  0  0  0  0  0
   34.6518  -17.4210   36.0692 C   0  0  0  0  0  0  0  0  0  0  0  0
   33.8317  -18.4164   35.3806 C   0  0  0  0  0  0  0  0  0  0  0  0
   32.6594  -18.9021   35.8994 C   0  0  0  0  0  0  0  0  0  0  0  0
   31.9215  -19.9067   35.2804 C   0  0  0  0  0  0  0  0  0  0  0  0
   32.3833  -20.4392   34.0937 C   0  0  0  0  0  0  0  0  0  0  0  0
   33.5606  -19.9574   33.5677 C   0  0  0  0  0  0  0  0  0  0  0  0
   34.3034  -18.9553   34.1785 C   0  0  0  0  0  0  0  0  0  0  0  0
   35.5492  -18.4655   33.5517 C   0  0  0  0  0  0  0  0  0  0  0  0
   35.7511  -20.2586   38.1732 S   0  0  0  0  0  0  0  0  0  0  0  0
   34.9610  -21.5042   37.7219 O   0  0  0  0  0  0  0  0  0  0  0  0
   34.9592  -19.5939   39.2489 O   0  0  0  0  0  0  0  0  0  0  0  0
   39.6937  -21.7245   39.9399 C   0  0  0  0  0  0  0  0  0  0  0  0
   39.6499  -21.1081   38.7098 C   0  0  0  0  0  0  0  0  0  0  0  0
   38.4418  -20.6715   38.1944 C   0  0  0  0  0  0  0  0  0  0  0  0
   37.2546  -20.8230   38.8594 C   0  0  0  0  0  0  0  0  0  0  0  0
   37.2803  -21.4437   40.1037 C   0  0  0  0  0  0  0  0  0  0  0  0
   38.4834  -21.8853   40.6263 C   0  0  0  0  0  0  0  0  0  0  0  0
   42.0061  -22.6359   39.9037 C   0  0  0  0  0  0  0  0  0  0  0  0
   40.8389  -22.1715   40.4997 O   0  0  0  0  0  0  0  0  0  0  0  0
 25 26  1  0  0  0
 26 19  1  0  0  0
 19 20  2  0  0  0
 20 21  1  0  0  0
 21 22  2  0  0  0
 22 23  1  0  0  0
 23 24  2  0  0  0
 22 16  1  0  0  0
 16 17  2  0  0  0
 16 18  2  0  0  0
 16  1  1  0  0  0
  1  3  1  0  0  0
  3  4  2  0  0  0
  4  5  1  0  0  0
  5  6  2  0  0  0
  6  7  1  0  0  0
  7  8  2  0  0  0
  8  9  1  0  0  0
  9 10  2  0  0  0
 10 11  1  0  0  0
 11 12  2  0  0  0
 12 13  1  0  0  0
 13 14  2  0  0  0
 14 15  1  0  0  0
 24 19  1  0  0  0
  8  3  1  0  0  0
 14  9  1  0  0  0
  1  2  1  0  0  0
M  END
> <minimizedAffinity>
-5.53367

> <CNNscore>
0.4505956769

> <CNNaffinity>
4.2019128799

> <CNN_VS>
1.8933638334

> <CNNaffinity_variance>
0.8474146128

$$$$
[H]c1c([H])c([H])c(N([H])S(=O)(=O)c2c([H])c([H])c(OC([H])([H])[H])c([H])c2[H])c(-c2c([H])c([H])c([H])c([H])c2C([H])([H])[H])c1[H]


 26 28  0  0  0  0  0  0  0  0999 V2000
   35.9071  -19.3983   36.9171 N   0  0  0  0  0  0  0  0  0  0  0  0
   36.3293  -19.9380   36.0918 H   0  0  0  0  0  0  0  0  0  0  0  0
   35.7395  -18.0209   36.7946 C   0  0  0  0  0  0  0  0  0  0  0  0
   36.5774  -17.0820   37.3412 C   0  0  0  0  0  0  0  0  0  0  0  0
   36.2719  -15.7341   37.1828 C   0  0  0  0  0  0  0  0  0  0  0  0
   35.1710  -15.2635   36.5036 C   0  0  0  0  0  0  0  0  0  0  0  0
   34.3374  -16.2342   35.9570 C   0  0  0  0  0  0  0  0  0  0  0  0
   34.5985  -17.5810   36.0885 C   0  0  0  0  0  0  0  0  0  0  0  0
   33.7479  -18.5809   35.4450 C   0  0  0  0  0  0  0  0  0  0  0  0
   32.5613  -19.0060   35.9842 C   0  0  0  0  0  0  0  0  0  0  0  0
   31.7924  -20.0143   35.4107 C   0  0  0  0  0  0  0  0  0  0  0  0
   32.2372  -20.6143   34.2499 C   0  0  0  0  0  0  0  0  0  0  0  0
   33.4285  -20.1935   33.7038 C   0  0  0  0  0  0  0  0  0  0  0  0
   34.2022  -19.1882   34.2692 C   0  0  0  0  0  0  0  0  0  0  0  0
   35.4624  -18.7662   33.6221 C   0  0  0  0  0  0  0  0  0  0  0  0
   35.5248  -20.3754   38.2653 S   0  0  0  0  0  0  0  0  0  0  0  0
   34.9572  -19.4889   39.3928 O   0  0  0  0  0  0  0  0  0  0  0  0
   36.7216  -21.0794   38.8113 O   0  0  0  0  0  0  0  0  0  0  0  0
   32.3566  -23.4952   37.2434 C   0  0  0  0  0  0  0  0  0  0  0  0
   33.4633  -23.3157   36.4446 C   0  0  0  0  0  0  0  0  0  0  0  0
   34.4114  -22.3630   36.7752 C   0  0  0  0  0  0  0  0  0  0  0  0
   34.3062  -21.5670   37.8841 C   0  0  0  0  0  0  0  0  0  0  0  0
   33.1944  -21.7348   38.7026 C   0  0  0  0  0  0  0  0  0  0  0  0
   32.2402  -22.6837   38.3791 C   0  0  0  0  0  0  0  0  0  0  0  0
   30.0296  -24.2411   36.7873 C   0  0  0  0  0  0  0  0  0  0  0  0
   31.3967  -24.4079   36.9783 O   0  0  0  0  0  0  0  0  0  0  0  0
 25 26  1  0  0  0
 26 19  1  0  0  0
 19 20  2  0  0  0
 20 21  1  0  0  0
 21 22  2  0  0  0
 22 23  1  0  0  0
 23 24  2  0  0  0
 22 16  1  0  0  0
 16 17  2  0  0  0
 16 18  2  0  0  0
 16  1  1  0  0  0
  1  3  1  0  0  0
  3  4  2  0  0  0
  4  5  1  0  0  0
  5  6  2  0  0  0
  6  7  1  0  0  0
  7  8  2  0  0  0
  8  9  1  0  0  0
  9 10  2  0  0  0
 10 11  1  0  0  0
 11 12  2  0  0  0
 12 13  1  0  0  0
 13 14  2  0  0  0
 14 15  1  0  0  0
 24 19  1  0  0  0
  8  3  1  0  0  0
 14  9  1  0  0  0
  1  2  1  0  0  0
M  END
> <minimizedAffinity>
-5.17097

> <CNNscore>
0.4076807797

> <CNNaffinity>
4.2160444260

> <CNN_VS>
1.7188003063

> <CNNaffinity_variance>
0.7380514145

$$$$
[H]c1c([H])c([H])c(N([H])S(=O)(=O)c2c([H])c([H])c(OC([H])([H])[H])c([H])c2[H])c(-c2c([H])c([H])c([H])c([H])c2C([H])([H])[H])c1[H]


 26 28  0  0  0  0  0  0  0  0999 V2000
   35.8871  -19.6237   35.2265 N   0  0  0  0  0  0  0  0  0  0  0  0
   36.3564  -20.5845   35.3109 H   0  0  0  0  0  0  0  0  0  0  0  0
   34.4998  -19.5690   35.1145 C   0  0  0  0  0  0  0  0  0  0  0  0
   33.8240  -19.1248   34.0061 C   0  0  0  0  0  0  0  0  0  0  0  0
   32.4340  -19.0783   34.0395 C   0  0  0  0  0  0  0  0  0  0  0  0
   31.6717  -19.4541   35.1222 C   0  0  0  0  0  0  0  0  0  0  0  0
   32.3791  -19.9026   36.2332 C   0  0  0  0  0  0  0  0  0  0  0  0
   33.7557  -19.9654   36.2473 C   0  0  0  0  0  0  0  0  0  0  0  0
   34.4745  -20.5073   37.3993 C   0  0  0  0  0  0  0  0  0  0  0  0
   35.1364  -19.7162   38.3025 C   0  0  0  0  0  0  0  0  0  0  0  0
   35.8856  -20.2379   39.3529 C   0  0  0  0  0  0  0  0  0  0  0  0
   35.9685  -21.6081   39.4975 C   0  0  0  0  0  0  0  0  0  0  0  0
   35.3077  -22.4085   38.5934 C   0  0  0  0  0  0  0  0  0  0  0  0
   34.5579  -21.8967   37.5423 C   0  0  0  0  0  0  0  0  0  0  0  0
   33.8535  -22.8094   36.6172 C   0  0  0  0  0  0  0  0  0  0  0  0
   36.9809  -18.3115   35.2354 S   0  0  0  0  0  0  0  0  0  0  0  0
   37.2846  -17.8910   33.7827 O   0  0  0  0  0  0  0  0  0  0  0  0
   38.2805  -18.6626   35.8787 O   0  0  0  0  0  0  0  0  0  0  0  0
   35.2756  -14.6630   37.3791 C   0  0  0  0  0  0  0  0  0  0  0  0
   36.4695  -15.2257   37.7704 C   0  0  0  0  0  0  0  0  0  0  0  0
   36.9670  -16.3323   37.1045 C   0  0  0  0  0  0  0  0  0  0  0  0
   36.3191  -16.9145   36.0482 C   0  0  0  0  0  0  0  0  0  0  0  0
   35.1115  -16.3590   35.6392 C   0  0  0  0  0  0  0  0  0  0  0  0
   34.6051  -15.2535   36.3003 C   0  0  0  0  0  0  0  0  0  0  0  0
   33.8074  -12.6616   37.5137 C   0  0  0  0  0  0  0  0  0  0  0  0
   34.7365  -13.5826   37.9847 O   0  0  0  0  0  0  0  0  0  0  0  0
 25 26  1  0  0  0
 26 19  1  0  0  0
 19 20  2  0  0  0
 20 21  1  0  0  0
 21 22  2  0  0  0
 22 23  1  0  0  0
 23 24  2  0  0  0
 22 16  1  0  0  0
 16 17  2  0  0  0
 16 18  2  0  0  0
 16  1  1  0  0  0
  1  3  1  0  0  0
  3  4  2  0  0  0
  4  5  1  0  0  0
  5  6  2  0  0  0
  6  7  1  0  0  0
  7  8  2  0  0  0
  8  9  1  0  0  0
  9 10  2  0  0  0
 10 11  1  0  0  0
 11 12  2  0  0  0
 12 13  1  0  0  0
 13 14  2  0  0  0
 14 15  1  0  0  0
 24 19  1  0  0  0
  8  3  1  0  0  0
 14  9  1  0  0  0
  1  2  1  0  0  0
M  END
> <minimizedAffinity>
-6.36804

> <CNNscore>
0.2852458656

> <CNNaffinity>
4.4735293388

> <CNN_VS>
1.2760556936

> <CNNaffinity_variance>
0.6239460707

$$$$
[H]c1c([H])c([H])c(N([H])S(=O)(=O)c2c([H])c([H])c(OC([H])([H])[H])c([H])c2[H])c(-c2c([H])c([H])c([H])c([H])c2C([H])([H])[H])c1[H]


 26 28  0  0  0  0  0  0  0  0999 V2000
   35.1258  -18.1086   36.8995 N   0  0  0  0  0  0  0  0  0  0  0  0
   34.1125  -17.7746   37.0100 H   0  0  0  0  0  0  0  0  0  0  0  0
   35.4313  -19.4265   37.2312 C   0  0  0  0  0  0  0  0  0  0  0  0
   36.4638  -19.8046   38.0519 C   0  0  0  0  0  0  0  0  0  0  0  0
   36.6900  -21.1602   38.2675 C   0  0  0  0  0  0  0  0  0  0  0  0
   35.9390  -22.1697   37.7092 C   0  0  0  0  0  0  0  0  0  0  0  0
   34.8971  -21.7616   36.8824 C   0  0  0  0  0  0  0  0  0  0  0  0
   34.6351  -20.4308   36.6384 C   0  0  0  0  0  0  0  0  0  0  0  0
   33.4912  -20.0239   35.8238 C   0  0  0  0  0  0  0  0  0  0  0  0
   32.2066  -20.0050   36.3021 C   0  0  0  0  0  0  0  0  0  0  0  0
   31.1105  -19.6938   35.5030 C   0  0  0  0  0  0  0  0  0  0  0  0
   31.3192  -19.3893   34.1730 C   0  0  0  0  0  0  0  0  0  0  0  0
   32.6063  -19.4078   33.6856 C   0  0  0  0  0  0  0  0  0  0  0  0
   33.7060  -19.7172   34.4756 C   0  0  0  0  0  0  0  0  0  0  0  0
   35.0662  -19.6988   33.8975 C   0  0  0  0  0  0  0  0  0  0  0  0
   36.1969  -16.9060   36.3295 S   0  0  0  0  0  0  0  0  0  0  0  0
   36.4247  -17.1017   34.8165 O   0  0  0  0  0  0  0  0  0  0  0  0
   37.5310  -16.9757   36.9938 O   0  0  0  0  0  0  0  0  0  0  0  0
   34.4817  -12.7163   36.8947 C   0  0  0  0  0  0  0  0  0  0  0  0
   33.6771  -13.7722   36.5304 C   0  0  0  0  0  0  0  0  0  0  0  0
   34.2203  -15.0345   36.3651 C   0  0  0  0  0  0  0  0  0  0  0  0
   35.5511  -15.2983   36.5493 C   0  0  0  0  0  0  0  0  0  0  0  0
   36.3788  -14.2431   36.9178 C   0  0  0  0  0  0  0  0  0  0  0  0
   35.8449  -12.9769   37.0835 C   0  0  0  0  0  0  0  0  0  0  0  0
   33.0023  -10.9923   37.9038 C   0  0  0  0  0  0  0  0  0  0  0  0
   34.0146  -11.4616   37.0742 O   0  0  0  0  0  0  0  0  0  0  0  0
 25 26  1  0  0  0
 26 19  1  0  0  0
 19 20  2  0  0  0
 20 21  1  0  0  0
 21 22  2  0  0  0
 22 23  1  0  0  0
 23 24  2  0  0  0
 22 16  1  0  0  0
 16 17  2  0  0  0
 16 18  2  0  0  0
 16  1  1  0  0  0
  1  3  1  0  0  0
  3  4  2  0  0  0
  4  5  1  0  0  0
  5  6  2  0  0  0
  6  7  1  0  0  0
  7  8  2  0  0  0
  8  9  1  0  0  0
  9 10  2  0  0  0
 10 11  1  0  0  0
 11 12  2  0  0  0
 12 13  1  0  0  0
 13 14  2  0  0  0
 14 15  1  0  0  0
 24 19  1  0  0  0
  8  3  1  0  0  0
 14  9  1  0  0  0
  1  2  1  0  0  0
M  END
> <minimizedAffinity>
-6.06117

> <CNNscore>
0.2414234728

> <CNNaffinity>
4.6551237106

> <CNN_VS>
1.1238561869

> <CNNaffinity_variance>
0.3135931194

$$$$
[H]c1c([H])c([H])c(N([H])S(=O)(=O)c2c([H])c([H])c(OC([H])([H])[H])c([H])c2[H])c(-c2c([H])c([H])c([H])c([H])c2C([H])([H])[H])c1[H]


 26 28  0  0  0  0  0  0  0  0999 V2000
   34.7989  -20.9991   36.0678 N   0  0  0  0  0  0  0  0  0  0  0  0
   35.2091  -21.7238   35.3917 H   0  0  0  0  0  0  0  0  0  0  0  0
   34.1631  -19.8794   35.5365 C   0  0  0  0  0  0  0  0  0  0  0  0
   32.8038  -19.7400   35.4128 C   0  0  0  0  0  0  0  0  0  0  0  0
   32.2967  -18.5871   34.8221 C   0  0  0  0  0  0  0  0  0  0  0  0
   33.0726  -17.5551   34.3451 C   0  0  0  0  0  0  0  0  0  0  0  0
   34.4474  -17.7185   34.4832 C   0  0  0  0  0  0  0  0  0  0  0  0
   34.9959  -18.8430   35.0607 C   0  0  0  0  0  0  0  0  0  0  0  0
   36.4395  -18.9611   35.2601 C   0  0  0  0  0  0  0  0  0  0  0  0
   37.2533  -19.6616   34.4078 C   0  0  0  0  0  0  0  0  0  0  0  0
   38.6137  -19.8390   34.6420 C   0  0  0  0  0  0  0  0  0  0  0  0
   39.1729  -19.2880   35.7773 C   0  0  0  0  0  0  0  0  0  0  0  0
   38.3613  -18.5847   36.6384 C   0  0  0  0  0  0  0  0  0  0  0  0
   37.0031  -18.4026   36.4128 C   0  0  0  0  0  0  0  0  0  0  0  0
   36.1892  -17.6181   37.3651 C   0  0  0  0  0  0  0  0  0  0  0  0
   35.0298  -21.3773   37.7177 S   0  0  0  0  0  0  0  0  0  0  0  0
   34.3030  -22.6980   38.0445 O   0  0  0  0  0  0  0  0  0  0  0  0
   34.4753  -20.3277   38.6216 O   0  0  0  0  0  0  0  0  0  0  0  0
   39.4339  -21.9626   38.7550 C   0  0  0  0  0  0  0  0  0  0  0  0
   38.5989  -21.2385   39.5758 C   0  0  0  0  0  0  0  0  0  0  0  0
   37.2661  -21.0747   39.2402 C   0  0  0  0  0  0  0  0  0  0  0  0
   36.7170  -21.6083   38.1052 C   0  0  0  0  0  0  0  0  0  0  0  0
   37.5461  -22.3430   37.2644 C   0  0  0  0  0  0  0  0  0  0  0  0
   38.8807  -22.5105   37.5907 C   0  0  0  0  0  0  0  0  0  0  0  0
   41.6061  -21.4468   39.8482 C   0  0  0  0  0  0  0  0  0  0  0  0
   40.7423  -22.1614   39.0255 O   0  0  0  0  0  0  0  0  0  0  0  0
 25 26  1  0  0  0
 26 19  1  0  0  0
 19 20  2  0  0  0
 20 21  1  0  0  0
 21 22  2  0  0  0
 22 23  1  0  0  0
 23 24  2  0  0  0
 22 16  1  0  0  0
 16 17  2  0  0  0
 16 18  2  0  0  0
 16  1  1  0  0  0
  1  3  1  0  0  0
  3  4  2  0  0  0
  4  5  1  0  0  0
  5  6  2  0  0  0
  6  7  1  0  0  0
  7  8  2  0  0  0
  8  9  1  0  0  0
  9 10  2  0  0  0
 10 11  1  0  0  0
 11 12  2  0  0  0
 12 13  1  0  0  0
 13 14  2  0  0  0
 14 15  1  0  0  0
 24 19  1  0  0  0
  8  3  1  0  0  0
 14  9  1  0  0  0
  1  2  1  0  0  0
M  END
> <minimizedAffinity>
-4.57834

> <CNNscore>
0.2413996011

> <CNNaffinity>
4.1754546165

> <CNN_VS>
1.0079530478

> <CNNaffinity_variance>
0.5490487814

$$$$
[H]c1c([H])c([H])c(N([H])S(=O)(=O)c2c([H])c([H])c(OC([H])([H])[H])c([H])c2[H])c(-c2c([H])c([H])c([H])c([H])c2C([H])([H])[H])c1[H]


 26 28  0  0  0  0  0  0  0  0999 V2000
   34.2287  -19.9546   37.1285 N   0  0  0  0  0  0  0  0  0  0  0  0
   34.5200  -19.0488   37.6239 H   0  0  0  0  0  0  0  0  0  0  0  0
   33.2139  -19.8948   36.1763 C   0  0  0  0  0  0  0  0  0  0  0  0
   31.9304  -20.3363   36.3762 C   0  0  0  0  0  0  0  0  0  0  0  0
   31.0216  -20.2605   35.3256 C   0  0  0  0  0  0  0  0  0  0  0  0
   31.3200  -19.7640   34.0770 C   0  0  0  0  0  0  0  0  0  0  0  0
   32.6269  -19.3208   33.8991 C   0  0  0  0  0  0  0  0  0  0  0  0
   33.5621  -19.3767   34.9097 C   0  0  0  0  0  0  0  0  0  0  0  0
   34.9089  -18.8395   34.7220 C   0  0  0  0  0  0  0  0  0  0  0  0
   35.9396  -19.5802   34.2039 C   0  0  0  0  0  0  0  0  0  0  0  0
   37.2388  -19.0923   34.0997 C   0  0  0  0  0  0  0  0  0  0  0  0
   37.5068  -17.8095   34.5331 C   0  0  0  0  0  0  0  0  0  0  0  0
   36.4769  -17.0606   35.0558 C   0  0  0  0  0  0  0  0  0  0  0  0
   35.1776  -17.5392   35.1636 C   0  0  0  0  0  0  0  0  0  0  0  0
   34.1104  -16.6774   35.7144 C   0  0  0  0  0  0  0  0  0  0  0  0
   35.0947  -21.3362   37.6383 S   0  0  0  0  0  0  0  0  0  0  0  0
   34.5669  -22.5750   36.8859 O   0  0  0  0  0  0  0  0  0  0  0  0
   34.9326  -21.5986   39.0981 O   0  0  0  0  0  0  0  0  0  0  0  0
   39.5490  -21.0258   36.7017 C   0  0  0  0  0  0  0  0  0  0  0  0
   38.8288  -22.1519   36.3729 C   0  0  0  0  0  0  0  0  0  0  0  0
   37.4781  -22.2229   36.6669 C   0  0  0  0  0  0  0  0  0  0  0  0
   36.7999  -21.2062   37.2839 C   0  0  0  0  0  0  0  0  0  0  0  0
   37.5119  -20.0608   37.6233 C   0  0  0  0  0  0  0  0  0  0  0  0
   38.8633  -19.9814   37.3350 C   0  0  0  0  0  0  0  0  0  0  0  0
   41.5122  -20.3558   35.3319 C   0  0  0  0  0  0  0  0  0  0  0  0
   40.8677  -20.8923   36.4410 O   0  0  0  0  0  0  0  0  0  0  0  0
 25 26  1  0  0  0
 26 19  1  0  0  0
 19 20  2  0  0  0
 20 21  1  0  0  0
 21 22  2  0  0  0
 22 23  1  0  0  0
 23 24  2  0  0  0
 22 16  1  0  0  0
 16 17  2  0  0  0
 16 18  2  0  0  0
 16  1  1  0  0  0
  1  3  1  0  0  0
  3  4  2  0  0  0
  4  5  1  0  0  0
  5  6  2  0  0  0
  6  7  1  0  0  0
  7  8  2  0  0  0
  8  9  1  0  0  0
  9 10  2  0  0  0
 10 11  1  0  0  0
 11 12  2  0  0  0
 12 13  1  0  0  0
 13 14  2  0  0  0
 14 15  1  0  0  0
 24 19  1  0  0  0
  8  3  1  0  0  0
 14  9  1  0  0  0
  1  2  1  0  0  0
M  END
> <minimizedAffinity>
-4.68890

> <CNNscore>
0.2274085730

> <CNNaffinity>
4.2558450699

> <CNN_VS>
0.9678156376

> <CNNaffinity_variance>
0.7351839542

$$$$
[H]c1c([H])c([H])c(N([H])S(=O)(=O)c2c([H])c([H])c(OC([H])([H])[H])c([H])c2[H])c(-c2c([H])c([H])c([H])c([H])c2C([H])([H])[H])c1[H]


 26 28  0  0  0  0  0  0  0  0999 V2000
   34.3280  -20.0648   36.1878 N   0  0  0  0  0  0  0  0  0  0  0  0
   34.7532  -20.7626   35.4929 H   0  0  0  0  0  0  0  0  0  0  0  0
   34.3442  -20.3832   37.5437 C   0  0  0  0  0  0  0  0  0  0  0  0
   35.1674  -19.7979   38.4722 C   0  0  0  0  0  0  0  0  0  0  0  0
   35.1158  -20.2396   39.7904 C   0  0  0  0  0  0  0  0  0  0  0  0
   34.2826  -21.2382   40.2412 C   0  0  0  0  0  0  0  0  0  0  0  0
   33.4563  -21.8151   39.2819 C   0  0  0  0  0  0  0  0  0  0  0  0
   33.4726  -21.4115   37.9643 C   0  0  0  0  0  0  0  0  0  0  0  0
   32.5451  -21.9823   36.9889 C   0  0  0  0  0  0  0  0  0  0  0  0
   31.3409  -21.4040   36.6805 C   0  0  0  0  0  0  0  0  0  0  0  0
   30.4253  -21.9898   35.8114 C   0  0  0  0  0  0  0  0  0  0  0  0
   30.7374  -23.2028   35.2315 C   0  0  0  0  0  0  0  0  0  0  0  0
   31.9441  -23.7900   35.5377 C   0  0  0  0  0  0  0  0  0  0  0  0
   32.8638  -23.2128   36.4038 C   0  0  0  0  0  0  0  0  0  0  0  0
   34.1526  -23.8835   36.6754 C   0  0  0  0  0  0  0  0  0  0  0  0
   33.6845  -18.6605   35.4582 S   0  0  0  0  0  0  0  0  0  0  0  0
   32.2533  -18.4237   35.9826 O   0  0  0  0  0  0  0  0  0  0  0  0
   33.6010  -18.7819   33.9735 O   0  0  0  0  0  0  0  0  0  0  0  0
   36.1465  -14.9575   36.4787 C   0  0  0  0  0  0  0  0  0  0  0  0
   36.7166  -16.2105   36.4651 C   0  0  0  0  0  0  0  0  0  0  0  0
   35.9495  -17.3192   36.1522 C   0  0  0  0  0  0  0  0  0  0  0  0
   34.6175  -17.2361   35.8467 C   0  0  0  0  0  0  0  0  0  0  0  0
   34.0250  -15.9779   35.8556 C   0  0  0  0  0  0  0  0  0  0  0  0
   34.7837  -14.8636   36.1692 C   0  0  0  0  0  0  0  0  0  0  0  0
   37.9005  -13.6425   37.6506 C   0  0  0  0  0  0  0  0  0  0  0  0
   36.8392  -13.8359   36.7735 O   0  0  0  0  0  0  0  0  0  0  0  0
 25 26  1  0  0  0
 26 19  1  0  0  0
 19 20  2  0  0  0
 20 21  1  0  0  0
 21 22  2  0  0  0
 22 23  1  0  0  0
 23 24  2  0  0  0
 22 16  1  0  0  0
 16 17  2  0  0  0
 16 18  2  0  0  0
 16  1  1  0  0  0
  1  3  1  0  0  0
  3  4  2  0  0  0
  4  5  1  0  0  0
  5  6  2  0  0  0
  6  7  1  0  0  0
  7  8  2  0  0  0
  8  9  1  0  0  0
  9 10  2  0  0  0
 10 11  1  0  0  0
 11 12  2  0  0  0
 12 13  1  0  0  0
 13 14  2  0  0  0
 14 15  1  0  0  0
 24 19  1  0  0  0
  8  3  1  0  0  0
 14  9  1  0  0  0
  1  2  1  0  0  0
M  END
> <minimizedAffinity>
-5.97425

> <CNNscore>
0.2214341760

> <CNNaffinity>
4.2878160477

> <CNN_VS>
0.9494690299

> <CNNaffinity_variance>
0.4628753662

$$$$
[H]c1c([H])c([H])c(N([H])S(=O)(=O)c2c([H])c([H])c(OC([H])([H])[H])c([H])c2[H])c(-c2c([H])c([H])c([H])c([H])c2C([H])([H])[H])c1[H]


 26 28  0  0  0  0  0  0  0  0999 V2000
   35.7814  -19.7766   35.6683 N   0  0  0  0  0  0  0  0  0  0  0  0
   35.3782  -20.3793   34.8779 H   0  0  0  0  0  0  0  0  0  0  0  0
   35.5914  -20.1918   36.9842 C   0  0  0  0  0  0  0  0  0  0  0  0
   36.5894  -20.3000   37.9194 C   0  0  0  0  0  0  0  0  0  0  0  0
   36.2730  -20.7712   39.1896 C   0  0  0  0  0  0  0  0  0  0  0  0
   35.0080  -21.1420   39.5857 C   0  0  0  0  0  0  0  0  0  0  0  0
   34.0128  -21.0219   38.6209 C   0  0  0  0  0  0  0  0  0  0  0  0
   34.2783  -20.5610   37.3496 C   0  0  0  0  0  0  0  0  0  0  0  0
   33.2046  -20.3754   36.3748 C   0  0  0  0  0  0  0  0  0  0  0  0
   32.7067  -19.1420   36.0425 C   0  0  0  0  0  0  0  0  0  0  0  0
   31.6321  -18.9732   35.1744 C   0  0  0  0  0  0  0  0  0  0  0  0
   31.0397  -20.0901   34.6206 C   0  0  0  0  0  0  0  0  0  0  0  0
   31.5335  -21.3317   34.9509 C   0  0  0  0  0  0  0  0  0  0  0  0
   32.6052  -21.5097   35.8162 C   0  0  0  0  0  0  0  0  0  0  0  0
   33.1030  -22.8691   36.1144 C   0  0  0  0  0  0  0  0  0  0  0  0
   36.5932  -18.3735   35.1288 S   0  0  0  0  0  0  0  0  0  0  0  0
   36.2975  -18.1579   33.6304 O   0  0  0  0  0  0  0  0  0  0  0  0
   38.0735  -18.4831   35.2798 O   0  0  0  0  0  0  0  0  0  0  0  0
   35.2099  -14.6351   37.3482 C   0  0  0  0  0  0  0  0  0  0  0  0
   36.4113  -15.2373   37.6470 C   0  0  0  0  0  0  0  0  0  0  0  0
   36.8099  -16.3707   36.9598 C   0  0  0  0  0  0  0  0  0  0  0  0
   36.0541  -16.9419   35.9714 C   0  0  0  0  0  0  0  0  0  0  0  0
   34.8373  -16.3466   35.6564 C   0  0  0  0  0  0  0  0  0  0  0  0
   34.4294  -15.2141   36.3395 C   0  0  0  0  0  0  0  0  0  0  0  0
   33.6815  -12.7044   37.6881 C   0  0  0  0  0  0  0  0  0  0  0  0
   34.7639  -13.5271   37.9792 O   0  0  0  0  0  0  0  0  0  0  0  0
 25 26  1  0  0  0
 26 19  1  0  0  0
 19 20  2  0  0  0
 20 21  1  0  0  0
 21 22  2  0  0  0
 22 23  1  0  0  0
 23 24  2  0  0  0
 22 16  1  0  0  0
 16 17  2  0  0  0
 16 18  2  0  0  0
 16  1  1  0  0  0
  1  3  1  0  0  0
  3  4  2  0  0  0
  4  5  1  0  0  0
  5  6  2  0  0  0
  6  7  1  0  0  0
  7  8  2  0  0  0
  8  9  1  0  0  0
  9 10  2  0  0  0
 10 11  1  0  0  0
 11 12  2  0  0  0
 12 13  1  0  0  0
 13 14  2  0  0  0
 14 15  1  0  0  0
 24 19  1  0  0  0
  8  3  1  0  0  0
 14  9  1  0  0  0
  1  2  1  0  0  0
M  END
> <minimizedAffinity>
-6.47225

> <CNNscore>
0.2196613252

> <CNNaffinity>
4.4337220192

> <CNN_VS>
0.9739172459

> <CNNaffinity_variance>
0.6109712720

$$$$
[H]c1nc([H])c(C(=O)N(C([H])([H])[H])[C@]2([H])C([H])([H])[C@@]3([H])O[C@](C([H])([H])[H])(n4c5c([H])c([H])c([H])c([H])c5c5c6c(c7c8c([H])c([H])c([H])c([H])c8n3c7c54)C(=O)N([H])C6([H])[H])[C@]2([H])OC([H])([H])[H])c([H])c1[H]


 44 52  0  0  0  0  0  0  0  0999 V2000
   33.7647  -12.7430   37.1868 C   0  0  0  0  0  0  0  0  0  0  0  0
   32.3658  -12.7880   36.5700 C   0  0  0  0  0  0  0  0  0  0  0  0
   32.0471  -14.2187   36.3239 C   0  0  0  0  0  0  0  0  0  0  0  0
   33.0337  -14.6511   35.2394 C   0  0  0  0  0  0  0  0  0  0  0  0
   33.9723  -13.7304   34.9649 O   0  0  0  0  0  0  0  0  0  0  0  0
   34.6831  -13.1572   36.0157 C   0  0  0  0  0  0  0  0  0  0  0  0
   35.1749  -11.8553   35.4046 C   0  0  0  0  0  0  0  0  0  0  0  0
   35.7451  -14.0451   36.4275 N   0  0  0  0  0  0  0  0  0  0  0  0
   36.9560  -13.6955   36.9447 C   0  0  0  0  0  0  0  0  0  0  0  0
   37.5326  -12.4785   37.2429 C   0  0  0  0  0  0  0  0  0  0  0  0
   38.8102  -12.4130   37.7794 C   0  0  0  0  0  0  0  0  0  0  0  0
   39.5511  -13.5442   38.0369 C   0  0  0  0  0  0  0  0  0  0  0  0
   38.9852  -14.7911   37.7435 C   0  0  0  0  0  0  0  0  0  0  0  0
   37.7173  -14.8289   37.2118 C   0  0  0  0  0  0  0  0  0  0  0  0
   36.9626  -15.9013   36.8561 C   0  0  0  0  0  0  0  0  0  0  0  0
   37.1372  -17.2760   36.8880 C   0  0  0  0  0  0  0  0  0  0  0  0
   38.3487  -17.9928   37.3681 C   0  0  0  0  0  0  0  0  0  0  0  0
   38.0009  -19.3703   37.1740 N   0  0  0  0  0  0  0  0  0  0  0  0
   36.6669  -19.4931   36.6272 C   0  0  0  0  0  0  0  0  0  0  0  0
   36.1388  -20.5983   36.3779 O   0  0  0  0  0  0  0  0  0  0  0  0
   36.1625  -18.1571   36.4634 C   0  0  0  0  0  0  0  0  0  0  0  0
   34.9603  -17.6406   35.9858 C   0  0  0  0  0  0  0  0  0  0  0  0
   33.8239  -18.2007   35.5016 C   0  0  0  0  0  0  0  0  0  0  0  0
   33.3921  -19.4880   35.2883 C   0  0  0  0  0  0  0  0  0  0  0  0
   32.1161  -19.6620   34.7573 C   0  0  0  0  0  0  0  0  0  0  0  0
   31.2884  -18.6141   34.4446 C   0  0  0  0  0  0  0  0  0  0  0  0
   31.7197  -17.3362   34.6575 C   0  0  0  0  0  0  0  0  0  0  0  0
   32.9901  -17.1385   35.1869 C   0  0  0  0  0  0  0  0  0  0  0  0
   33.5664  -15.9785   35.4565 N   0  0  0  0  0  0  0  0  0  0  0  0
   34.7802  -16.2547   35.9514 C   0  0  0  0  0  0  0  0  0  0  0  0
   35.7838  -15.4200   36.3873 C   0  0  0  0  0  0  0  0  0  0  0  0
   38.6184  -20.1958   37.3934 H   0  0  0  0  0  0  0  0  0  0  0  0
   31.3745  -11.9781   37.1968 N   0  0  0  0  0  0  0  0  0  0  0  0
   31.2591  -10.6220   36.7056 C   0  0  0  0  0  0  0  0  0  0  0  0
   30.5310  -12.4863   38.1891 C   0  0  0  0  0  0  0  0  0  0  0  0
   30.6278  -13.7768   38.4349 O   0  0  0  0  0  0  0  0  0  0  0  0
   29.5385  -11.8292   39.0188 C   0  0  0  0  0  0  0  0  0  0  0  0
   28.3352  -11.4979   38.4004 C   0  0  0  0  0  0  0  0  0  0  0  0
   27.3114  -10.9139   39.0860 C   0  0  0  0  0  0  0  0  0  0  0  0
   27.5056  -10.6580   40.4281 C   0  0  0  0  0  0  0  0  0  0  0  0
   28.6342  -10.9604   41.0446 N   0  0  0  0  0  0  0  0  0  0  0  0
   29.6461  -11.5422   40.3506 C   0  0  0  0  0  0  0  0  0  0  0  0
   33.6481  -13.1587   39.4691 C   0  0  0  0  0  0  0  0  0  0  0  0
   33.8978  -13.6600   38.1841 O   0  0  0  0  0  0  0  0  0  0  0  0
 43 44  1  0  0  0
 44  1  1  0  0  0
  1  2  1  0  0  0
  2  3  1  0  0  0
  3  4  1  0  0  0
  4  5  1  0  0  0
  5  6  1  0  0  0
  6  7  1  0  0  0
  6  8  1  0  0  0
  8  9  1  0  0  0
  9 10  2  0  0  0
 10 11  1  0  0  0
 11 12  2  0  0  0
 12 13  1  0  0  0
 13 14  2  0  0  0
 14 15  1  0  0  0
 15 16  2  0  0  0
 16 17  1  0  0  0
 17 18  1  0  0  0
 18 19  1  0  0  0
 19 20  2  0  0  0
 19 21  1  0  0  0
 21 22  2  0  0  0
 22 23  1  0  0  0
 23 24  2  0  0  0
 24 25  1  0  0  0
 25 26  2  0  0  0
 26 27  1  0  0  0
 27 28  2  0  0  0
 28 29  1  0  0  0
 29 30  1  0  0  0
 30 31  2  0  0  0
  2 33  1  0  0  0
 33 34  1  0  0  0
 33 35  1  0  0  0
 35 36  2  0  0  0
 35 37  1  0  0  0
 37 38  2  0  0  0
 38 39  1  0  0  0
 39 40  2  0  0  0
 40 41  1  0  0  0
 41 42  2  0  0  0
  6  1  1  0  0  0
 31  8  1  0  0  0
 42 37  1  0  0  0
 29  4  1  0  0  0
 14  9  1  0  0  0
 31 15  1  0  0  0
 21 16  1  0  0  0
 30 22  1  0  0  0
 28 23  1  0  0  0
 18 32  1  0  0  0
M  END
> <minimizedAffinity>
11.62748

> <CNNscore>
0.4001141787

> <CNNaffinity>
6.6756033897

> <CNN_VS>
2.6710035801

> <CNNaffinity_variance>
0.5127841830

$$$$
[H]c1nc([H])c(C(=O)N(C([H])([H])[H])[C@]2([H])C([H])([H])[C@@]3([H])O[C@](C([H])([H])[H])(n4c5c([H])c([H])c([H])c([H])c5c5c6c(c7c8c([H])c([H])c([H])c([H])c8n3c7c54)C(=O)N([H])C6([H])[H])[C@]2([H])OC([H])([H])[H])c([H])c1[H]


 44 52  0  0  0  0  0  0  0  0999 V2000
   32.5308  -18.1346   35.3939 C   0  0  0  0  0  0  0  0  0  0  0  0
   32.6209  -19.4979   34.7065 C   0  0  0  0  0  0  0  0  0  0  0  0
   34.0116  -19.9870   34.8956 C   0  0  0  0  0  0  0  0  0  0  0  0
   34.8735  -19.0159   34.0889 C   0  0  0  0  0  0  0  0  0  0  0  0
   34.1966  -17.9548   33.6198 O   0  0  0  0  0  0  0  0  0  0  0  0
   33.3960  -17.2247   34.4938 C   0  0  0  0  0  0  0  0  0  0  0  0
   32.4207  -16.5417   33.5492 C   0  0  0  0  0  0  0  0  0  0  0  0
   34.2132  -16.3061   35.2516 N   0  0  0  0  0  0  0  0  0  0  0  0
   33.8484  -15.0852   35.7334 C   0  0  0  0  0  0  0  0  0  0  0  0
   32.6696  -14.3706   35.6824 C   0  0  0  0  0  0  0  0  0  0  0  0
   32.5731  -13.1211   36.2773 C   0  0  0  0  0  0  0  0  0  0  0  0
   33.6342  -12.5449   36.9382 C   0  0  0  0  0  0  0  0  0  0  0  0
   34.8406  -13.2529   37.0039 C   0  0  0  0  0  0  0  0  0  0  0  0
   34.9107  -14.4895   36.4057 C   0  0  0  0  0  0  0  0  0  0  0  0
   35.9527  -15.3591   36.3420 C   0  0  0  0  0  0  0  0  0  0  0  0
   37.2545  -15.3649   36.8180 C   0  0  0  0  0  0  0  0  0  0  0  0
   37.9048  -14.2793   37.5993 C   0  0  0  0  0  0  0  0  0  0  0  0
   39.2257  -14.7927   37.8183 N   0  0  0  0  0  0  0  0  0  0  0  0
   39.3734  -16.1050   37.2270 C   0  0  0  0  0  0  0  0  0  0  0  0
   40.4364  -16.7592   37.2932 O   0  0  0  0  0  0  0  0  0  0  0  0
   38.1149  -16.4248   36.6104 C   0  0  0  0  0  0  0  0  0  0  0  0
   37.6531  -17.5271   35.8952 C   0  0  0  0  0  0  0  0  0  0  0  0
   38.2134  -18.7030   35.5169 C   0  0  0  0  0  0  0  0  0  0  0  0
   39.4465  -19.2870   35.6824 C   0  0  0  0  0  0  0  0  0  0  0  0
   39.6437  -20.5492   35.1270 C   0  0  0  0  0  0  0  0  0  0  0  0
   38.6692  -21.2197   34.4326 C   0  0  0  0  0  0  0  0  0  0  0  0
   37.4450  -20.6373   34.2697 C   0  0  0  0  0  0  0  0  0  0  0  0
   37.2256  -19.3776   34.8157 C   0  0  0  0  0  0  0  0  0  0  0  0
   36.1097  -18.6693   34.7555 N   0  0  0  0  0  0  0  0  0  0  0  0
   36.3410  -17.5253   35.4127 C   0  0  0  0  0  0  0  0  0  0  0  0
   35.5237  -16.4433   35.6480 C   0  0  0  0  0  0  0  0  0  0  0  0
   39.9981  -14.2974   38.3369 H   0  0  0  0  0  0  0  0  0  0  0  0
   31.5507  -20.4041   34.9616 N   0  0  0  0  0  0  0  0  0  0  0  0
   30.2166  -19.8498   34.8809 C   0  0  0  0  0  0  0  0  0  0  0  0
   31.7813  -21.7585   35.2204 C   0  0  0  0  0  0  0  0  0  0  0  0
   33.0268  -22.1719   35.1082 O   0  0  0  0  0  0  0  0  0  0  0  0
   30.8685  -22.8209   35.5990 C   0  0  0  0  0  0  0  0  0  0  0  0
   30.6107  -23.7901   34.6325 C   0  0  0  0  0  0  0  0  0  0  0  0
   29.8017  -24.8586   34.8836 C   0  0  0  0  0  0  0  0  0  0  0  0
   29.2391  -24.9523   36.1401 C   0  0  0  0  0  0  0  0  0  0  0  0
   29.4638  -24.0508   37.0792 N   0  0  0  0  0  0  0  0  0  0  0  0
   30.2719  -22.9914   36.8167 C   0  0  0  0  0  0  0  0  0  0  0  0
   33.4889  -19.4415   37.0581 C   0  0  0  0  0  0  0  0  0  0  0  0
   33.0871  -18.1666   36.6360 O   0  0  0  0  0  0  0  0  0  0  0  0
 43 44  1  0  0  0
 44  1  1  0  0  0
  1  2  1  0  0  0
  2  3  1  0  0  0
  3  4  1  0  0  0
  4  5  1  0  0  0
  5  6  1  0  0  0
  6  7  1  0  0  0
  6  8  1  0  0  0
  8  9  1  0  0  0
  9 10  2  0  0  0
 10 11  1  0  0  0
 11 12  2  0  0  0
 12 13  1  0  0  0
 13 14  2  0  0  0
 14 15  1  0  0  0
 15 16  2  0  0  0
 16 17  1  0  0  0
 17 18  1  0  0  0
 18 19  1  0  0  0
 19 20  2  0  0  0
 19 21  1  0  0  0
 21 22  2  0  0  0
 22 23  1  0  0  0
 23 24  2  0  0  0
 24 25  1  0  0  0
 25 26  2  0  0  0
 26 27  1  0  0  0
 27 28  2  0  0  0
 28 29  1  0  0  0
 29 30  1  0  0  0
 30 31  2  0  0  0
  2 33  1  0  0  0
 33 34  1  0  0  0
 33 35  1  0  0  0
 35 36  2  0  0  0
 35 37  1  0  0  0
 37 38  2  0  0  0
 38 39  1  0  0  0
 39 40  2  0  0  0
 40 41  1  0  0  0
 41 42  2  0  0  0
  6  1  1  0  0  0
 31  8  1  0  0  0
 42 37  1  0  0  0
 29  4  1  0  0  0
 14  9  1  0  0  0
 31 15  1  0  0  0
 21 16  1  0  0  0
 30 22  1  0  0  0
 28 23  1  0  0  0
 18 32  1  0  0  0
M  END
> <minimizedAffinity>
6.76196

> <CNNscore>
0.3960563540

> <CNNaffinity>
6.4209289551

> <CNN_VS>
2.5430498123

> <CNNaffinity_variance>
0.2267027795

$$$$
[H]c1nc([H])c(C(=O)N(C([H])([H])[H])[C@]2([H])C([H])([H])[C@@]3([H])O[C@](C([H])([H])[H])(n4c5c([H])c([H])c([H])c([H])c5c5c6c(c7c8c([H])c([H])c([H])c([H])c8n3c7c54)C(=O)N([H])C6([H])[H])[C@]2([H])OC([H])([H])[H])c([H])c1[H]


 44 52  0  0  0  0  0  0  0  0999 V2000
   38.0581  -23.3196   36.6328 C   0  0  0  0  0  0  0  0  0  0  0  0
   37.3246  -23.4391   37.9697 C   0  0  0  0  0  0  0  0  0  0  0  0
   37.9212  -22.4291   38.8825 C   0  0  0  0  0  0  0  0  0  0  0  0
   39.3535  -22.9131   39.1076 C   0  0  0  0  0  0  0  0  0  0  0  0
   39.7050  -23.9441   38.3218 O   0  0  0  0  0  0  0  0  0  0  0  0
   39.4697  -23.8599   36.9523 C   0  0  0  0  0  0  0  0  0  0  0  0
   39.4499  -25.3210   36.5344 C   0  0  0  0  0  0  0  0  0  0  0  0
   40.5168  -23.0885   36.3242 N   0  0  0  0  0  0  0  0  0  0  0  0
   41.0025  -23.2362   35.0601 C   0  0  0  0  0  0  0  0  0  0  0  0
   40.6807  -24.0897   34.0253 C   0  0  0  0  0  0  0  0  0  0  0  0
   41.3503  -24.0158   32.8126 C   0  0  0  0  0  0  0  0  0  0  0  0
   42.3522  -23.0990   32.5883 C   0  0  0  0  0  0  0  0  0  0  0  0
   42.6949  -22.2212   33.6242 C   0  0  0  0  0  0  0  0  0  0  0  0
   42.0163  -22.3151   34.8169 C   0  0  0  0  0  0  0  0  0  0  0  0
   42.1595  -21.5806   35.9510 C   0  0  0  0  0  0  0  0  0  0  0  0
   42.9674  -20.5227   36.3376 C   0  0  0  0  0  0  0  0  0  0  0  0
   44.0079  -19.8661   35.5020 C   0  0  0  0  0  0  0  0  0  0  0  0
   44.5329  -18.8610   36.3798 N   0  0  0  0  0  0  0  0  0  0  0  0
   43.8552  -18.8876   37.6579 C   0  0  0  0  0  0  0  0  0  0  0  0
   44.1346  -18.0989   38.5864 O   0  0  0  0  0  0  0  0  0  0  0  0
   42.8825  -19.9437   37.5883 C   0  0  0  0  0  0  0  0  0  0  0  0
   41.9487  -20.4449   38.4921 C   0  0  0  0  0  0  0  0  0  0  0  0
   41.6094  -20.1255   39.7659 C   0  0  0  0  0  0  0  0  0  0  0  0
   42.0355  -19.1888   40.6769 C   0  0  0  0  0  0  0  0  0  0  0  0
   41.4194  -19.1753   41.9262 C   0  0  0  0  0  0  0  0  0  0  0  0
   40.4201  -20.0475   42.2751 C   0  0  0  0  0  0  0  0  0  0  0  0
   39.9985  -20.9771   41.3682 C   0  0  0  0  0  0  0  0  0  0  0  0
   40.5993  -21.0090   40.1148 C   0  0  0  0  0  0  0  0  0  0  0  0
   40.3189  -21.8357   39.1205 N   0  0  0  0  0  0  0  0  0  0  0  0
   41.1323  -21.5122   38.1066 C   0  0  0  0  0  0  0  0  0  0  0  0
   41.2567  -22.0528   36.8471 C   0  0  0  0  0  0  0  0  0  0  0  0
   45.3067  -18.1850   36.1451 H   0  0  0  0  0  0  0  0  0  0  0  0
   35.9036  -23.5267   37.9031 N   0  0  0  0  0  0  0  0  0  0  0  0
   35.3364  -24.8363   38.1413 C   0  0  0  0  0  0  0  0  0  0  0  0
   35.1084  -22.3998   37.6742 C   0  0  0  0  0  0  0  0  0  0  0  0
   35.7335  -21.2411   37.6329 O   0  0  0  0  0  0  0  0  0  0  0  0
   33.6774  -22.2738   37.4706 C   0  0  0  0  0  0  0  0  0  0  0  0
   33.2312  -22.3363   36.1525 C   0  0  0  0  0  0  0  0  0  0  0  0
   31.9060  -22.2704   35.8382 C   0  0  0  0  0  0  0  0  0  0  0  0
   31.0088  -22.1385   36.8783 C   0  0  0  0  0  0  0  0  0  0  0  0
   31.3989  -22.0771   38.1388 N   0  0  0  0  0  0  0  0  0  0  0  0
   32.7217  -22.1443   38.4389 C   0  0  0  0  0  0  0  0  0  0  0  0
   37.9576  -21.8054   34.8743 C   0  0  0  0  0  0  0  0  0  0  0  0
   38.1719  -22.0203   36.2428 O   0  0  0  0  0  0  0  0  0  0  0  0
 43 44  1  0  0  0
 44  1  1  0  0  0
  1  2  1  0  0  0
  2  3  1  0  0  0
  3  4  1  0  0  0
  4  5  1  0  0  0
  5  6  1  0  0  0
  6  7  1  0  0  0
  6  8  1  0  0  0
  8  9  1  0  0  0
  9 10  2  0  0  0
 10 11  1  0  0  0
 11 12  2  0  0  0
 12 13  1  0  0  0
 13 14  2  0  0  0
 14 15  1  0  0  0
 15 16  2  0  0  0
 16 17  1  0  0  0
 17 18  1  0  0  0
 18 19  1  0  0  0
 19 20  2  0  0  0
 19 21  1  0  0  0
 21 22  2  0  0  0
 22 23  1  0  0  0
 23 24  2  0  0  0
 24 25  1  0  0  0
 25 26  2  0  0  0
 26 27  1  0  0  0
 27 28  2  0  0  0
 28 29  1  0  0  0
 29 30  1  0  0  0
 30 31  2  0  0  0
  2 33  1  0  0  0
 33 34  1  0  0  0
 33 35  1  0  0  0
 35 36  2  0  0  0
 35 37  1  0  0  0
 37 38  2  0  0  0
 38 39  1  0  0  0
 39 40  2  0  0  0
 40 41  1  0  0  0
 41 42  2  0  0  0
  6  1  1  0  0  0
 31  8  1  0  0  0
 42 37  1  0  0  0
 29  4  1  0  0  0
 14  9  1  0  0  0
 31 15  1  0  0  0
 21 16  1  0  0  0
 30 22  1  0  0  0
 28 23  1  0  0  0
 18 32  1  0  0  0
M  END
> <minimizedAffinity>
-4.48329

> <CNNscore>
0.3656751215

> <CNNaffinity>
6.0147409439

> <CNN_VS>
2.1994411945

> <CNNaffinity_variance>
0.1982015669

$$$$
[H]c1nc([H])c(C(=O)N(C([H])([H])[H])[C@]2([H])C([H])([H])[C@@]3([H])O[C@](C([H])([H])[H])(n4c5c([H])c([H])c([H])c([H])c5c5c6c(c7c8c([H])c([H])c([H])c([H])c8n3c7c54)C(=O)N([H])C6([H])[H])[C@]2([H])OC([H])([H])[H])c([H])c1[H]


 44 52  0  0  0  0  0  0  0  0999 V2000
   33.9569  -22.8193   38.2030 C   0  0  0  0  0  0  0  0  0  0  0  0
   33.7360  -23.6033   36.9084 C   0  0  0  0  0  0  0  0  0  0  0  0
   34.9980  -24.3357   36.6252 C   0  0  0  0  0  0  0  0  0  0  0  0
   36.0188  -23.2392   36.3215 C   0  0  0  0  0  0  0  0  0  0  0  0
   35.5658  -21.9979   36.5625 O   0  0  0  0  0  0  0  0  0  0  0  0
   34.9650  -21.7247   37.7882 C   0  0  0  0  0  0  0  0  0  0  0  0
   34.1257  -20.4973   37.4735 C   0  0  0  0  0  0  0  0  0  0  0  0
   35.9809  -21.4950   38.7887 N   0  0  0  0  0  0  0  0  0  0  0  0
   35.8968  -20.6759   39.8739 C   0  0  0  0  0  0  0  0  0  0  0  0
   34.8938  -19.8634   40.3605 C   0  0  0  0  0  0  0  0  0  0  0  0
   35.0814  -19.1240   41.5192 C   0  0  0  0  0  0  0  0  0  0  0  0
   36.2605  -19.1672   42.2281 C   0  0  0  0  0  0  0  0  0  0  0  0
   37.2924  -19.9865   41.7537 C   0  0  0  0  0  0  0  0  0  0  0  0
   37.0815  -20.7091   40.6025 C   0  0  0  0  0  0  0  0  0  0  0  0
   37.9146  -21.5675   39.9580 C   0  0  0  0  0  0  0  0  0  0  0  0
   39.2004  -22.0357   40.1783 C   0  0  0  0  0  0  0  0  0  0  0  0
   40.0892  -21.6524   41.3075 C   0  0  0  0  0  0  0  0  0  0  0  0
   41.2788  -22.4096   41.0470 N   0  0  0  0  0  0  0  0  0  0  0  0
   41.1281  -23.2115   39.8520 C   0  0  0  0  0  0  0  0  0  0  0  0
   42.0312  -23.9630   39.4253 O   0  0  0  0  0  0  0  0  0  0  0  0
   39.8115  -22.9466   39.3395 C   0  0  0  0  0  0  0  0  0  0  0  0
   39.1056  -23.4093   38.2316 C   0  0  0  0  0  0  0  0  0  0  0  0
   39.3935  -24.2775   37.2301 C   0  0  0  0  0  0  0  0  0  0  0  0
   40.4807  -25.0509   36.9000 C   0  0  0  0  0  0  0  0  0  0  0  0
   40.3900  -25.8380   35.7543 C   0  0  0  0  0  0  0  0  0  0  0  0
   39.2747  -25.8696   34.9567 C   0  0  0  0  0  0  0  0  0  0  0  0
   38.1959  -25.1004   35.2868 C   0  0  0  0  0  0  0  0  0  0  0  0
   38.2640  -24.3066   36.4263 C   0  0  0  0  0  0  0  0  0  0  0  0
   37.3208  -23.5048   36.8932 N   0  0  0  0  0  0  0  0  0  0  0  0
   37.8086  -22.9393   38.0052 C   0  0  0  0  0  0  0  0  0  0  0  0
   37.2451  -22.0317   38.8729 C   0  0  0  0  0  0  0  0  0  0  0  0
   42.1543  -22.3979   41.6337 H   0  0  0  0  0  0  0  0  0  0  0  0
   32.5077  -24.3193   36.8070 N   0  0  0  0  0  0  0  0  0  0  0  0
   32.4339  -25.5610   37.5461 C   0  0  0  0  0  0  0  0  0  0  0  0
   31.4242  -23.8190   36.0789 C   0  0  0  0  0  0  0  0  0  0  0  0
   31.5612  -22.6057   35.5850 O   0  0  0  0  0  0  0  0  0  0  0  0
   30.1385  -24.4125   35.7627 C   0  0  0  0  0  0  0  0  0  0  0  0
   29.0274  -23.8553   36.3912 C   0  0  0  0  0  0  0  0  0  0  0  0
   27.7627  -24.3008   36.1438 C   0  0  0  0  0  0  0  0  0  0  0  0
   27.6147  -25.3334   35.2404 C   0  0  0  0  0  0  0  0  0  0  0  0
   28.6474  -25.8832   34.6268 N   0  0  0  0  0  0  0  0  0  0  0  0
   29.9019  -25.4301   34.8815 C   0  0  0  0  0  0  0  0  0  0  0  0
   33.8445  -23.6149   40.3824 C   0  0  0  0  0  0  0  0  0  0  0  0
   34.5332  -23.5953   39.1616 O   0  0  0  0  0  0  0  0  0  0  0  0
 43 44  1  0  0  0
 44  1  1  0  0  0
  1  2  1  0  0  0
  2  3  1  0  0  0
  3  4  1  0  0  0
  4  5  1  0  0  0
  5  6  1  0  0  0
  6  7  1  0  0  0
  6  8  1  0  0  0
  8  9  1  0  0  0
  9 10  2  0  0  0
 10 11  1  0  0  0
 11 12  2  0  0  0
 12 13  1  0  0  0
 13 14  2  0  0  0
 14 15  1  0  0  0
 15 16  2  0  0  0
 16 17  1  0  0  0
 17 18  1  0  0  0
 18 19  1  0  0  0
 19 20  2  0  0  0
 19 21  1  0  0  0
 21 22  2  0  0  0
 22 23  1  0  0  0
 23 24  2  0  0  0
 24 25  1  0  0  0
 25 26  2  0  0  0
 26 27  1  0  0  0
 27 28  2  0  0  0
 28 29  1  0  0  0
 29 30  1  0  0  0
 30 31  2  0  0  0
  2 33  1  0  0  0
 33 34  1  0  0  0
 33 35  1  0  0  0
 35 36  2  0  0  0
 35 37  1  0  0  0
 37 38  2  0  0  0
 38 39  1  0  0  0
 39 40  2  0  0  0
 40 41  1  0  0  0
 41 42  2  0  0  0
  6  1  1  0  0  0
 31  8  1  0  0  0
 42 37  1  0  0  0
 29  4  1  0  0  0
 14  9  1  0  0  0
 31 15  1  0  0  0
 21 16  1  0  0  0
 30 22  1  0  0  0
 28 23  1  0  0  0
 18 32  1  0  0  0
M  END
> <minimizedAffinity>
0.69848

> <CNNscore>
0.3513767719

> <CNNaffinity>
5.8202128410

> <CNN_VS>
2.0450875759

> <CNNaffinity_variance>
0.6483116150

$$$$
[H]c1nc([H])c(C(=O)N(C([H])([H])[H])[C@]2([H])C([H])([H])[C@@]3([H])O[C@](C([H])([H])[H])(n4c5c([H])c([H])c([H])c([H])c5c5c6c(c7c8c([H])c([H])c([H])c([H])c8n3c7c54)C(=O)N([H])C6([H])[H])[C@]2([H])OC([H])([H])[H])c([H])c1[H]


 44 52  0  0  0  0  0  0  0  0999 V2000
   37.4845  -22.6816   37.5064 C   0  0  0  0  0  0  0  0  0  0  0  0
   37.3310  -23.8613   38.4677 C   0  0  0  0  0  0  0  0  0  0  0  0
   38.3966  -23.7244   39.4947 C   0  0  0  0  0  0  0  0  0  0  0  0
   39.7008  -23.9344   38.7255 C   0  0  0  0  0  0  0  0  0  0  0  0
   39.5387  -23.9940   37.3936 O   0  0  0  0  0  0  0  0  0  0  0  0
   38.7981  -23.0009   36.7586 C   0  0  0  0  0  0  0  0  0  0  0  0
   38.3755  -23.6840   35.4683 C   0  0  0  0  0  0  0  0  0  0  0  0
   39.6222  -21.8323   36.5562 N   0  0  0  0  0  0  0  0  0  0  0  0
   39.5369  -20.9314   35.5379 C   0  0  0  0  0  0  0  0  0  0  0  0
   38.6969  -20.8231   34.4491 C   0  0  0  0  0  0  0  0  0  0  0  0
   38.8344  -19.7753   33.5506 C   0  0  0  0  0  0  0  0  0  0  0  0
   39.8012  -18.8074   33.7024 C   0  0  0  0  0  0  0  0  0  0  0  0
   40.6645  -18.8961   34.8015 C   0  0  0  0  0  0  0  0  0  0  0  0
   40.5078  -19.9448   35.6776 C   0  0  0  0  0  0  0  0  0  0  0  0
   41.2061  -20.2383   36.8055 C   0  0  0  0  0  0  0  0  0  0  0  0
   42.2625  -19.6514   37.4844 C   0  0  0  0  0  0  0  0  0  0  0  0
   42.9798  -18.4121   37.0822 C   0  0  0  0  0  0  0  0  0  0  0  0
   43.9661  -18.2671   38.1130 N   0  0  0  0  0  0  0  0  0  0  0  0
   43.8550  -19.3318   39.0864 C   0  0  0  0  0  0  0  0  0  0  0  0
   44.6040  -19.4154   40.0836 O   0  0  0  0  0  0  0  0  0  0  0  0
   42.7754  -20.1766   38.6539 C   0  0  0  0  0  0  0  0  0  0  0  0
   42.2070  -21.3401   39.1668 C   0  0  0  0  0  0  0  0  0  0  0  0
   42.4566  -22.1048   40.2589 C   0  0  0  0  0  0  0  0  0  0  0  0
   43.3555  -22.0485   41.2971 C   0  0  0  0  0  0  0  0  0  0  0  0
   43.2952  -23.0538   42.2595 C   0  0  0  0  0  0  0  0  0  0  0  0
   42.3872  -24.0806   42.2104 C   0  0  0  0  0  0  0  0  0  0  0  0
   41.4951  -24.1342   41.1781 C   0  0  0  0  0  0  0  0  0  0  0  0
   41.5370  -23.1412   40.2058 C   0  0  0  0  0  0  0  0  0  0  0  0
   40.7548  -23.0361   39.1439 N   0  0  0  0  0  0  0  0  0  0  0  0
   41.1418  -21.9358   38.4851 C   0  0  0  0  0  0  0  0  0  0  0  0
   40.6674  -21.3710   37.3231 C   0  0  0  0  0  0  0  0  0  0  0  0
   44.6833  -17.4970   38.1718 H   0  0  0  0  0  0  0  0  0  0  0  0
   36.0061  -24.1457   38.9096 N   0  0  0  0  0  0  0  0  0  0  0  0
   35.2757  -25.1265   38.1363 C   0  0  0  0  0  0  0  0  0  0  0  0
   35.4700  -23.5488   40.0545 C   0  0  0  0  0  0  0  0  0  0  0  0
   36.2892  -22.7971   40.7608 O   0  0  0  0  0  0  0  0  0  0  0  0
   34.1360  -23.6124   40.6215 C   0  0  0  0  0  0  0  0  0  0  0  0
   33.8790  -24.6761   41.4833 C   0  0  0  0  0  0  0  0  0  0  0  0
   32.6760  -24.8204   42.1087 C   0  0  0  0  0  0  0  0  0  0  0  0
   31.7084  -23.8686   41.8593 C   0  0  0  0  0  0  0  0  0  0  0  0
   31.9202  -22.8476   41.0483 N   0  0  0  0  0  0  0  0  0  0  0  0
   33.1229  -22.7149   40.4318 C   0  0  0  0  0  0  0  0  0  0  0  0
   36.7404  -20.5032   37.8164 C   0  0  0  0  0  0  0  0  0  0  0  0
   37.6459  -21.5095   38.1799 O   0  0  0  0  0  0  0  0  0  0  0  0
 43 44  1  0  0  0
 44  1  1  0  0  0
  1  2  1  0  0  0
  2  3  1  0  0  0
  3  4  1  0  0  0
  4  5  1  0  0  0
  5  6  1  0  0  0
  6  7  1  0  0  0
  6  8  1  0  0  0
  8  9  1  0  0  0
  9 10  2  0  0  0
 10 11  1  0  0  0
 11 12  2  0  0  0
 12 13  1  0  0  0
 13 14  2  0  0  0
 14 15  1  0  0  0
 15 16  2  0  0  0
 16 17  1  0  0  0
 17 18  1  0  0  0
 18 19  1  0  0  0
 19 20  2  0  0  0
 19 21  1  0  0  0
 21 22  2  0  0  0
 22 23  1  0  0  0
 23 24  2  0  0  0
 24 25  1  0  0  0
 25 26  2  0  0  0
 26 27  1  0  0  0
 27 28  2  0  0  0
 28 29  1  0  0  0
 29 30  1  0  0  0
 30 31  2  0  0  0
  2 33  1  0  0  0
 33 34  1  0  0  0
 33 35  1  0  0  0
 35 36  2  0  0  0
 35 37  1  0  0  0
 37 38  2  0  0  0
 38 39  1  0  0  0
 39 40  2  0  0  0
 40 41  1  0  0  0
 41 42  2  0  0  0
  6  1  1  0  0  0
 31  8  1  0  0  0
 42 37  1  0  0  0
 29  4  1  0  0  0
 14  9  1  0  0  0
 31 15  1  0  0  0
 21 16  1  0  0  0
 30 22  1  0  0  0
 28 23  1  0  0  0
 18 32  1  0  0  0
M  END
> <minimizedAffinity>
-4.63034

> <CNNscore>
0.3347045183

> <CNNaffinity>
5.8166728020

> <CNN_VS>
1.9468666315

> <CNNaffinity_variance>
0.2141757458

$$$$
[H]c1nc([H])c(C(=O)N(C([H])([H])[H])[C@]2([H])C([H])([H])[C@@]3([H])O[C@](C([H])([H])[H])(n4c5c([H])c([H])c([H])c([H])c5c5c6c(c7c8c([H])c([H])c([H])c([H])c8n3c7c54)C(=O)N([H])C6([H])[H])[C@]2([H])OC([H])([H])[H])c([H])c1[H]


 44 52  0  0  0  0  0  0  0  0999 V2000
   35.5308  -22.4806   38.8729 C   0  0  0  0  0  0  0  0  0  0  0  0
   36.2655  -21.9317   37.6488 C   0  0  0  0  0  0  0  0  0  0  0  0
   35.2731  -21.1553   36.8605 C   0  0  0  0  0  0  0  0  0  0  0  0
   34.2775  -22.2013   36.3592 C   0  0  0  0  0  0  0  0  0  0  0  0
   34.4616  -23.4208   36.8911 O   0  0  0  0  0  0  0  0  0  0  0  0
   34.5839  -23.5432   38.2725 C   0  0  0  0  0  0  0  0  0  0  0  0
   35.3145  -24.8679   38.4189 C   0  0  0  0  0  0  0  0  0  0  0  0
   33.2742  -23.5299   38.8809 N   0  0  0  0  0  0  0  0  0  0  0  0
   32.8892  -24.1708   40.0197 C   0  0  0  0  0  0  0  0  0  0  0  0
   33.5620  -24.9731   40.9177 C   0  0  0  0  0  0  0  0  0  0  0  0
   32.9090  -25.5022   42.0214 C   0  0  0  0  0  0  0  0  0  0  0  0
   31.5780  -25.2535   42.2689 C   0  0  0  0  0  0  0  0  0  0  0  0
   30.8751  -24.4402   41.3714 C   0  0  0  0  0  0  0  0  0  0  0  0
   31.5452  -23.9282   40.2848 C   0  0  0  0  0  0  0  0  0  0  0  0
   31.0894  -23.1193   39.2929 C   0  0  0  0  0  0  0  0  0  0  0  0
   29.8745  -22.5211   38.9970 C   0  0  0  0  0  0  0  0  0  0  0  0
   28.6214  -22.6486   39.7879 C   0  0  0  0  0  0  0  0  0  0  0  0
   27.6924  -21.8499   39.0425 N   0  0  0  0  0  0  0  0  0  0  0  0
   28.3309  -21.2621   37.8848 C   0  0  0  0  0  0  0  0  0  0  0  0
   27.7240  -20.5182   37.0844 O   0  0  0  0  0  0  0  0  0  0  0  0
   29.6971  -21.7089   37.8945 C   0  0  0  0  0  0  0  0  0  0  0  0
   30.7825  -21.4853   37.0507 C   0  0  0  0  0  0  0  0  0  0  0  0
   30.9554  -20.7666   35.9135 C   0  0  0  0  0  0  0  0  0  0  0  0
   30.1472  -19.9712   35.1368 C   0  0  0  0  0  0  0  0  0  0  0  0
   30.7115  -19.3853   34.0060 C   0  0  0  0  0  0  0  0  0  0  0  0
   32.0217  -19.5695   33.6448 C   0  0  0  0  0  0  0  0  0  0  0  0
   32.8226  -20.3601   34.4181 C   0  0  0  0  0  0  0  0  0  0  0  0
   32.2806  -20.9553   35.5517 C   0  0  0  0  0  0  0  0  0  0  0  0
   32.9054  -21.7455   36.4095 N   0  0  0  0  0  0  0  0  0  0  0  0
   32.0095  -22.0871   37.3450 C   0  0  0  0  0  0  0  0  0  0  0  0
   32.1332  -22.8877   38.4575 C   0  0  0  0  0  0  0  0  0  0  0  0
   26.6786  -21.6988   39.2878 H   0  0  0  0  0  0  0  0  0  0  0  0
   37.5398  -21.3410   37.8912 N   0  0  0  0  0  0  0  0  0  0  0  0
   37.7752  -20.0592   37.2627 C   0  0  0  0  0  0  0  0  0  0  0  0
   38.4809  -21.9441   38.7309 C   0  0  0  0  0  0  0  0  0  0  0  0
   38.0869  -23.0268   39.3691 O   0  0  0  0  0  0  0  0  0  0  0  0
   39.8519  -21.5797   39.0357 C   0  0  0  0  0  0  0  0  0  0  0  0
   40.8057  -22.5853   38.8975 C   0  0  0  0  0  0  0  0  0  0  0  0
   42.1314  -22.3538   39.1164 C   0  0  0  0  0  0  0  0  0  0  0  0
   42.5046  -21.0770   39.4836 C   0  0  0  0  0  0  0  0  0  0  0  0
   41.6254  -20.1010   39.6226 N   0  0  0  0  0  0  0  0  0  0  0  0
   40.3079  -20.3443   39.4011 C   0  0  0  0  0  0  0  0  0  0  0  0
   35.2763  -20.2175   39.3304 C   0  0  0  0  0  0  0  0  0  0  0  0
   34.7755  -21.5191   39.4716 O   0  0  0  0  0  0  0  0  0  0  0  0
 43 44  1  0  0  0
 44  1  1  0  0  0
  1  2  1  0  0  0
  2  3  1  0  0  0
  3  4  1  0  0  0
  4  5  1  0  0  0
  5  6  1  0  0  0
  6  7  1  0  0  0
  6  8  1  0  0  0
  8  9  1  0  0  0
  9 10  2  0  0  0
 10 11  1  0  0  0
 11 12  2  0  0  0
 12 13  1  0  0  0
 13 14  2  0  0  0
 14 15  1  0  0  0
 15 16  2  0  0  0
 16 17  1  0  0  0
 17 18  1  0  0  0
 18 19  1  0  0  0
 19 20  2  0  0  0
 19 21  1  0  0  0
 21 22  2  0  0  0
 22 23  1  0  0  0
 23 24  2  0  0  0
 24 25  1  0  0  0
 25 26  2  0  0  0
 26 27  1  0  0  0
 27 28  2  0  0  0
 28 29  1  0  0  0
 29 30  1  0  0  0
 30 31  2  0  0  0
  2 33  1  0  0  0
 33 34  1  0  0  0
 33 35  1  0  0  0
 35 36  2  0  0  0
 35 37  1  0  0  0
 37 38  2  0  0  0
 38 39  1  0  0  0
 39 40  2  0  0  0
 40 41  1  0  0  0
 41 42  2  0  0  0
  6  1  1  0  0  0
 31  8  1  0  0  0
 42 37  1  0  0  0
 29  4  1  0  0  0
 14  9  1  0  0  0
 31 15  1  0  0  0
 21 16  1  0  0  0
 30 22  1  0  0  0
 28 23  1  0  0  0
 18 32  1  0  0  0
M  END
> <minimizedAffinity>
-3.28866

> <CNNscore>
0.3308500350

> <CNNaffinity>
5.5859780312

> <CNN_VS>
1.8481210470

> <CNNaffinity_variance>
0.0758939981

$$$$
[H]c1nc([H])c(C(=O)N(C([H])([H])[H])[C@]2([H])C([H])([H])[C@@]3([H])O[C@](C([H])([H])[H])(n4c5c([H])c([H])c([H])c([H])c5c5c6c(c7c8c([H])c([H])c([H])c([H])c8n3c7c54)C(=O)N([H])C6([H])[H])[C@]2([H])OC([H])([H])[H])c([H])c1[H]


 44 52  0  0  0  0  0  0  0  0999 V2000
   37.4253  -21.0589   38.5099 C   0  0  0  0  0  0  0  0  0  0  0  0
   37.5045  -19.6897   37.8328 C   0  0  0  0  0  0  0  0  0  0  0  0
   38.7018  -19.7107   36.9524 C   0  0  0  0  0  0  0  0  0  0  0  0
   39.8850  -19.8084   37.9151 C   0  0  0  0  0  0  0  0  0  0  0  0
   39.5264  -20.0220   39.1918 O   0  0  0  0  0  0  0  0  0  0  0  0
   38.6288  -21.0468   39.4783 C   0  0  0  0  0  0  0  0  0  0  0  0
   38.0642  -20.6192   40.8231 C   0  0  0  0  0  0  0  0  0  0  0  0
   39.3272  -22.3104   39.5150 N   0  0  0  0  0  0  0  0  0  0  0  0
   39.0237  -23.3966   40.2791 C   0  0  0  0  0  0  0  0  0  0  0  0
   38.0220  -23.6503   41.1929 C   0  0  0  0  0  0  0  0  0  0  0  0
   37.9459  -24.8763   41.8375 C   0  0  0  0  0  0  0  0  0  0  0  0
   38.8533  -25.8832   41.5975 C   0  0  0  0  0  0  0  0  0  0  0  0
   39.8781  -25.6486   40.6725 C   0  0  0  0  0  0  0  0  0  0  0  0
   39.9319  -24.4247   40.0472 C   0  0  0  0  0  0  0  0  0  0  0  0
   40.8131  -23.9679   39.1194 C   0  0  0  0  0  0  0  0  0  0  0  0
   41.9161  -24.5002   38.4703 C   0  0  0  0  0  0  0  0  0  0  0  0
   42.4737  -25.8646   38.6692 C   0  0  0  0  0  0  0  0  0  0  0  0
   43.5928  -25.8844   37.7728 N   0  0  0  0  0  0  0  0  0  0  0  0
   43.7074  -24.6286   37.0633 C   0  0  0  0  0  0  0  0  0  0  0  0
   44.6037  -24.4092   36.2201 O   0  0  0  0  0  0  0  0  0  0  0  0
   42.6374  -23.7903   37.5309 C   0  0  0  0  0  0  0  0  0  0  0  0
   42.2381  -22.4909   37.2275 C   0  0  0  0  0  0  0  0  0  0  0  0
   42.7050  -21.5381   36.3827 C   0  0  0  0  0  0  0  0  0  0  0  0
   43.7454  -21.4611   35.4878 C   0  0  0  0  0  0  0  0  0  0  0  0
   43.9042  -20.2706   34.7821 C   0  0  0  0  0  0  0  0  0  0  0  0
   43.0748  -19.1904   34.9443 C   0  0  0  0  0  0  0  0  0  0  0  0
   42.0419  -19.2694   35.8338 C   0  0  0  0  0  0  0  0  0  0  0  0
   41.8643  -20.4481   36.5495 C   0  0  0  0  0  0  0  0  0  0  0  0
   40.9239  -20.6990   37.4457 N   0  0  0  0  0  0  0  0  0  0  0  0
   41.1265  -21.9498   37.8801 C   0  0  0  0  0  0  0  0  0  0  0  0
   40.4416  -22.7005   38.8083 C   0  0  0  0  0  0  0  0  0  0  0  0
   44.2539  -26.6936   37.6347 H   0  0  0  0  0  0  0  0  0  0  0  0
   36.2861  -19.1808   37.2962 N   0  0  0  0  0  0  0  0  0  0  0  0
   35.7351  -18.0201   37.9616 C   0  0  0  0  0  0  0  0  0  0  0  0
   35.6928  -19.7416   36.1613 C   0  0  0  0  0  0  0  0  0  0  0  0
   36.3739  -20.6911   35.5535 O   0  0  0  0  0  0  0  0  0  0  0  0
   34.4264  -19.4558   35.5133 C   0  0  0  0  0  0  0  0  0  0  0  0
   33.2936  -20.0279   36.0874 C   0  0  0  0  0  0  0  0  0  0  0  0
   32.0436  -19.7999   35.5927 C   0  0  0  0  0  0  0  0  0  0  0  0
   31.9331  -18.9747   34.4922 C   0  0  0  0  0  0  0  0  0  0  0  0
   32.9871  -18.4160   33.9246 N   0  0  0  0  0  0  0  0  0  0  0  0
   34.2267  -18.6506   34.4273 C   0  0  0  0  0  0  0  0  0  0  0  0
   36.7020  -23.1320   37.7518 C   0  0  0  0  0  0  0  0  0  0  0  0
   37.6036  -22.0677   37.6132 O   0  0  0  0  0  0  0  0  0  0  0  0
 43 44  1  0  0  0
 44  1  1  0  0  0
  1  2  1  0  0  0
  2  3  1  0  0  0
  3  4  1  0  0  0
  4  5  1  0  0  0
  5  6  1  0  0  0
  6  7  1  0  0  0
  6  8  1  0  0  0
  8  9  1  0  0  0
  9 10  2  0  0  0
 10 11  1  0  0  0
 11 12  2  0  0  0
 12 13  1  0  0  0
 13 14  2  0  0  0
 14 15  1  0  0  0
 15 16  2  0  0  0
 16 17  1  0  0  0
 17 18  1  0  0  0
 18 19  1  0  0  0
 19 20  2  0  0  0
 19 21  1  0  0  0
 21 22  2  0  0  0
 22 23  1  0  0  0
 23 24  2  0  0  0
 24 25  1  0  0  0
 25 26  2  0  0  0
 26 27  1  0  0  0
 27 28  2  0  0  0
 28 29  1  0  0  0
 29 30  1  0  0  0
 30 31  2  0  0  0
  2 33  1  0  0  0
 33 34  1  0  0  0
 33 35  1  0  0  0
 35 36  2  0  0  0
 35 37  1  0  0  0
 37 38  2  0  0  0
 38 39  1  0  0  0
 39 40  2  0  0  0
 40 41  1  0  0  0
 41 42  2  0  0  0
  6  1  1  0  0  0
 31  8  1  0  0  0
 42 37  1  0  0  0
 29  4  1  0  0  0
 14  9  1  0  0  0
 31 15  1  0  0  0
 21 16  1  0  0  0
 30 22  1  0  0  0
 28 23  1  0  0  0
 18 32  1  0  0  0
M  END
> <minimizedAffinity>
-1.52372

> <CNNscore>
0.3209518790

> <CNNaffinity>
5.9492707253

> <CNN_VS>
1.9094296694

> <CNNaffinity_variance>
0.5381101370

$$$$
[H]c1nc([H])c(C(=O)N(C([H])([H])[H])[C@]2([H])C([H])([H])[C@@]3([H])O[C@](C([H])([H])[H])(n4c5c([H])c([H])c([H])c([H])c5c5c6c(c7c8c([H])c([H])c([H])c([H])c8n3c7c54)C(=O)N([H])C6([H])[H])[C@]2([H])OC([H])([H])[H])c([H])c1[H]


 44 52  0  0  0  0  0  0  0  0999 V2000
   36.1559  -18.9804   36.9770 C   0  0  0  0  0  0  0  0  0  0  0  0
   36.8062  -17.5989   36.8885 C   0  0  0  0  0  0  0  0  0  0  0  0
   38.1311  -17.7847   36.2412 C   0  0  0  0  0  0  0  0  0  0  0  0
   38.9398  -18.6016   37.2488 C   0  0  0  0  0  0  0  0  0  0  0  0
   38.2143  -19.0515   38.2857 O   0  0  0  0  0  0  0  0  0  0  0  0
   37.0139  -19.7101   38.0343 C   0  0  0  0  0  0  0  0  0  0  0  0
   36.2687  -19.5427   39.3484 C   0  0  0  0  0  0  0  0  0  0  0  0
   37.2769  -21.0866   37.6850 N   0  0  0  0  0  0  0  0  0  0  0  0
   36.4804  -22.1643   37.9295 C   0  0  0  0  0  0  0  0  0  0  0  0
   35.2462  -22.3016   38.5301 C   0  0  0  0  0  0  0  0  0  0  0  0
   34.6492  -23.5486   38.6438 C   0  0  0  0  0  0  0  0  0  0  0  0
   35.2518  -24.6910   38.1679 C   0  0  0  0  0  0  0  0  0  0  0  0
   36.5046  -24.5755   37.5529 C   0  0  0  0  0  0  0  0  0  0  0  0
   37.0754  -23.3281   37.4530 C   0  0  0  0  0  0  0  0  0  0  0  0
   38.2619  -22.9641   36.8999 C   0  0  0  0  0  0  0  0  0  0  0  0
   39.2901  -23.6355   36.2571 C   0  0  0  0  0  0  0  0  0  0  0  0
   39.3518  -25.0988   35.9984 C   0  0  0  0  0  0  0  0  0  0  0  0
   40.6093  -25.2501   35.3261 N   0  0  0  0  0  0  0  0  0  0  0  0
   41.2675  -23.9710   35.1698 C   0  0  0  0  0  0  0  0  0  0  0  0
   42.3762  -23.8470   34.6061 O   0  0  0  0  0  0  0  0  0  0  0  0
   40.4065  -22.9871   35.7673 C   0  0  0  0  0  0  0  0  0  0  0  0
   40.4987  -21.6066   35.9277 C   0  0  0  0  0  0  0  0  0  0  0  0
   41.4276  -20.6809   35.5815 C   0  0  0  0  0  0  0  0  0  0  0  0
   42.6407  -20.7188   34.9364 C   0  0  0  0  0  0  0  0  0  0  0  0
   43.3194  -19.5145   34.7649 C   0  0  0  0  0  0  0  0  0  0  0  0
   42.8302  -18.3123   35.2083 C   0  0  0  0  0  0  0  0  0  0  0  0
   41.6248  -18.2773   35.8487 C   0  0  0  0  0  0  0  0  0  0  0  0
   40.9297  -19.4675   36.0312 C   0  0  0  0  0  0  0  0  0  0  0  0
   39.7573  -19.6194   36.6253 N   0  0  0  0  0  0  0  0  0  0  0  0
   39.4642  -20.9255   36.5760 C   0  0  0  0  0  0  0  0  0  0  0  0
   38.3723  -21.6195   37.0450 C   0  0  0  0  0  0  0  0  0  0  0  0
   41.0167  -26.1601   34.9843 H   0  0  0  0  0  0  0  0  0  0  0  0
   35.9743  -16.5397   36.4218 N   0  0  0  0  0  0  0  0  0  0  0  0
   35.7151  -16.5160   34.9985 C   0  0  0  0  0  0  0  0  0  0  0  0
   35.4024  -15.6141   37.2997 C   0  0  0  0  0  0  0  0  0  0  0  0
   35.5836  -15.8373   38.5851 O   0  0  0  0  0  0  0  0  0  0  0  0
   34.6210  -14.4191   37.0416 C   0  0  0  0  0  0  0  0  0  0  0  0
   34.6464  -13.4368   38.0288 C   0  0  0  0  0  0  0  0  0  0  0  0
   33.9847  -12.2536   37.8831 C   0  0  0  0  0  0  0  0  0  0  0  0
   33.2802  -12.0558   36.7131 C   0  0  0  0  0  0  0  0  0  0  0  0
   33.2364  -12.9665   35.7572 N   0  0  0  0  0  0  0  0  0  0  0  0
   33.9002  -14.1407   35.9143 C   0  0  0  0  0  0  0  0  0  0  0  0
   35.5428  -19.0806   34.7388 C   0  0  0  0  0  0  0  0  0  0  0  0
   36.2587  -19.6544   35.7986 O   0  0  0  0  0  0  0  0  0  0  0  0
 43 44  1  0  0  0
 44  1  1  0  0  0
  1  2  1  0  0  0
  2  3  1  0  0  0
  3  4  1  0  0  0
  4  5  1  0  0  0
  5  6  1  0  0  0
  6  7  1  0  0  0
  6  8  1  0  0  0
  8  9  1  0  0  0
  9 10  2  0  0  0
 10 11  1  0  0  0
 11 12  2  0  0  0
 12 13  1  0  0  0
 13 14  2  0  0  0
 14 15  1  0  0  0
 15 16  2  0  0  0
 16 17  1  0  0  0
 17 18  1  0  0  0
 18 19  1  0  0  0
 19 20  2  0  0  0
 19 21  1  0  0  0
 21 22  2  0  0  0
 22 23  1  0  0  0
 23 24  2  0  0  0
 24 25  1  0  0  0
 25 26  2  0  0  0
 26 27  1  0  0  0
 27 28  2  0  0  0
 28 29  1  0  0  0
 29 30  1  0  0  0
 30 31  2  0  0  0
  2 33  1  0  0  0
 33 34  1  0  0  0
 33 35  1  0  0  0
 35 36  2  0  0  0
 35 37  1  0  0  0
 37 38  2  0  0  0
 38 39  1  0  0  0
 39 40  2  0  0  0
 40 41  1  0  0  0
 41 42  2  0  0  0
  6  1  1  0  0  0
 31  8  1  0  0  0
 42 37  1  0  0  0
 29  4  1  0  0  0
 14  9  1  0  0  0
 31 15  1  0  0  0
 21 16  1  0  0  0
 30 22  1  0  0  0
 28 23  1  0  0  0
 18 32  1  0  0  0
M  END
> <minimizedAffinity>
-0.44819

> <CNNscore>
0.3015307486

> <CNNaffinity>
6.2403907776

> <CNN_VS>
1.8816697598

> <CNNaffinity_variance>
0.7844080329

$$$$
[H]c1nc([H])c(C(=O)N(C([H])([H])[H])[C@]2([H])C([H])([H])[C@@]3([H])O[C@](C([H])([H])[H])(n4c5c([H])c([H])c([H])c([H])c5c5c6c(c7c8c([H])c([H])c([H])c([H])c8n3c7c54)C(=O)N([H])C6([H])[H])[C@]2([H])OC([H])([H])[H])c([H])c1[H]


 44 52  0  0  0  0  0  0  0  0999 V2000
   34.3898  -20.8396   37.9188 C   0  0  0  0  0  0  0  0  0  0  0  0
   34.4458  -22.0883   38.8002 C   0  0  0  0  0  0  0  0  0  0  0  0
   35.8440  -22.2103   39.2896 C   0  0  0  0  0  0  0  0  0  0  0  0
   36.6658  -22.5051   38.0349 C   0  0  0  0  0  0  0  0  0  0  0  0
   35.9674  -22.3933   36.8931 O   0  0  0  0  0  0  0  0  0  0  0  0
   35.2104  -21.2457   36.6745 C   0  0  0  0  0  0  0  0  0  0  0  0
   34.1905  -21.7178   35.6512 C   0  0  0  0  0  0  0  0  0  0  0  0
   36.0638  -20.1822   36.1985 N   0  0  0  0  0  0  0  0  0  0  0  0
   35.7232  -19.1698   35.3530 C   0  0  0  0  0  0  0  0  0  0  0  0
   34.5436  -18.8295   34.7241 C   0  0  0  0  0  0  0  0  0  0  0  0
   34.4766  -17.7155   33.9001 C   0  0  0  0  0  0  0  0  0  0  0  0
   35.5688  -16.9083   33.6760 C   0  0  0  0  0  0  0  0  0  0  0  0
   36.7767  -17.2336   34.3053 C   0  0  0  0  0  0  0  0  0  0  0  0
   36.8172  -18.3433   35.1169 C   0  0  0  0  0  0  0  0  0  0  0  0
   37.8545  -18.8515   35.8322 C   0  0  0  0  0  0  0  0  0  0  0  0
   39.1780  -18.4903   36.0306 C   0  0  0  0  0  0  0  0  0  0  0  0
   39.8659  -17.3206   35.4217 C   0  0  0  0  0  0  0  0  0  0  0  0
   41.1957  -17.4245   35.9482 N   0  0  0  0  0  0  0  0  0  0  0  0
   41.3141  -18.5669   36.8281 C   0  0  0  0  0  0  0  0  0  0  0  0
   42.3788  -18.8606   37.4133 O   0  0  0  0  0  0  0  0  0  0  0  0
   40.0269  -19.2066   36.8509 C   0  0  0  0  0  0  0  0  0  0  0  0
   39.5306  -20.3339   37.5011 C   0  0  0  0  0  0  0  0  0  0  0  0
   40.0714  -21.2422   38.3508 C   0  0  0  0  0  0  0  0  0  0  0  0
   41.3109  -21.4227   38.9166 C   0  0  0  0  0  0  0  0  0  0  0  0
   41.4804  -22.5122   39.7679 C   0  0  0  0  0  0  0  0  0  0  0  0
   40.4731  -23.3967   40.0578 C   0  0  0  0  0  0  0  0  0  0  0  0
   39.2426  -23.2153   39.4945 C   0  0  0  0  0  0  0  0  0  0  0  0
   39.0505  -22.1343   38.6414 C   0  0  0  0  0  0  0  0  0  0  0  0
   37.9332  -21.8078   38.0124 N   0  0  0  0  0  0  0  0  0  0  0  0
   38.1966  -20.7023   37.3034 C   0  0  0  0  0  0  0  0  0  0  0  0
   37.3920  -19.9530   36.4756 C   0  0  0  0  0  0  0  0  0  0  0  0
   41.9926  -16.7683   35.7355 H   0  0  0  0  0  0  0  0  0  0  0  0
   33.3890  -22.2411   39.7443 N   0  0  0  0  0  0  0  0  0  0  0  0
   33.7529  -22.0829   41.1357 C   0  0  0  0  0  0  0  0  0  0  0  0
   32.0715  -22.4761   39.3400 C   0  0  0  0  0  0  0  0  0  0  0  0
   31.8420  -22.4397   38.0435 O   0  0  0  0  0  0  0  0  0  0  0  0
   30.8774  -22.7586   40.1143 C   0  0  0  0  0  0  0  0  0  0  0  0
   30.9071  -22.3874   41.4565 C   0  0  0  0  0  0  0  0  0  0  0  0
   29.8315  -22.5647   42.2755 C   0  0  0  0  0  0  0  0  0  0  0  0
   28.6980  -23.1298   41.7276 C   0  0  0  0  0  0  0  0  0  0  0  0
   28.6369  -23.4921   40.4587 N   0  0  0  0  0  0  0  0  0  0  0  0
   29.7149  -23.3097   39.6533 C   0  0  0  0  0  0  0  0  0  0  0  0
   34.1627  -18.9937   39.3103 C   0  0  0  0  0  0  0  0  0  0  0  0
   35.0058  -19.7822   38.5152 O   0  0  0  0  0  0  0  0  0  0  0  0
 43 44  1  0  0  0
 44  1  1  0  0  0
  1  2  1  0  0  0
  2  3  1  0  0  0
  3  4  1  0  0  0
  4  5  1  0  0  0
  5  6  1  0  0  0
  6  7  1  0  0  0
  6  8  1  0  0  0
  8  9  1  0  0  0
  9 10  2  0  0  0
 10 11  1  0  0  0
 11 12  2  0  0  0
 12 13  1  0  0  0
 13 14  2  0  0  0
 14 15  1  0  0  0
 15 16  2  0  0  0
 16 17  1  0  0  0
 17 18  1  0  0  0
 18 19  1  0  0  0
 19 20  2  0  0  0
 19 21  1  0  0  0
 21 22  2  0  0  0
 22 23  1  0  0  0
 23 24  2  0  0  0
 24 25  1  0  0  0
 25 26  2  0  0  0
 26 27  1  0  0  0
 27 28  2  0  0  0
 28 29  1  0  0  0
 29 30  1  0  0  0
 30 31  2  0  0  0
  2 33  1  0  0  0
 33 34  1  0  0  0
 33 35  1  0  0  0
 35 36  2  0  0  0
 35 37  1  0  0  0
 37 38  2  0  0  0
 38 39  1  0  0  0
 39 40  2  0  0  0
 40 41  1  0  0  0
 41 42  2  0  0  0
  6  1  1  0  0  0
 31  8  1  0  0  0
 42 37  1  0  0  0
 29  4  1  0  0  0
 14  9  1  0  0  0
 31 15  1  0  0  0
 21 16  1  0  0  0
 30 22  1  0  0  0
 28 23  1  0  0  0
 18 32  1  0  0  0
M  END
> <minimizedAffinity>
6.49382

> <CNNscore>
0.2863623202

> <CNNaffinity>
5.5972356796

> <CNN_VS>
1.6028374434

> <CNNaffinity_variance>
0.1691227406

$$$$
[H]c1c([H])c([H])c(C2([H])C(C(=O)OC([H])([H])[H])=C(C([H])([H])[H])N([H])C(C([H])([H])[H])=C2C(=O)OC([H])([H])C([H])([H])[H])c([H])c1[H]


 24 25  0  0  0  0  0  0  0  0999 V2000
   42.7899  -18.8059   37.0880 C   0  0  0  0  0  0  0  0  0  0  0  0
   42.7521  -17.6973   36.4194 C   0  0  0  0  0  0  0  0  0  0  0  0
   43.2541  -16.3748   36.9591 C   0  0  0  0  0  0  0  0  0  0  0  0
   42.2419  -17.6525   35.0673 N   0  0  0  0  0  0  0  0  0  0  0  0
   41.7876  -18.8800   34.5278 C   0  0  0  0  0  0  0  0  0  0  0  0
   41.2499  -18.9044   33.1124 C   0  0  0  0  0  0  0  0  0  0  0  0
   41.8024  -20.0066   35.1866 C   0  0  0  0  0  0  0  0  0  0  0  0
   42.2935  -20.0687   36.5675 C   0  0  0  0  0  0  0  0  0  0  0  0
   42.2099  -16.7663   34.5192 H   0  0  0  0  0  0  0  0  0  0  0  0
   41.2253  -20.6689   37.4141 C   0  0  0  0  0  0  0  0  0  0  0  0
   40.0156  -20.0437   37.5620 C   0  0  0  0  0  0  0  0  0  0  0  0
   39.0137  -20.5870   38.3429 C   0  0  0  0  0  0  0  0  0  0  0  0
   39.2238  -21.7965   39.0005 C   0  0  0  0  0  0  0  0  0  0  0  0
   40.4532  -22.4228   38.8448 C   0  0  0  0  0  0  0  0  0  0  0  0
   41.4610  -21.8658   38.0527 C   0  0  0  0  0  0  0  0  0  0  0  0
   43.3669  -18.7472   38.4586 C   0  0  0  0  0  0  0  0  0  0  0  0
   44.5798  -19.1396   38.6487 O   0  0  0  0  0  0  0  0  0  0  0  0
   42.2007  -19.1118   40.5925 C   0  0  0  0  0  0  0  0  0  0  0  0
   42.7375  -18.3098   39.5786 O   0  0  0  0  0  0  0  0  0  0  0  0
   41.3337  -21.2725   34.5368 C   0  0  0  0  0  0  0  0  0  0  0  0
   42.2079  -22.0888   34.1693 O   0  0  0  0  0  0  0  0  0  0  0  0
   40.0369  -21.5718   34.3309 O   0  0  0  0  0  0  0  0  0  0  0  0
   39.5398  -22.8938   34.3031 C   0  0  0  0  0  0  0  0  0  0  0  0
   38.7794  -23.1706   35.5784 C   0  0  0  0  0  0  0  0  0  0  0  0
 18 19  1  0  0  0
 19 16  1  0  0  0
 16 17  2  0  0  0
 16  1  1  0  0  0
  1  2  2  0  0  0
  2  3  1  0  0  0
  2  4  1  0  0  0
  4  5  1  0  0  0
  5  6  1  0  0  0
  5  7  2  0  0  0
  7  8  1  0  0  0
  8 10  1  0  0  0
 10 11  2  0  0  0
 11 12  1  0  0  0
 12 13  2  0  0  0
 13 14  1  0  0  0
 14 15  2  0  0  0
  7 20  1  0  0  0
 20 21  2  0  0  0
 20 22  1  0  0  0
 22 23  1  0  0  0
 23 24  1  0  0  0
  8  1  1  0  0  0
 15 10  1  0  0  0
  4  9  1  0  0  0
M  END
> <minimizedAffinity>
-4.00740

> <CNNscore>
0.5942428112

> <CNNaffinity>
3.9856650829

> <CNN_VS>
2.3684527874

> <CNNaffinity_variance>
0.2096379250

$$$$
[H]c1c([H])c([H])c(C2([H])C(C(=O)OC([H])([H])[H])=C(C([H])([H])[H])N([H])C(C([H])([H])[H])=C2C(=O)OC([H])([H])C([H])([H])[H])c([H])c1[H]


 24 25  0  0  0  0  0  0  0  0999 V2000
   30.6548  -20.8766   36.2288 C   0  0  0  0  0  0  0  0  0  0  0  0
   31.0201  -19.9269   35.4274 C   0  0  0  0  0  0  0  0  0  0  0  0
   30.0575  -19.1474   34.5568 C   0  0  0  0  0  0  0  0  0  0  0  0
   32.4031  -19.5170   35.3296 N   0  0  0  0  0  0  0  0  0  0  0  0
   33.3228  -20.2128   36.1508 C   0  0  0  0  0  0  0  0  0  0  0  0
   34.7861  -19.8260   36.1036 C   0  0  0  0  0  0  0  0  0  0  0  0
   32.9809  -21.1821   36.9552 C   0  0  0  0  0  0  0  0  0  0  0  0
   31.5871  -21.6291   37.0513 C   0  0  0  0  0  0  0  0  0  0  0  0
   32.7075  -18.7518   34.6902 H   0  0  0  0  0  0  0  0  0  0  0  0
   31.5492  -23.0938   36.7845 C   0  0  0  0  0  0  0  0  0  0  0  0
   31.8363  -23.5859   35.5389 C   0  0  0  0  0  0  0  0  0  0  0  0
   31.8066  -24.9416   35.2745 C   0  0  0  0  0  0  0  0  0  0  0  0
   31.4791  -25.8400   36.2870 C   0  0  0  0  0  0  0  0  0  0  0  0
   31.1895  -25.3319   37.5464 C   0  0  0  0  0  0  0  0  0  0  0  0
   31.2220  -23.9588   37.8046 C   0  0  0  0  0  0  0  0  0  0  0  0
   29.2019  -21.1954   36.2782 C   0  0  0  0  0  0  0  0  0  0  0  0
   28.4608  -20.6212   37.1627 O   0  0  0  0  0  0  0  0  0  0  0  0
   28.0178  -23.3035   35.8308 C   0  0  0  0  0  0  0  0  0  0  0  0
   28.5390  -22.0568   35.4656 O   0  0  0  0  0  0  0  0  0  0  0  0
   34.0073  -21.8507   37.8178 C   0  0  0  0  0  0  0  0  0  0  0  0
   34.7618  -22.6864   37.2721 O   0  0  0  0  0  0  0  0  0  0  0  0
   34.1564  -21.6012   39.1328 O   0  0  0  0  0  0  0  0  0  0  0  0
   35.0772  -20.6604   39.6454 C   0  0  0  0  0  0  0  0  0  0  0  0
   34.6991  -20.3111   41.0653 C   0  0  0  0  0  0  0  0  0  0  0  0
 18 19  1  0  0  0
 19 16  1  0  0  0
 16 17  2  0  0  0
 16  1  1  0  0  0
  1  2  2  0  0  0
  2  3  1  0  0  0
  2  4  1  0  0  0
  4  5  1  0  0  0
  5  6  1  0  0  0
  5  7  2  0  0  0
  7  8  1  0  0  0
  8 10  1  0  0  0
 10 11  2  0  0  0
 11 12  1  0  0  0
 12 13  2  0  0  0
 13 14  1  0  0  0
 14 15  2  0  0  0
  7 20  1  0  0  0
 20 21  2  0  0  0
 20 22  1  0  0  0
 22 23  1  0  0  0
 23 24  1  0  0  0
  8  1  1  0  0  0
 15 10  1  0  0  0
  4  9  1  0  0  0
M  END
> <minimizedAffinity>
-3.76293

> <CNNscore>
0.5037854314

> <CNNaffinity>
3.8707013130

> <CNN_VS>
1.9500029087

> <CNNaffinity_variance>
0.4443373680

$$$$
[H]c1c([H])c([H])c(C2([H])C(C(=O)OC([H])([H])[H])=C(C([H])([H])[H])N([H])C(C([H])([H])[H])=C2C(=O)OC([H])([H])C([H])([H])[H])c([H])c1[H]


 24 25  0  0  0  0  0  0  0  0999 V2000
   40.8116  -20.2121   35.2600 C   0  0  0  0  0  0  0  0  0  0  0  0
   40.3111  -19.1886   34.6440 C   0  0  0  0  0  0  0  0  0  0  0  0
   41.0332  -18.4338   33.5480 C   0  0  0  0  0  0  0  0  0  0  0  0
   38.9837  -18.7035   34.9490 N   0  0  0  0  0  0  0  0  0  0  0  0
   38.2752  -19.4056   35.9537 C   0  0  0  0  0  0  0  0  0  0  0  0
   36.8753  -18.9548   36.3145 C   0  0  0  0  0  0  0  0  0  0  0  0
   38.7636  -20.4303   36.5979 C   0  0  0  0  0  0  0  0  0  0  0  0
   40.1171  -20.9229   36.3204 C   0  0  0  0  0  0  0  0  0  0  0  0
   38.5701  -17.8826   34.4571 H   0  0  0  0  0  0  0  0  0  0  0  0
   40.8757  -20.9446   37.6019 C   0  0  0  0  0  0  0  0  0  0  0  0
   41.3032  -22.1285   38.1420 C   0  0  0  0  0  0  0  0  0  0  0  0
   42.0086  -22.1665   39.3293 C   0  0  0  0  0  0  0  0  0  0  0  0
   42.2987  -20.9829   40.0034 C   0  0  0  0  0  0  0  0  0  0  0  0
   41.8612  -19.7877   39.4483 C   0  0  0  0  0  0  0  0  0  0  0  0
   41.1482  -19.7589   38.2467 C   0  0  0  0  0  0  0  0  0  0  0  0
   42.1718  -20.6502   34.8445 C   0  0  0  0  0  0  0  0  0  0  0  0
   43.2034  -20.0589   35.3421 O   0  0  0  0  0  0  0  0  0  0  0  0
   41.5549  -22.3041   33.1326 C   0  0  0  0  0  0  0  0  0  0  0  0
   42.4644  -21.6419   33.9654 O   0  0  0  0  0  0  0  0  0  0  0  0
   37.9405  -21.1425   37.6274 C   0  0  0  0  0  0  0  0  0  0  0  0
   37.8438  -20.6105   38.7558 O   0  0  0  0  0  0  0  0  0  0  0  0
   37.3085  -22.3103   37.4027 O   0  0  0  0  0  0  0  0  0  0  0  0
   35.9021  -22.4380   37.3660 C   0  0  0  0  0  0  0  0  0  0  0  0
   35.4367  -23.2083   38.5790 C   0  0  0  0  0  0  0  0  0  0  0  0
 18 19  1  0  0  0
 19 16  1  0  0  0
 16 17  2  0  0  0
 16  1  1  0  0  0
  1  2  2  0  0  0
  2  3  1  0  0  0
  2  4  1  0  0  0
  4  5  1  0  0  0
  5  6  1  0  0  0
  5  7  2  0  0  0
  7  8  1  0  0  0
  8 10  1  0  0  0
 10 11  2  0  0  0
 11 12  1  0  0  0
 12 13  2  0  0  0
 13 14  1  0  0  0
 14 15  2  0  0  0
  7 20  1  0  0  0
 20 21  2  0  0  0
 20 22  1  0  0  0
 22 23  1  0  0  0
 23 24  1  0  0  0
  8  1  1  0  0  0
 15 10  1  0  0  0
  4  9  1  0  0  0
M  END
> <minimizedAffinity>
-3.30214

> <CNNscore>
0.4896064401

> <CNNaffinity>
4.0299558640

> <CNN_VS>
1.9730923176

> <CNNaffinity_variance>
0.1574473083

$$$$
[H]c1c([H])c([H])c(C2([H])C(C(=O)OC([H])([H])[H])=C(C([H])([H])[H])N([H])C(C([H])([H])[H])=C2C(=O)OC([H])([H])C([H])([H])[H])c([H])c1[H]


 24 25  0  0  0  0  0  0  0  0999 V2000
   37.4484  -19.6353   37.2797 C   0  0  0  0  0  0  0  0  0  0  0  0
   37.7140  -18.6296   36.5079 C   0  0  0  0  0  0  0  0  0  0  0  0
   36.6524  -17.7628   35.8646 C   0  0  0  0  0  0  0  0  0  0  0  0
   39.0770  -18.2393   36.2249 N   0  0  0  0  0  0  0  0  0  0  0  0
   40.0912  -19.0179   36.8329 C   0  0  0  0  0  0  0  0  0  0  0  0
   41.5406  -18.6562   36.5854 C   0  0  0  0  0  0  0  0  0  0  0  0
   39.8486  -20.0437   37.6025 C   0  0  0  0  0  0  0  0  0  0  0  0
   38.4734  -20.4707   37.8825 C   0  0  0  0  0  0  0  0  0  0  0  0
   39.3019  -17.4297   35.6077 H   0  0  0  0  0  0  0  0  0  0  0  0
   38.3480  -21.9074   37.5107 C   0  0  0  0  0  0  0  0  0  0  0  0
   38.4511  -22.3035   36.2035 C   0  0  0  0  0  0  0  0  0  0  0  0
   38.3379  -23.6319   35.8414 C   0  0  0  0  0  0  0  0  0  0  0  0
   38.1140  -24.6012   36.8161 C   0  0  0  0  0  0  0  0  0  0  0  0
   38.0108  -24.1902   38.1384 C   0  0  0  0  0  0  0  0  0  0  0  0
   38.1266  -22.8440   38.4954 C   0  0  0  0  0  0  0  0  0  0  0  0
   36.0118  -19.9296   37.5331 C   0  0  0  0  0  0  0  0  0  0  0  0
   35.3358  -20.5776   36.6473 O   0  0  0  0  0  0  0  0  0  0  0  0
   35.1248  -20.3567   39.7864 C   0  0  0  0  0  0  0  0  0  0  0  0
   35.3010  -19.5802   38.6352 O   0  0  0  0  0  0  0  0  0  0  0  0
   40.9754  -20.8006   38.2365 C   0  0  0  0  0  0  0  0  0  0  0  0
   41.2164  -20.5710   39.4427 O   0  0  0  0  0  0  0  0  0  0  0  0
   41.7317  -21.7029   37.5827 O   0  0  0  0  0  0  0  0  0  0  0  0
   41.8520  -23.0521   37.9837 C   0  0  0  0  0  0  0  0  0  0  0  0
   41.8777  -23.9383   36.7609 C   0  0  0  0  0  0  0  0  0  0  0  0
 18 19  1  0  0  0
 19 16  1  0  0  0
 16 17  2  0  0  0
 16  1  1  0  0  0
  1  2  2  0  0  0
  2  3  1  0  0  0
  2  4  1  0  0  0
  4  5  1  0  0  0
  5  6  1  0  0  0
  5  7  2  0  0  0
  7  8  1  0  0  0
  8 10  1  0  0  0
 10 11  2  0  0  0
 11 12  1  0  0  0
 12 13  2  0  0  0
 13 14  1  0  0  0
 14 15  2  0  0  0
  7 20  1  0  0  0
 20 21  2  0  0  0
 20 22  1  0  0  0
 22 23  1  0  0  0
 23 24  1  0  0  0
  8  1  1  0  0  0
 15 10  1  0  0  0
  4  9  1  0  0  0
M  END
> <minimizedAffinity>
-3.20828

> <CNNscore>
0.4750989377

> <CNNaffinity>
3.9538567066

> <CNN_VS>
1.8784731627

> <CNNaffinity_variance>
0.2351465672

$$$$
[H]c1c([H])c([H])c(C2([H])C(C(=O)OC([H])([H])[H])=C(C([H])([H])[H])N([H])C(C([H])([H])[H])=C2C(=O)OC([H])([H])C([H])([H])[H])c([H])c1[H]


 24 25  0  0  0  0  0  0  0  0999 V2000
   37.9328  -18.7576   35.9268 C   0  0  0  0  0  0  0  0  0  0  0  0
   37.8858  -18.4191   34.6775 C   0  0  0  0  0  0  0  0  0  0  0  0
   36.6163  -17.9920   33.9716 C   0  0  0  0  0  0  0  0  0  0  0  0
   39.0778  -18.3975   33.8597 N   0  0  0  0  0  0  0  0  0  0  0  0
   40.2844  -18.7693   34.5003 C   0  0  0  0  0  0  0  0  0  0  0  0
   41.5715  -18.7585   33.7025 C   0  0  0  0  0  0  0  0  0  0  0  0
   40.3546  -19.1276   35.7533 C   0  0  0  0  0  0  0  0  0  0  0  0
   39.1533  -19.1794   36.5936 C   0  0  0  0  0  0  0  0  0  0  0  0
   39.0517  -18.1236   32.8541 H   0  0  0  0  0  0  0  0  0  0  0  0
   39.0552  -20.5445   37.1808 C   0  0  0  0  0  0  0  0  0  0  0  0
   39.2056  -20.7391   38.5282 C   0  0  0  0  0  0  0  0  0  0  0  0
   39.1170  -21.9984   39.0894 C   0  0  0  0  0  0  0  0  0  0  0  0
   38.8696  -23.1042   38.2797 C   0  0  0  0  0  0  0  0  0  0  0  0
   38.7187  -22.8972   36.9150 C   0  0  0  0  0  0  0  0  0  0  0  0
   38.8100  -21.6195   36.3561 C   0  0  0  0  0  0  0  0  0  0  0  0
   36.6538  -18.7118   36.6863 C   0  0  0  0  0  0  0  0  0  0  0  0
   35.8175  -19.6858   36.5710 O   0  0  0  0  0  0  0  0  0  0  0  0
   36.4535  -16.3493   37.3381 C   0  0  0  0  0  0  0  0  0  0  0  0
   36.2490  -17.7217   37.5216 O   0  0  0  0  0  0  0  0  0  0  0  0
   41.6743  -19.4774   36.3703 C   0  0  0  0  0  0  0  0  0  0  0  0
   42.1682  -20.5901   36.0808 O   0  0  0  0  0  0  0  0  0  0  0  0
   42.3463  -18.6661   37.2092 O   0  0  0  0  0  0  0  0  0  0  0  0
   43.4824  -17.9199   36.8244 C   0  0  0  0  0  0  0  0  0  0  0  0
   43.0534  -16.5342   36.4037 C   0  0  0  0  0  0  0  0  0  0  0  0
 18 19  1  0  0  0
 19 16  1  0  0  0
 16 17  2  0  0  0
 16  1  1  0  0  0
  1  2  2  0  0  0
  2  3  1  0  0  0
  2  4  1  0  0  0
  4  5  1  0  0  0
  5  6  1  0  0  0
  5  7  2  0  0  0
  7  8  1  0  0  0
  8 10  1  0  0  0
 10 11  2  0  0  0
 11 12  1  0  0  0
 12 13  2  0  0  0
 13 14  1  0  0  0
 14 15  2  0  0  0
  7 20  1  0  0  0
 20 21  2  0  0  0
 20 22  1  0  0  0
 22 23  1  0  0  0
 23 24  1  0  0  0
  8  1  1  0  0  0
 15 10  1  0  0  0
  4  9  1  0  0  0
M  END
> <minimizedAffinity>
-4.52170

> <CNNscore>
0.4677968621

> <CNNaffinity>
4.1022715569

> <CNN_VS>
1.9190297127

> <CNNaffinity_variance>
0.5759888291

$$$$
[H]c1c([H])c([H])c(C2([H])C(C(=O)OC([H])([H])[H])=C(C([H])([H])[H])N([H])C(C([H])([H])[H])=C2C(=O)OC([H])([H])C([H])([H])[H])c([H])c1[H]


 24 25  0  0  0  0  0  0  0  0999 V2000
   34.7129  -18.9974   35.8413 C   0  0  0  0  0  0  0  0  0  0  0  0
   34.0691  -17.8790   35.7312 C   0  0  0  0  0  0  0  0  0  0  0  0
   34.7172  -16.5195   35.8861 C   0  0  0  0  0  0  0  0  0  0  0  0
   32.6583  -17.8522   35.4160 N   0  0  0  0  0  0  0  0  0  0  0  0
   32.0309  -19.1093   35.2417 C   0  0  0  0  0  0  0  0  0  0  0  0
   30.5562  -19.1516   34.9003 C   0  0  0  0  0  0  0  0  0  0  0  0
   32.6551  -20.2493   35.3614 C   0  0  0  0  0  0  0  0  0  0  0  0
   34.0805  -20.2987   35.7044 C   0  0  0  0  0  0  0  0  0  0  0  0
   32.1312  -16.9576   35.3220 H   0  0  0  0  0  0  0  0  0  0  0  0
   34.2383  -21.1538   36.9134 C   0  0  0  0  0  0  0  0  0  0  0  0
   34.9021  -22.3499   36.8427 C   0  0  0  0  0  0  0  0  0  0  0  0
   35.0581  -23.1550   37.9546 C   0  0  0  0  0  0  0  0  0  0  0  0
   34.5342  -22.7548   39.1814 C   0  0  0  0  0  0  0  0  0  0  0  0
   33.8629  -21.5409   39.2433 C   0  0  0  0  0  0  0  0  0  0  0  0
   33.7099  -20.7330   38.1132 C   0  0  0  0  0  0  0  0  0  0  0  0
   36.1696  -18.9108   36.1332 C   0  0  0  0  0  0  0  0  0  0  0  0
   36.5602  -18.7729   37.3538 O   0  0  0  0  0  0  0  0  0  0  0  0
   38.5420  -19.0830   35.5099 C   0  0  0  0  0  0  0  0  0  0  0  0
   37.1769  -18.9626   35.2251 O   0  0  0  0  0  0  0  0  0  0  0  0
   31.9300  -21.5398   35.1308 C   0  0  0  0  0  0  0  0  0  0  0  0
   32.1645  -22.1491   34.0633 O   0  0  0  0  0  0  0  0  0  0  0  0
   31.0505  -22.0697   36.0022 O   0  0  0  0  0  0  0  0  0  0  0  0
   30.0278  -22.9680   35.6243 C   0  0  0  0  0  0  0  0  0  0  0  0
   28.6954  -22.2579   35.6675 C   0  0  0  0  0  0  0  0  0  0  0  0
 18 19  1  0  0  0
 19 16  1  0  0  0
 16 17  2  0  0  0
 16  1  1  0  0  0
  1  2  2  0  0  0
  2  3  1  0  0  0
  2  4  1  0  0  0
  4  5  1  0  0  0
  5  6  1  0  0  0
  5  7  2  0  0  0
  7  8  1  0  0  0
  8 10  1  0  0  0
 10 11  2  0  0  0
 11 12  1  0  0  0
 12 13  2  0  0  0
 13 14  1  0  0  0
 14 15  2  0  0  0
  7 20  1  0  0  0
 20 21  2  0  0  0
 20 22  1  0  0  0
 22 23  1  0  0  0
 23 24  1  0  0  0
  8  1  1  0  0  0
 15 10  1  0  0  0
  4  9  1  0  0  0
M  END
> <minimizedAffinity>
-4.25318

> <CNNscore>
0.4629147649

> <CNNaffinity>
4.3235082626

> <CNN_VS>
2.0014157295

> <CNNaffinity_variance>
0.3485117853

$$$$
[H]c1c([H])c([H])c(C2([H])C(C(=O)OC([H])([H])[H])=C(C([H])([H])[H])N([H])C(C([H])([H])[H])=C2C(=O)OC([H])([H])C([H])([H])[H])c([H])c1[H]


 24 25  0  0  0  0  0  0  0  0999 V2000
   40.2212  -19.5074   35.9189 C   0  0  0  0  0  0  0  0  0  0  0  0
   40.4266  -18.8154   34.8435 C   0  0  0  0  0  0  0  0  0  0  0  0
   39.4610  -18.7700   33.6782 C   0  0  0  0  0  0  0  0  0  0  0  0
   41.6080  -17.9959   34.6917 N   0  0  0  0  0  0  0  0  0  0  0  0
   42.5175  -18.0002   35.7766 C   0  0  0  0  0  0  0  0  0  0  0  0
   43.7709  -17.1552   35.6859 C   0  0  0  0  0  0  0  0  0  0  0  0
   42.3394  -18.6998   36.8640 C   0  0  0  0  0  0  0  0  0  0  0  0
   41.1597  -19.5562   37.0274 C   0  0  0  0  0  0  0  0  0  0  0  0
   41.7816  -17.4326   33.8317 H   0  0  0  0  0  0  0  0  0  0  0  0
   41.6264  -20.9363   37.3361 C   0  0  0  0  0  0  0  0  0  0  0  0
   41.3587  -21.5103   38.5507 C   0  0  0  0  0  0  0  0  0  0  0  0
   41.7835  -22.7896   38.8531 C   0  0  0  0  0  0  0  0  0  0  0  0
   42.5010  -23.5243   37.9123 C   0  0  0  0  0  0  0  0  0  0  0  0
   42.7676  -22.9342   36.6840 C   0  0  0  0  0  0  0  0  0  0  0  0
   42.3338  -21.6393   36.3868 C   0  0  0  0  0  0  0  0  0  0  0  0
   38.9564  -20.2886   35.9866 C   0  0  0  0  0  0  0  0  0  0  0  0
   38.8905  -21.4329   35.3969 O   0  0  0  0  0  0  0  0  0  0  0  0
   37.3030  -18.6216   36.7173 C   0  0  0  0  0  0  0  0  0  0  0  0
   37.8163  -19.9205   36.6241 O   0  0  0  0  0  0  0  0  0  0  0  0
   43.3319  -18.6284   37.9840 C   0  0  0  0  0  0  0  0  0  0  0  0
   44.4823  -19.0681   37.7627 O   0  0  0  0  0  0  0  0  0  0  0  0
   43.0521  -18.1220   39.2001 O   0  0  0  0  0  0  0  0  0  0  0  0
   43.4670  -18.7267   40.4075 C   0  0  0  0  0  0  0  0  0  0  0  0
   42.2528  -19.0972   41.2259 C   0  0  0  0  0  0  0  0  0  0  0  0
 18 19  1  0  0  0
 19 16  1  0  0  0
 16 17  2  0  0  0
 16  1  1  0  0  0
  1  2  2  0  0  0
  2  3  1  0  0  0
  2  4  1  0  0  0
  4  5  1  0  0  0
  5  6  1  0  0  0
  5  7  2  0  0  0
  7  8  1  0  0  0
  8 10  1  0  0  0
 10 11  2  0  0  0
 11 12  1  0  0  0
 12 13  2  0  0  0
 13 14  1  0  0  0
 14 15  2  0  0  0
  7 20  1  0  0  0
 20 21  2  0  0  0
 20 22  1  0  0  0
 22 23  1  0  0  0
 23 24  1  0  0  0
  8  1  1  0  0  0
 15 10  1  0  0  0
  4  9  1  0  0  0
M  END
> <minimizedAffinity>
-3.92844

> <CNNscore>
0.4583564103

> <CNNaffinity>
3.9614944458

> <CNN_VS>
1.8157763481

> <CNNaffinity_variance>
0.4769627452

$$$$
[H]c1c([H])c([H])c(C2([H])C(C(=O)OC([H])([H])[H])=C(C([H])([H])[H])N([H])C(C([H])([H])[H])=C2C(=O)OC([H])([H])C([H])([H])[H])c([H])c1[H]


 24 25  0  0  0  0  0  0  0  0999 V2000
   39.4548  -20.6361   34.6842 C   0  0  0  0  0  0  0  0  0  0  0  0
   39.7009  -19.5879   33.9643 C   0  0  0  0  0  0  0  0  0  0  0  0
   40.8687  -19.4836   33.0065 C   0  0  0  0  0  0  0  0  0  0  0  0
   38.8383  -18.4283   34.0063 N   0  0  0  0  0  0  0  0  0  0  0  0
   37.7240  -18.5071   34.8760 C   0  0  0  0  0  0  0  0  0  0  0  0
   36.7750  -17.3301   34.9601 C   0  0  0  0  0  0  0  0  0  0  0  0
   37.4633  -19.5464   35.6214 C   0  0  0  0  0  0  0  0  0  0  0  0
   38.3391  -20.7230   35.6114 C   0  0  0  0  0  0  0  0  0  0  0  0
   39.0254  -17.5807   33.4288 H   0  0  0  0  0  0  0  0  0  0  0  0
   38.7648  -20.9975   37.0119 C   0  0  0  0  0  0  0  0  0  0  0  0
   38.2388  -22.0527   37.7091 C   0  0  0  0  0  0  0  0  0  0  0  0
   38.6230  -22.3219   39.0085 C   0  0  0  0  0  0  0  0  0  0  0  0
   39.5652  -21.5112   39.6367 C   0  0  0  0  0  0  0  0  0  0  0  0
   40.0928  -20.4439   38.9221 C   0  0  0  0  0  0  0  0  0  0  0  0
   39.6981  -20.1792   37.6079 C   0  0  0  0  0  0  0  0  0  0  0  0
   40.3862  -21.7876   34.5387 C   0  0  0  0  0  0  0  0  0  0  0  0
   40.0372  -22.7919   33.8099 O   0  0  0  0  0  0  0  0  0  0  0  0
   41.9607  -22.7819   36.1445 C   0  0  0  0  0  0  0  0  0  0  0  0
   41.6122  -21.9080   35.1082 O   0  0  0  0  0  0  0  0  0  0  0  0
   36.2458  -19.5685   36.4942 C   0  0  0  0  0  0  0  0  0  0  0  0
   36.2978  -18.9332   37.5709 O   0  0  0  0  0  0  0  0  0  0  0  0
   35.1142  -20.2289   36.1829 O   0  0  0  0  0  0  0  0  0  0  0  0
   33.9185  -19.5825   35.7980 C   0  0  0  0  0  0  0  0  0  0  0  0
   33.8262  -19.5546   34.2908 C   0  0  0  0  0  0  0  0  0  0  0  0
 18 19  1  0  0  0
 19 16  1  0  0  0
 16 17  2  0  0  0
 16  1  1  0  0  0
  1  2  2  0  0  0
  2  3  1  0  0  0
  2  4  1  0  0  0
  4  5  1  0  0  0
  5  6  1  0  0  0
  5  7  2  0  0  0
  7  8  1  0  0  0
  8 10  1  0  0  0
 10 11  2  0  0  0
 11 12  1  0  0  0
 12 13  2  0  0  0
 13 14  1  0  0  0
 14 15  2  0  0  0
  7 20  1  0  0  0
 20 21  2  0  0  0
 20 22  1  0  0  0
 22 23  1  0  0  0
 23 24  1  0  0  0
  8  1  1  0  0  0
 15 10  1  0  0  0
  4  9  1  0  0  0
M  END
> <minimizedAffinity>
-3.78596

> <CNNscore>
0.4445234835

> <CNNaffinity>
4.0226941109

> <CNN_VS>
1.7881820202

> <CNNaffinity_variance>
0.3761772811

$$$$
[H]c1c([H])c([H])c(C2([H])C(C(=O)OC([H])([H])[H])=C(C([H])([H])[H])N([H])C(C([H])([H])[H])=C2C(=O)OC([H])([H])C([H])([H])[H])c([H])c1[H]


 24 25  0  0  0  0  0  0  0  0999 V2000
   32.3047  -20.5902   36.1185 C   0  0  0  0  0  0  0  0  0  0  0  0
   32.8332  -19.8898   35.1658 C   0  0  0  0  0  0  0  0  0  0  0  0
   32.1209  -19.5639   33.8701 C   0  0  0  0  0  0  0  0  0  0  0  0
   34.1617  -19.3333   35.2906 N   0  0  0  0  0  0  0  0  0  0  0  0
   34.8426  -19.6020   36.5025 C   0  0  0  0  0  0  0  0  0  0  0  0
   36.2346  -19.0400   36.7015 C   0  0  0  0  0  0  0  0  0  0  0  0
   34.3367  -20.3165   37.4705 C   0  0  0  0  0  0  0  0  0  0  0  0
   33.0003  -20.9101   37.3537 C   0  0  0  0  0  0  0  0  0  0  0  0
   34.5953  -18.7656   34.5313 H   0  0  0  0  0  0  0  0  0  0  0  0
   33.1199  -22.3751   37.5932 C   0  0  0  0  0  0  0  0  0  0  0  0
   32.5469  -22.9530   38.6950 C   0  0  0  0  0  0  0  0  0  0  0  0
   32.6476  -24.3104   38.9319 C   0  0  0  0  0  0  0  0  0  0  0  0
   33.3439  -25.1218   38.0396 C   0  0  0  0  0  0  0  0  0  0  0  0
   33.9214  -24.5271   36.9257 C   0  0  0  0  0  0  0  0  0  0  0  0
   33.8144  -23.1530   36.6941 C   0  0  0  0  0  0  0  0  0  0  0  0
   30.9184  -21.0862   35.9014 C   0  0  0  0  0  0  0  0  0  0  0  0
   30.7376  -22.1912   35.2628 O   0  0  0  0  0  0  0  0  0  0  0  0
   28.5958  -21.1298   36.7073 C   0  0  0  0  0  0  0  0  0  0  0  0
   29.7745  -20.4847   36.3154 O   0  0  0  0  0  0  0  0  0  0  0  0
   35.1062  -20.5314   38.7379 C   0  0  0  0  0  0  0  0  0  0  0  0
   34.8178  -19.8068   39.7163 O   0  0  0  0  0  0  0  0  0  0  0  0
   36.0794  -21.4522   38.8750 O   0  0  0  0  0  0  0  0  0  0  0  0
   36.0932  -22.4206   39.9034 C   0  0  0  0  0  0  0  0  0  0  0  0
   36.6043  -23.7304   39.3519 C   0  0  0  0  0  0  0  0  0  0  0  0
 18 19  1  0  0  0
 19 16  1  0  0  0
 16 17  2  0  0  0
 16  1  1  0  0  0
  1  2  2  0  0  0
  2  3  1  0  0  0
  2  4  1  0  0  0
  4  5  1  0  0  0
  5  6  1  0  0  0
  5  7  2  0  0  0
  7  8  1  0  0  0
  8 10  1  0  0  0
 10 11  2  0  0  0
 11 12  1  0  0  0
 12 13  2  0  0  0
 13 14  1  0  0  0
 14 15  2  0  0  0
  7 20  1  0  0  0
 20 21  2  0  0  0
 20 22  1  0  0  0
 22 23  1  0  0  0
 23 24  1  0  0  0
  8  1  1  0  0  0
 15 10  1  0  0  0
  4  9  1  0  0  0
M  END
> <minimizedAffinity>
-3.71914

> <CNNscore>
0.4444084764

> <CNNaffinity>
3.9125449657

> <CNN_VS>
1.7387681007

> <CNNaffinity_variance>
0.4323508739

$$$$
[H]OC(=O)c1nc(C(=O)c2c([H])c([H])c(Br)c([H])c2[H])c2c([H])c(O[H])c(O[H])c([H])c2c1[H]


 27 29  0  0  0  0  0  0  0  0999 V2000
   32.6852   -9.5921   36.9251 C   0  0  0  0  0  0  0  0  0  0  0  0
   31.3335   -9.3909   37.0803 C   0  0  0  0  0  0  0  0  0  0  0  0
   30.5429  -10.3612   37.6643 C   0  0  0  0  0  0  0  0  0  0  0  0
   29.1858  -10.1291   37.7945 C   0  0  0  0  0  0  0  0  0  0  0  0
   28.3620  -11.0588   38.3532 C   0  0  0  0  0  0  0  0  0  0  0  0
   26.9970  -10.8493   38.4953 O   0  0  0  0  0  0  0  0  0  0  0  0
   28.9229  -12.2303   38.7808 C   0  0  0  0  0  0  0  0  0  0  0  0
   28.0981  -13.1917   39.3531 O   0  0  0  0  0  0  0  0  0  0  0  0
   30.2869  -12.4961   38.6647 C   0  0  0  0  0  0  0  0  0  0  0  0
   31.1292  -11.5588   38.1010 C   0  0  0  0  0  0  0  0  0  0  0  0
   32.4848  -11.7265   37.9315 C   0  0  0  0  0  0  0  0  0  0  0  0
   33.1930  -10.7329   37.3508 N   0  0  0  0  0  0  0  0  0  0  0  0
   26.5234  -10.0214   38.2065 H   0  0  0  0  0  0  0  0  0  0  0  0
   28.4824  -14.0609   39.6757 H   0  0  0  0  0  0  0  0  0  0  0  0
   34.7386   -8.1915   36.6512 O   0  0  0  0  0  0  0  0  0  0  0  0
   33.4643   -8.5371   36.3037 C   0  0  0  0  0  0  0  0  0  0  0  0
   32.9199   -7.8845   35.3642 O   0  0  0  0  0  0  0  0  0  0  0  0
   35.0349   -7.6800   37.4467 H   0  0  0  0  0  0  0  0  0  0  0  0
   33.1167  -12.9326   38.4279 C   0  0  0  0  0  0  0  0  0  0  0  0
   32.8825  -13.2220   39.6559 O   0  0  0  0  0  0  0  0  0  0  0  0
   33.9768  -13.8140   37.6410 C   0  0  0  0  0  0  0  0  0  0  0  0
   35.3364  -13.9010   37.7849 C   0  0  0  0  0  0  0  0  0  0  0  0
   36.0572  -14.7826   36.9732 C   0  0  0  0  0  0  0  0  0  0  0  0
   35.4565  -15.5770   36.0242 C   0  0  0  0  0  0  0  0  0  0  0  0
   36.4880  -16.7744   34.9305 Br  0  0  0  0  0  0  0  0  0  0  0  0
   34.0970  -15.4856   35.8846 C   0  0  0  0  0  0  0  0  0  0  0  0
   33.3737  -14.6138   36.6857 C   0  0  0  0  0  0  0  0  0  0  0  0
 15 16  1  0  0  0
 16 17  2  0  0  0
 16  1  1  0  0  0
  1  2  2  0  0  0
  2  3  1  0  0  0
  3  4  2  0  0  0
  4  5  1  0  0  0
  5  6  1  0  0  0
  5  7  2  0  0  0
  7  8  1  0  0  0
  7  9  1  0  0  0
  9 10  2  0  0  0
 10 11  1  0  0  0
 11 12  2  0  0  0
 11 19  1  0  0  0
 19 20  2  0  0  0
 19 21  1  0  0  0
 21 22  2  0  0  0
 22 23  1  0  0  0
 23 24  2  0  0  0
 24 25  1  0  0  0
 24 26  1  0  0  0
 26 27  2  0  0  0
 12  1  1  0  0  0
 27 21  1  0  0  0
 10  3  1  0  0  0
 15 18  1  0  0  0
  6 13  1  0  0  0
  8 14  1  0  0  0
M  END
> <minimizedAffinity>
-5.98991

> <CNNscore>
0.3378248811

> <CNNaffinity>
5.0888648033

> <CNN_VS>
1.7191451788

> <CNNaffinity_variance>
0.0694271773

$$$$
[H]OC(=O)c1nc(C(=O)c2c([H])c([H])c(Br)c([H])c2[H])c2c([H])c(O[H])c(O[H])c([H])c2c1[H]


 27 29  0  0  0  0  0  0  0  0999 V2000
   37.0612  -17.9837   36.5153 C   0  0  0  0  0  0  0  0  0  0  0  0
   36.9601  -16.7075   37.0183 C   0  0  0  0  0  0  0  0  0  0  0  0
   35.8551  -15.9284   36.7365 C   0  0  0  0  0  0  0  0  0  0  0  0
   35.7921  -14.6461   37.2506 C   0  0  0  0  0  0  0  0  0  0  0  0
   34.7293  -13.8345   36.9924 C   0  0  0  0  0  0  0  0  0  0  0  0
   34.6427  -12.5441   37.4970 O   0  0  0  0  0  0  0  0  0  0  0  0
   33.7262  -14.3310   36.2069 C   0  0  0  0  0  0  0  0  0  0  0  0
   32.6332  -13.5174   35.9318 O   0  0  0  0  0  0  0  0  0  0  0  0
   33.7581  -15.6189   35.6730 C   0  0  0  0  0  0  0  0  0  0  0  0
   34.8309  -16.4486   35.9308 C   0  0  0  0  0  0  0  0  0  0  0  0
   34.9637  -17.7297   35.4452 C   0  0  0  0  0  0  0  0  0  0  0  0
   36.0742  -18.4311   35.7629 N   0  0  0  0  0  0  0  0  0  0  0  0
   35.3353  -12.1198   38.0744 H   0  0  0  0  0  0  0  0  0  0  0  0
   31.8825  -13.8556   35.3580 H   0  0  0  0  0  0  0  0  0  0  0  0
   39.5273  -18.3966   36.5376 O   0  0  0  0  0  0  0  0  0  0  0  0
   38.2460  -18.7542   36.8447 C   0  0  0  0  0  0  0  0  0  0  0  0
   38.0793  -19.8452   37.4667 O   0  0  0  0  0  0  0  0  0  0  0  0
   39.9766  -18.4412   35.6554 H   0  0  0  0  0  0  0  0  0  0  0  0
   33.8902  -18.3038   34.6589 C   0  0  0  0  0  0  0  0  0  0  0  0
   33.8995  -18.0194   33.4076 O   0  0  0  0  0  0  0  0  0  0  0  0
   32.8306  -19.1615   35.1854 C   0  0  0  0  0  0  0  0  0  0  0  0
   33.0230  -20.1494   36.1149 C   0  0  0  0  0  0  0  0  0  0  0  0
   31.9304  -20.9088   36.5453 C   0  0  0  0  0  0  0  0  0  0  0  0
   30.6543  -20.7072   36.0723 C   0  0  0  0  0  0  0  0  0  0  0  0
   29.1823  -21.7759   36.6929 Br  0  0  0  0  0  0  0  0  0  0  0  0
   30.4680  -19.7184   35.1432 C   0  0  0  0  0  0  0  0  0  0  0  0
   31.5461  -18.9600   34.7103 C   0  0  0  0  0  0  0  0  0  0  0  0
 15 16  1  0  0  0
 16 17  2  0  0  0
 16  1  1  0  0  0
  1  2  2  0  0  0
  2  3  1  0  0  0
  3  4  2  0  0  0
  4  5  1  0  0  0
  5  6  1  0  0  0
  5  7  2  0  0  0
  7  8  1  0  0  0
  7  9  1  0  0  0
  9 10  2  0  0  0
 10 11  1  0  0  0
 11 12  2  0  0  0
 11 19  1  0  0  0
 19 20  2  0  0  0
 19 21  1  0  0  0
 21 22  2  0  0  0
 22 23  1  0  0  0
 23 24  2  0  0  0
 24 25  1  0  0  0
 24 26  1  0  0  0
 26 27  2  0  0  0
 12  1  1  0  0  0
 27 21  1  0  0  0
 10  3  1  0  0  0
 15 18  1  0  0  0
  6 13  1  0  0  0
  8 14  1  0  0  0
M  END
> <minimizedAffinity>
-7.45067

> <CNNscore>
0.2949148417

> <CNNaffinity>
4.6045904160

> <CNN_VS>
1.3579620123

> <CNNaffinity_variance>
0.3896809220

$$$$
[H]OC(=O)c1nc(C(=O)c2c([H])c([H])c(Br)c([H])c2[H])c2c([H])c(O[H])c(O[H])c([H])c2c1[H]


 27 29  0  0  0  0  0  0  0  0999 V2000
   37.7974  -19.1491   35.2888 C   0  0  0  0  0  0  0  0  0  0  0  0
   38.9539  -19.5441   35.9201 C   0  0  0  0  0  0  0  0  0  0  0  0
   38.9025  -20.1699   37.1501 C   0  0  0  0  0  0  0  0  0  0  0  0
   40.0858  -20.5437   37.7604 C   0  0  0  0  0  0  0  0  0  0  0  0
   40.0890  -21.1536   38.9782 C   0  0  0  0  0  0  0  0  0  0  0  0
   41.2632  -21.5385   39.6110 O   0  0  0  0  0  0  0  0  0  0  0  0
   38.8816  -21.3834   39.5774 C   0  0  0  0  0  0  0  0  0  0  0  0
   38.8645  -22.0043   40.8209 O   0  0  0  0  0  0  0  0  0  0  0  0
   37.6704  -21.0196   38.9898 C   0  0  0  0  0  0  0  0  0  0  0  0
   37.6579  -20.4023   37.7551 C   0  0  0  0  0  0  0  0  0  0  0  0
   36.5206  -19.9955   37.0951 C   0  0  0  0  0  0  0  0  0  0  0  0
   36.6502  -19.3885   35.8947 N   0  0  0  0  0  0  0  0  0  0  0  0
   42.1751  -21.4021   39.2327 H   0  0  0  0  0  0  0  0  0  0  0  0
   37.9927  -22.1853   41.2841 H   0  0  0  0  0  0  0  0  0  0  0  0
   36.8726  -17.9886   33.2763 O   0  0  0  0  0  0  0  0  0  0  0  0
   37.9144  -18.4954   33.9985 C   0  0  0  0  0  0  0  0  0  0  0  0
   39.0748  -18.3857   33.5020 O   0  0  0  0  0  0  0  0  0  0  0  0
   36.1984  -18.4875   32.7483 H   0  0  0  0  0  0  0  0  0  0  0  0
   35.2242  -20.2782   37.6779 C   0  0  0  0  0  0  0  0  0  0  0  0
   34.8717  -19.5209   38.6520 O   0  0  0  0  0  0  0  0  0  0  0  0
   34.3199  -21.3387   37.2382 C   0  0  0  0  0  0  0  0  0  0  0  0
   34.6820  -22.6506   37.0812 C   0  0  0  0  0  0  0  0  0  0  0  0
   33.7279  -23.5792   36.6535 C   0  0  0  0  0  0  0  0  0  0  0  0
   32.4253  -23.2319   36.3793 C   0  0  0  0  0  0  0  0  0  0  0  0
   31.1477  -24.5430   35.7934 Br  0  0  0  0  0  0  0  0  0  0  0  0
   32.0690  -21.9190   36.5378 C   0  0  0  0  0  0  0  0  0  0  0  0
   33.0089  -20.9907   36.9618 C   0  0  0  0  0  0  0  0  0  0  0  0
 15 16  1  0  0  0
 16 17  2  0  0  0
 16  1  1  0  0  0
  1  2  2  0  0  0
  2  3  1  0  0  0
  3  4  2  0  0  0
  4  5  1  0  0  0
  5  6  1  0  0  0
  5  7  2  0  0  0
  7  8  1  0  0  0
  7  9  1  0  0  0
  9 10  2  0  0  0
 10 11  1  0  0  0
 11 12  2  0  0  0
 11 19  1  0  0  0
 19 20  2  0  0  0
 19 21  1  0  0  0
 21 22  2  0  0  0
 22 23  1  0  0  0
 23 24  2  0  0  0
 24 25  1  0  0  0
 24 26  1  0  0  0
 26 27  2  0  0  0
 12  1  1  0  0  0
 27 21  1  0  0  0
 10  3  1  0  0  0
 15 18  1  0  0  0
  6 13  1  0  0  0
  8 14  1  0  0  0
M  END
> <minimizedAffinity>
-4.51859

> <CNNscore>
0.2947978079

> <CNNaffinity>
4.2965607643

> <CNN_VS>
1.2666167021

> <CNNaffinity_variance>
0.2632159591

$$$$
[H]OC(=O)c1nc(C(=O)c2c([H])c([H])c(Br)c([H])c2[H])c2c([H])c(O[H])c(O[H])c([H])c2c1[H]


 27 29  0  0  0  0  0  0  0  0999 V2000
   38.6834  -20.5577   38.1305 C   0  0  0  0  0  0  0  0  0  0  0  0
   37.7047  -21.3531   38.6794 C   0  0  0  0  0  0  0  0  0  0  0  0
   36.3775  -21.1590   38.3508 C   0  0  0  0  0  0  0  0  0  0  0  0
   35.4193  -21.9707   38.9301 C   0  0  0  0  0  0  0  0  0  0  0  0
   34.0965  -21.8121   38.6474 C   0  0  0  0  0  0  0  0  0  0  0  0
   33.1160  -22.6141   39.2155 O   0  0  0  0  0  0  0  0  0  0  0  0
   33.7478  -20.8220   37.7710 C   0  0  0  0  0  0  0  0  0  0  0  0
   32.4024  -20.6444   37.4703 O   0  0  0  0  0  0  0  0  0  0  0  0
   34.6883  -19.9865   37.1692 C   0  0  0  0  0  0  0  0  0  0  0  0
   36.0312  -20.1412   37.4491 C   0  0  0  0  0  0  0  0  0  0  0  0
   37.0358  -19.3648   36.9176 C   0  0  0  0  0  0  0  0  0  0  0  0
   38.3115  -19.6137   37.2873 N   0  0  0  0  0  0  0  0  0  0  0  0
   33.2987  -23.3520   39.8600 H   0  0  0  0  0  0  0  0  0  0  0  0
   32.1176  -19.9254   36.8306 H   0  0  0  0  0  0  0  0  0  0  0  0
   41.0306  -19.8551   38.6303 O   0  0  0  0  0  0  0  0  0  0  0  0
   40.0603  -20.8085   38.5143 C   0  0  0  0  0  0  0  0  0  0  0  0
   40.3891  -22.0067   38.7617 O   0  0  0  0  0  0  0  0  0  0  0  0
   41.5184  -19.3917   37.9026 H   0  0  0  0  0  0  0  0  0  0  0  0
   36.7027  -18.3467   35.9414 C   0  0  0  0  0  0  0  0  0  0  0  0
   36.9909  -18.6250   34.7224 O   0  0  0  0  0  0  0  0  0  0  0  0
   36.0770  -17.0623   36.2489 C   0  0  0  0  0  0  0  0  0  0  0  0
   34.8958  -16.6264   35.7088 C   0  0  0  0  0  0  0  0  0  0  0  0
   34.3925  -15.3753   36.0787 C   0  0  0  0  0  0  0  0  0  0  0  0
   35.0370  -14.5507   36.9717 C   0  0  0  0  0  0  0  0  0  0  0  0
   34.3075  -12.8383   37.4507 Br  0  0  0  0  0  0  0  0  0  0  0  0
   36.2175  -14.9916   37.5083 C   0  0  0  0  0  0  0  0  0  0  0  0
   36.7244  -16.2316   37.1471 C   0  0  0  0  0  0  0  0  0  0  0  0
 15 16  1  0  0  0
 16 17  2  0  0  0
 16  1  1  0  0  0
  1  2  2  0  0  0
  2  3  1  0  0  0
  3  4  2  0  0  0
  4  5  1  0  0  0
  5  6  1  0  0  0
  5  7  2  0  0  0
  7  8  1  0  0  0
  7  9  1  0  0  0
  9 10  2  0  0  0
 10 11  1  0  0  0
 11 12  2  0  0  0
 11 19  1  0  0  0
 19 20  2  0  0  0
 19 21  1  0  0  0
 21 22  2  0  0  0
 22 23  1  0  0  0
 23 24  2  0  0  0
 24 25  1  0  0  0
 24 26  1  0  0  0
 26 27  2  0  0  0
 12  1  1  0  0  0
 27 21  1  0  0  0
 10  3  1  0  0  0
 15 18  1  0  0  0
  6 13  1  0  0  0
  8 14  1  0  0  0
M  END
> <minimizedAffinity>
-5.80092

> <CNNscore>
0.2875114679

> <CNNaffinity>
4.3760204315

> <CNN_VS>
1.2581560612

> <CNNaffinity_variance>
0.1822633296

$$$$
[H]OC(=O)c1nc(C(=O)c2c([H])c([H])c(Br)c([H])c2[H])c2c([H])c(O[H])c(O[H])c([H])c2c1[H]


 27 29  0  0  0  0  0  0  0  0999 V2000
   36.1083  -20.4963   37.1538 C   0  0  0  0  0  0  0  0  0  0  0  0
   36.4130  -19.1830   37.4263 C   0  0  0  0  0  0  0  0  0  0  0  0
   35.6505  -18.1617   36.8945 C   0  0  0  0  0  0  0  0  0  0  0  0
   35.9925  -16.8527   37.1812 C   0  0  0  0  0  0  0  0  0  0  0  0
   35.2791  -15.8101   36.6723 C   0  0  0  0  0  0  0  0  0  0  0  0
   35.6021  -14.4878   36.9455 O   0  0  0  0  0  0  0  0  0  0  0  0
   34.2129  -16.1018   35.8674 C   0  0  0  0  0  0  0  0  0  0  0  0
   33.4729  -15.0509   35.3380 O   0  0  0  0  0  0  0  0  0  0  0  0
   33.8409  -17.4099   35.5587 C   0  0  0  0  0  0  0  0  0  0  0  0
   34.5575  -18.4726   36.0713 C   0  0  0  0  0  0  0  0  0  0  0  0
   34.2801  -19.7972   35.8205 C   0  0  0  0  0  0  0  0  0  0  0  0
   35.0718  -20.7414   36.3753 N   0  0  0  0  0  0  0  0  0  0  0  0
   36.3638  -14.2040   37.5222 H   0  0  0  0  0  0  0  0  0  0  0  0
   32.6853  -15.2356   34.7440 H   0  0  0  0  0  0  0  0  0  0  0  0
   37.3589  -21.5580   39.0410 O   0  0  0  0  0  0  0  0  0  0  0  0
   36.9461  -21.5261   37.7400 C   0  0  0  0  0  0  0  0  0  0  0  0
   37.3250  -22.4708   36.9858 O   0  0  0  0  0  0  0  0  0  0  0  0
   38.0639  -21.0088   39.4694 H   0  0  0  0  0  0  0  0  0  0  0  0
   33.1216  -20.1387   35.0194 C   0  0  0  0  0  0  0  0  0  0  0  0
   33.2832  -20.0775   33.7479 O   0  0  0  0  0  0  0  0  0  0  0  0
   31.8208  -20.5376   35.5527 C   0  0  0  0  0  0  0  0  0  0  0  0
   30.6248  -19.9906   35.1689 C   0  0  0  0  0  0  0  0  0  0  0  0
   29.4404  -20.4538   35.7504 C   0  0  0  0  0  0  0  0  0  0  0  0
   29.4202  -21.4464   36.7028 C   0  0  0  0  0  0  0  0  0  0  0  0
   27.7674  -22.0514   37.4751 Br  0  0  0  0  0  0  0  0  0  0  0  0
   30.6188  -21.9894   37.0827 C   0  0  0  0  0  0  0  0  0  0  0  0
   31.7989  -21.5361   36.5111 C   0  0  0  0  0  0  0  0  0  0  0  0
 15 16  1  0  0  0
 16 17  2  0  0  0
 16  1  1  0  0  0
  1  2  2  0  0  0
  2  3  1  0  0  0
  3  4  2  0  0  0
  4  5  1  0  0  0
  5  6  1  0  0  0
  5  7  2  0  0  0
  7  8  1  0  0  0
  7  9  1  0  0  0
  9 10  2  0  0  0
 10 11  1  0  0  0
 11 12  2  0  0  0
 11 19  1  0  0  0
 19 20  2  0  0  0
 19 21  1  0  0  0
 21 22  2  0  0  0
 22 23  1  0  0  0
 23 24  2  0  0  0
 24 25  1  0  0  0
 24 26  1  0  0  0
 26 27  2  0  0  0
 12  1  1  0  0  0
 27 21  1  0  0  0
 10  3  1  0  0  0
 15 18  1  0  0  0
  6 13  1  0  0  0
  8 14  1  0  0  0
M  END
> <minimizedAffinity>
-6.07374

> <CNNscore>
0.2757380903

> <CNNaffinity>
4.2397432327

> <CNN_VS>
1.1690586805

> <CNNaffinity_variance>
0.2740747035

$$$$
[H]OC(=O)c1nc(C(=O)c2c([H])c([H])c(Br)c([H])c2[H])c2c([H])c(O[H])c(O[H])c([H])c2c1[H]


 27 29  0  0  0  0  0  0  0  0999 V2000
   36.4586  -19.2069   35.7206 C   0  0  0  0  0  0  0  0  0  0  0  0
   35.3546  -19.4037   36.5170 C   0  0  0  0  0  0  0  0  0  0  0  0
   35.4160  -20.2558   37.6022 C   0  0  0  0  0  0  0  0  0  0  0  0
   34.2835  -20.4376   38.3747 C   0  0  0  0  0  0  0  0  0  0  0  0
   34.2895  -21.2756   39.4483 C   0  0  0  0  0  0  0  0  0  0  0  0
   33.1660  -21.4747   40.2392 O   0  0  0  0  0  0  0  0  0  0  0  0
   35.4542  -21.9316   39.7364 C   0  0  0  0  0  0  0  0  0  0  0  0
   35.4798  -22.7916   40.8281 O   0  0  0  0  0  0  0  0  0  0  0  0
   36.6138  -21.7708   38.9785 C   0  0  0  0  0  0  0  0  0  0  0  0
   36.6168  -20.9224   37.8895 C   0  0  0  0  0  0  0  0  0  0  0  0
   37.7024  -20.7014   37.0728 C   0  0  0  0  0  0  0  0  0  0  0  0
   37.5661  -19.8542   36.0288 N   0  0  0  0  0  0  0  0  0  0  0  0
   32.2870  -21.0304   40.0871 H   0  0  0  0  0  0  0  0  0  0  0  0
   36.3209  -23.2863   41.0627 H   0  0  0  0  0  0  0  0  0  0  0  0
   37.1532  -17.2377   34.3449 O   0  0  0  0  0  0  0  0  0  0  0  0
   36.3335  -18.3007   34.5940 C   0  0  0  0  0  0  0  0  0  0  0  0
   35.3893  -18.5119   33.7762 O   0  0  0  0  0  0  0  0  0  0  0  0
   37.1677  -16.3597   34.8043 H   0  0  0  0  0  0  0  0  0  0  0  0
   38.9664  -21.3368   37.3875 C   0  0  0  0  0  0  0  0  0  0  0  0
   39.1045  -22.5433   36.9729 O   0  0  0  0  0  0  0  0  0  0  0  0
   40.0610  -20.7082   38.1241 C   0  0  0  0  0  0  0  0  0  0  0  0
   40.9512  -19.8198   37.5809 C   0  0  0  0  0  0  0  0  0  0  0  0
   41.9608  -19.2817   38.3852 C   0  0  0  0  0  0  0  0  0  0  0  0
   42.1035  -19.6075   39.7141 C   0  0  0  0  0  0  0  0  0  0  0  0
   43.5071  -18.8427   40.7814 Br  0  0  0  0  0  0  0  0  0  0  0  0
   41.2108  -20.4963   40.2517 C   0  0  0  0  0  0  0  0  0  0  0  0
   40.2059  -21.0352   39.4613 C   0  0  0  0  0  0  0  0  0  0  0  0
 15 16  1  0  0  0
 16 17  2  0  0  0
 16  1  1  0  0  0
  1  2  2  0  0  0
  2  3  1  0  0  0
  3  4  2  0  0  0
  4  5  1  0  0  0
  5  6  1  0  0  0
  5  7  2  0  0  0
  7  8  1  0  0  0
  7  9  1  0  0  0
  9 10  2  0  0  0
 10 11  1  0  0  0
 11 12  2  0  0  0
 11 19  1  0  0  0
 19 20  2  0  0  0
 19 21  1  0  0  0
 21 22  2  0  0  0
 22 23  1  0  0  0
 23 24  2  0  0  0
 24 25  1  0  0  0
 24 26  1  0  0  0
 26 27  2  0  0  0
 12  1  1  0  0  0
 27 21  1  0  0  0
 10  3  1  0  0  0
 15 18  1  0  0  0
  6 13  1  0  0  0
  8 14  1  0  0  0
M  END
> <minimizedAffinity>
-4.58388

> <CNNscore>
0.2752445638

> <CNNaffinity>
4.2636632919

> <CNN_VS>
1.1735501289

> <CNNaffinity_variance>
0.0291462503

$$$$
[H]OC(=O)c1nc(C(=O)c2c([H])c([H])c(Br)c([H])c2[H])c2c([H])c(O[H])c(O[H])c([H])c2c1[H]


 27 29  0  0  0  0  0  0  0  0999 V2000
   35.0494  -20.4298   37.7798 C   0  0  0  0  0  0  0  0  0  0  0  0
   36.3081  -20.8411   38.1518 C   0  0  0  0  0  0  0  0  0  0  0  0
   37.4286  -20.2000   37.6611 C   0  0  0  0  0  0  0  0  0  0  0  0
   38.6785  -20.6473   38.0485 C   0  0  0  0  0  0  0  0  0  0  0  0
   39.8141  -20.0561   37.5839 C   0  0  0  0  0  0  0  0  0  0  0  0
   41.0799  -20.4864   37.9580 O   0  0  0  0  0  0  0  0  0  0  0  0
   39.6760  -19.0047   36.7205 C   0  0  0  0  0  0  0  0  0  0  0  0
   40.8236  -18.3886   36.2350 O   0  0  0  0  0  0  0  0  0  0  0  0
   38.4312  -18.5286   36.3101 C   0  0  0  0  0  0  0  0  0  0  0  0
   37.2752  -19.1211   36.7772 C   0  0  0  0  0  0  0  0  0  0  0  0
   36.0014  -18.7349   36.4270 C   0  0  0  0  0  0  0  0  0  0  0  0
   34.9533  -19.4111   36.9470 N   0  0  0  0  0  0  0  0  0  0  0  0
   41.2533  -21.2442   38.5815 H   0  0  0  0  0  0  0  0  0  0  0  0
   40.7522  -17.6148   35.5999 H   0  0  0  0  0  0  0  0  0  0  0  0
   33.0834  -21.9666   37.6187 O   0  0  0  0  0  0  0  0  0  0  0  0
   33.9099  -21.1427   38.3272 C   0  0  0  0  0  0  0  0  0  0  0  0
   33.6618  -20.9891   39.5599 O   0  0  0  0  0  0  0  0  0  0  0  0
   32.3726  -21.7104   36.9774 H   0  0  0  0  0  0  0  0  0  0  0  0
   35.8224  -17.5871   35.5605 C   0  0  0  0  0  0  0  0  0  0  0  0
   35.9946  -17.8004   34.3069 O   0  0  0  0  0  0  0  0  0  0  0  0
   35.4674  -16.2430   36.0111 C   0  0  0  0  0  0  0  0  0  0  0  0
   36.3539  -15.3448   36.5444 C   0  0  0  0  0  0  0  0  0  0  0  0
   35.8977  -14.0840   36.9419 C   0  0  0  0  0  0  0  0  0  0  0  0
   34.5827  -13.6986   36.8207 C   0  0  0  0  0  0  0  0  0  0  0  0
   34.0008  -11.9546   37.3809 Br  0  0  0  0  0  0  0  0  0  0  0  0
   33.7009  -14.6007   36.2871 C   0  0  0  0  0  0  0  0  0  0  0  0
   34.1445  -15.8539   35.8899 C   0  0  0  0  0  0  0  0  0  0  0  0
 15 16  1  0  0  0
 16 17  2  0  0  0
 16  1  1  0  0  0
  1  2  2  0  0  0
  2  3  1  0  0  0
  3  4  2  0  0  0
  4  5  1  0  0  0
  5  6  1  0  0  0
  5  7  2  0  0  0
  7  8  1  0  0  0
  7  9  1  0  0  0
  9 10  2  0  0  0
 10 11  1  0  0  0
 11 12  2  0  0  0
 11 19  1  0  0  0
 19 20  2  0  0  0
 19 21  1  0  0  0
 21 22  2  0  0  0
 22 23  1  0  0  0
 23 24  2  0  0  0
 24 25  1  0  0  0
 24 26  1  0  0  0
 26 27  2  0  0  0
 12  1  1  0  0  0
 27 21  1  0  0  0
 10  3  1  0  0  0
 15 18  1  0  0  0
  6 13  1  0  0  0
  8 14  1  0  0  0
M  END
> <minimizedAffinity>
-6.90788

> <CNNscore>
0.2744560242

> <CNNaffinity>
4.5779685974

> <CNN_VS>
1.2564510107

> <CNNaffinity_variance>
0.0998521596

$$$$
[H]OC(=O)c1nc(C(=O)c2c([H])c([H])c(Br)c([H])c2[H])c2c([H])c(O[H])c(O[H])c([H])c2c1[H]


 27 29  0  0  0  0  0  0  0  0999 V2000
   34.6526   -9.9259   36.3179 C   0  0  0  0  0  0  0  0  0  0  0  0
   33.3948   -9.7679   36.8514 C   0  0  0  0  0  0  0  0  0  0  0  0
   32.7777  -10.8114   37.5129 C   0  0  0  0  0  0  0  0  0  0  0  0
   31.5085  -10.6199   38.0274 C   0  0  0  0  0  0  0  0  0  0  0  0
   30.8531  -11.6210   38.6781 C   0  0  0  0  0  0  0  0  0  0  0  0
   29.5791  -11.4535   39.2036 O   0  0  0  0  0  0  0  0  0  0  0  0
   31.4932  -12.8226   38.8051 C   0  0  0  0  0  0  0  0  0  0  0  0
   30.8402  -13.8568   39.4656 O   0  0  0  0  0  0  0  0  0  0  0  0
   32.7726  -13.0491   38.2984 C   0  0  0  0  0  0  0  0  0  0  0  0
   33.4446  -12.0396   37.6388 C   0  0  0  0  0  0  0  0  0  0  0  0
   34.7026  -12.1627   37.0944 C   0  0  0  0  0  0  0  0  0  0  0  0
   35.2415  -11.0978   36.4607 N   0  0  0  0  0  0  0  0  0  0  0  0
   29.0558  -10.6072   39.1474 H   0  0  0  0  0  0  0  0  0  0  0  0
   31.2860  -14.7495   39.5734 H   0  0  0  0  0  0  0  0  0  0  0  0
   36.4230   -8.1915   35.9854 O   0  0  0  0  0  0  0  0  0  0  0  0
   35.2496   -8.7941   35.6332 C   0  0  0  0  0  0  0  0  0  0  0  0
   34.6342   -8.3276   34.6290 O   0  0  0  0  0  0  0  0  0  0  0  0
   36.5867   -7.5750   36.7439 H   0  0  0  0  0  0  0  0  0  0  0  0
   35.4293  -13.4051   37.2642 C   0  0  0  0  0  0  0  0  0  0  0  0
   36.3820  -13.3830   38.1235 O   0  0  0  0  0  0  0  0  0  0  0  0
   35.1526  -14.6445   36.5410 C   0  0  0  0  0  0  0  0  0  0  0  0
   33.9175  -15.0106   36.0745 C   0  0  0  0  0  0  0  0  0  0  0  0
   33.7729  -16.2240   35.3945 C   0  0  0  0  0  0  0  0  0  0  0  0
   34.8273  -17.0785   35.1693 C   0  0  0  0  0  0  0  0  0  0  0  0
   34.5813  -18.7370   34.2294 Br  0  0  0  0  0  0  0  0  0  0  0  0
   36.0595  -16.7074   35.6380 C   0  0  0  0  0  0  0  0  0  0  0  0
   36.2124  -15.5054   36.3137 C   0  0  0  0  0  0  0  0  0  0  0  0
 15 16  1  0  0  0
 16 17  2  0  0  0
 16  1  1  0  0  0
  1  2  2  0  0  0
  2  3  1  0  0  0
  3  4  2  0  0  0
  4  5  1  0  0  0
  5  6  1  0  0  0
  5  7  2  0  0  0
  7  8  1  0  0  0
  7  9  1  0  0  0
  9 10  2  0  0  0
 10 11  1  0  0  0
 11 12  2  0  0  0
 11 19  1  0  0  0
 19 20  2  0  0  0
 19 21  1  0  0  0
 21 22  2  0  0  0
 22 23  1  0  0  0
 23 24  2  0  0  0
 24 25  1  0  0  0
 24 26  1  0  0  0
 26 27  2  0  0  0
 12  1  1  0  0  0
 27 21  1  0  0  0
 10  3  1  0  0  0
 15 18  1  0  0  0
  6 13  1  0  0  0
  8 14  1  0  0  0
M  END
> <minimizedAffinity>
-6.48513

> <CNNscore>
0.2527160645

> <CNNaffinity>
5.2329292297

> <CNN_VS>
1.3224452734

> <CNNaffinity_variance>
0.0668179244

$$$$
[H]OC(=O)c1nc(C(=O)c2c([H])c([H])c(Br)c([H])c2[H])c2c([H])c(O[H])c(O[H])c([H])c2c1[H]


 27 29  0  0  0  0  0  0  0  0999 V2000
   33.5499  -18.3381   35.0068 C   0  0  0  0  0  0  0  0  0  0  0  0
   34.4696  -19.1096   34.3353 C   0  0  0  0  0  0  0  0  0  0  0  0
   35.8231  -18.8971   34.5091 C   0  0  0  0  0  0  0  0  0  0  0  0
   36.7191  -19.6848   33.8096 C   0  0  0  0  0  0  0  0  0  0  0  0
   38.0634  -19.5074   33.9378 C   0  0  0  0  0  0  0  0  0  0  0  0
   38.9826  -20.2851   33.2469 O   0  0  0  0  0  0  0  0  0  0  0  0
   38.4971  -18.5231   34.7821 C   0  0  0  0  0  0  0  0  0  0  0  0
   39.8657  -18.3264   34.9258 O   0  0  0  0  0  0  0  0  0  0  0  0
   37.6210  -17.7115   35.5022 C   0  0  0  0  0  0  0  0  0  0  0  0
   36.2571  -17.8855   35.3792 C   0  0  0  0  0  0  0  0  0  0  0  0
   35.3100  -17.1333   36.0362 C   0  0  0  0  0  0  0  0  0  0  0  0
   34.0036  -17.3990   35.8147 N   0  0  0  0  0  0  0  0  0  0  0  0
   38.7370  -21.0176   32.6173 H   0  0  0  0  0  0  0  0  0  0  0  0
   40.2124  -17.6111   35.5385 H   0  0  0  0  0  0  0  0  0  0  0  0
   31.1281  -18.2413   35.6215 O   0  0  0  0  0  0  0  0  0  0  0  0
   32.1416  -18.6073   34.7831 C   0  0  0  0  0  0  0  0  0  0  0  0
   31.8264  -19.2311   33.7265 O   0  0  0  0  0  0  0  0  0  0  0  0
   30.8738  -18.6548   36.4855 H   0  0  0  0  0  0  0  0  0  0  0  0
   35.7395  -16.1224   36.9818 C   0  0  0  0  0  0  0  0  0  0  0  0
   36.5530  -16.5176   37.8920 O   0  0  0  0  0  0  0  0  0  0  0  0
   35.3180  -14.7232   36.9633 C   0  0  0  0  0  0  0  0  0  0  0  0
   35.8752  -13.7562   36.1688 C   0  0  0  0  0  0  0  0  0  0  0  0
   35.3882  -12.4472   36.2374 C   0  0  0  0  0  0  0  0  0  0  0  0
   34.3619  -12.0804   37.0769 C   0  0  0  0  0  0  0  0  0  0  0  0
   33.7249  -10.2680   37.1377 Br  0  0  0  0  0  0  0  0  0  0  0  0
   33.8088  -13.0513   37.8691 C   0  0  0  0  0  0  0  0  0  0  0  0
   34.2856  -14.3527   37.8077 C   0  0  0  0  0  0  0  0  0  0  0  0
 15 16  1  0  0  0
 16 17  2  0  0  0
 16  1  1  0  0  0
  1  2  2  0  0  0
  2  3  1  0  0  0
  3  4  2  0  0  0
  4  5  1  0  0  0
  5  6  1  0  0  0
  5  7  2  0  0  0
  7  8  1  0  0  0
  7  9  1  0  0  0
  9 10  2  0  0  0
 10 11  1  0  0  0
 11 12  2  0  0  0
 11 19  1  0  0  0
 19 20  2  0  0  0
 19 21  1  0  0  0
 21 22  2  0  0  0
 22 23  1  0  0  0
 23 24  2  0  0  0
 24 25  1  0  0  0
 24 26  1  0  0  0
 26 27  2  0  0  0
 12  1  1  0  0  0
 27 21  1  0  0  0
 10  3  1  0  0  0
 15 18  1  0  0  0
  6 13  1  0  0  0
  8 14  1  0  0  0
M  END
> <minimizedAffinity>
-7.10260

> <CNNscore>
0.2470597029

> <CNNaffinity>
4.6144123077

> <CNN_VS>
1.1400353909

> <CNNaffinity_variance>
0.0955383927

$$$$
[H]O[C@@]([H])(C([H])([H])N([H])C(=O)c1c(C([H])([H])[H])c(/C([H])=C2\C(=O)N([H])c3c([H])c([H])c(F)c([H])c32)n([H])c1C([H])([H])[H])C([H])([H])N1C([H])([H])C([H])([H])C([H])([H])C1([H])[H]


 35 38  0  0  0  0  0  0  0  0999 V2000
   33.4047  -18.0921   35.6075 C   0  0  0  0  0  0  0  0  0  0  0  0
   34.2666  -16.9161   35.9480 C   0  0  0  0  0  0  0  0  0  0  0  0
   33.9301  -15.6191   35.6757 N   0  0  0  0  0  0  0  0  0  0  0  0
   34.8739  -14.7689   36.0906 C   0  0  0  0  0  0  0  0  0  0  0  0
   35.8462  -15.5773   36.6499 C   0  0  0  0  0  0  0  0  0  0  0  0
   37.1006  -15.0479   37.2521 C   0  0  0  0  0  0  0  0  0  0  0  0
   35.4837  -16.9197   36.5691 C   0  0  0  0  0  0  0  0  0  0  0  0
   33.0359  -15.3598   35.2180 H   0  0  0  0  0  0  0  0  0  0  0  0
   34.9697  -13.3173   36.0061 C   0  0  0  0  0  0  0  0  0  0  0  0
   34.1922  -12.4604   36.6380 C   0  0  0  0  0  0  0  0  0  0  0  0
   33.0987  -12.7674   37.5233 C   0  0  0  0  0  0  0  0  0  0  0  0
   32.6633  -13.9009   37.8362 O   0  0  0  0  0  0  0  0  0  0  0  0
   32.5891  -11.4999   37.9866 N   0  0  0  0  0  0  0  0  0  0  0  0
   33.3461  -10.4561   37.4021 C   0  0  0  0  0  0  0  0  0  0  0  0
   33.2604   -9.0629   37.5220 C   0  0  0  0  0  0  0  0  0  0  0  0
   34.1107   -8.2084   36.8547 C   0  0  0  0  0  0  0  0  0  0  0  0
   35.0808   -8.7620   36.0392 C   0  0  0  0  0  0  0  0  0  0  0  0
   35.9189   -7.9198   35.3813 F   0  0  0  0  0  0  0  0  0  0  0  0
   35.1692  -10.1368   35.9183 C   0  0  0  0  0  0  0  0  0  0  0  0
   34.3159  -10.9804   36.5878 C   0  0  0  0  0  0  0  0  0  0  0  0
   31.7945  -11.4119   38.6414 H   0  0  0  0  0  0  0  0  0  0  0  0
   36.3130  -18.0000   37.0636 C   0  0  0  0  0  0  0  0  0  0  0  0
   35.9355  -18.5883   38.1512 O   0  0  0  0  0  0  0  0  0  0  0  0
   37.4855  -18.4927   36.5052 N   0  0  0  0  0  0  0  0  0  0  0  0
   37.8255  -18.0040   35.6184 H   0  0  0  0  0  0  0  0  0  0  0  0
   38.3330  -19.5562   36.9314 C   0  0  0  0  0  0  0  0  0  0  0  0
   38.1337  -20.9051   36.3576 C   0  0  0  0  0  0  0  0  0  0  0  0
   38.5760  -21.9715   37.0968 O   0  0  0  0  0  0  0  0  0  0  0  0
   39.5852  -21.9503   37.0891 H   0  0  0  0  0  0  0  0  0  0  0  0
   38.8274  -20.9659   34.9889 C   0  0  0  0  0  0  0  0  0  0  0  0
   39.8638  -20.0370   34.8264 N   0  0  0  0  0  0  0  0  0  0  0  0
   39.8000  -19.0900   33.7786 C   0  0  0  0  0  0  0  0  0  0  0  0
   41.2249  -18.7743   33.3557 C   0  0  0  0  0  0  0  0  0  0  0  0
   42.0849  -19.3943   34.4316 C   0  0  0  0  0  0  0  0  0  0  0  0
   41.1969  -20.5309   34.9228 C   0  0  0  0  0  0  0  0  0  0  0  0
  1  2  1  0  0  0
  2  3  1  0  0  0
  3  4  1  0  0  0
  4  9  1  0  0  0
  9 10  2  0  0  0
 10 11  1  0  0  0
 11 12  2  0  0  0
 11 13  1  0  0  0
 13 14  1  0  0  0
 14 15  2  0  0  0
 15 16  1  0  0  0
 16 17  2  0  0  0
 17 18  1  0  0  0
 17 19  1  0  0  0
 19 20  2  0  0  0
  4  5  2  0  0  0
  5  6  1  0  0  0
  5  7  1  0  0  0
  7 22  1  0  0  0
 22 23  2  0  0  0
 22 24  1  0  0  0
 24 26  1  0  0  0
 26 27  1  0  0  0
 27 28  1  0  0  0
 27 30  1  0  0  0
 30 31  1  0  0  0
 31 32  1  0  0  0
 32 33  1  0  0  0
 33 34  1  0  0  0
 34 35  1  0  0  0
  7  2  2  0  0  0
 35 31  1  0  0  0
 20 10  1  0  0  0
 20 14  1  0  0  0
  3  8  1  0  0  0
 13 21  1  0  0  0
 24 25  1  0  0  0
 28 29  1  0  0  0
M  END
> <minimizedAffinity>
-6.98588

> <CNNscore>
0.5668579340

> <CNNaffinity>
6.1287755966

> <CNN_VS>
3.4741451740

> <CNNaffinity_variance>
0.1135974079

$$$$
[H]O[C@@]([H])(C([H])([H])N([H])C(=O)c1c(C([H])([H])[H])c(/C([H])=C2\C(=O)N([H])c3c([H])c([H])c(F)c([H])c32)n([H])c1C([H])([H])[H])C([H])([H])N1C([H])([H])C([H])([H])C([H])([H])C1([H])[H]


 35 38  0  0  0  0  0  0  0  0999 V2000
   33.7299  -18.1570   35.6397 C   0  0  0  0  0  0  0  0  0  0  0  0
   34.5557  -16.9489   35.9559 C   0  0  0  0  0  0  0  0  0  0  0  0
   34.1586  -15.6654   35.7019 N   0  0  0  0  0  0  0  0  0  0  0  0
   35.0818  -14.7797   36.0881 C   0  0  0  0  0  0  0  0  0  0  0  0
   36.1043  -15.5507   36.6094 C   0  0  0  0  0  0  0  0  0  0  0  0
   37.3568  -14.9738   37.1705 C   0  0  0  0  0  0  0  0  0  0  0  0
   35.7928  -16.9062   36.5346 C   0  0  0  0  0  0  0  0  0  0  0  0
   33.2395  -15.4403   35.2766 H   0  0  0  0  0  0  0  0  0  0  0  0
   35.1168  -13.3251   36.0075 C   0  0  0  0  0  0  0  0  0  0  0  0
   34.3152  -12.5027   36.6548 C   0  0  0  0  0  0  0  0  0  0  0  0
   33.2495  -12.8569   37.5562 C   0  0  0  0  0  0  0  0  0  0  0  0
   32.8658  -14.0082   37.8718 O   0  0  0  0  0  0  0  0  0  0  0  0
   32.6960  -11.6127   38.0322 N   0  0  0  0  0  0  0  0  0  0  0  0
   33.4004  -10.5371   37.4397 C   0  0  0  0  0  0  0  0  0  0  0  0
   33.2597   -9.1488   37.5662 C   0  0  0  0  0  0  0  0  0  0  0  0
   34.0636   -8.2583   36.8887 C   0  0  0  0  0  0  0  0  0  0  0  0
   35.0424   -8.7693   36.0558 C   0  0  0  0  0  0  0  0  0  0  0  0
   35.8347   -7.8914   35.3879 F   0  0  0  0  0  0  0  0  0  0  0  0
   35.1849  -10.1389   35.9284 C   0  0  0  0  0  0  0  0  0  0  0  0
   34.3776  -11.0187   36.6082 C   0  0  0  0  0  0  0  0  0  0  0  0
   31.9091  -11.5593   38.6999 H   0  0  0  0  0  0  0  0  0  0  0  0
   36.6810  -17.9543   36.9947 C   0  0  0  0  0  0  0  0  0  0  0  0
   36.2344  -18.7523   37.9086 O   0  0  0  0  0  0  0  0  0  0  0  0
   37.9774  -18.2147   36.5693 N   0  0  0  0  0  0  0  0  0  0  0  0
   38.3719  -17.5515   35.8307 H   0  0  0  0  0  0  0  0  0  0  0  0
   38.8909  -19.2330   36.9683 C   0  0  0  0  0  0  0  0  0  0  0  0
   40.3233  -19.0830   36.6307 C   0  0  0  0  0  0  0  0  0  0  0  0
   40.7008  -19.3946   35.3502 O   0  0  0  0  0  0  0  0  0  0  0  0
   40.6235  -20.3955   35.2445 H   0  0  0  0  0  0  0  0  0  0  0  0
   41.1491  -19.9565   37.5865 C   0  0  0  0  0  0  0  0  0  0  0  0
   41.6562  -19.2724   38.6993 N   0  0  0  0  0  0  0  0  0  0  0  0
   42.8967  -18.6007   38.6051 C   0  0  0  0  0  0  0  0  0  0  0  0
   43.5410  -18.6285   39.9810 C   0  0  0  0  0  0  0  0  0  0  0  0
   42.4449  -19.1092   40.9023 C   0  0  0  0  0  0  0  0  0  0  0  0
   41.5856  -19.9391   39.9566 C   0  0  0  0  0  0  0  0  0  0  0  0
  1  2  1  0  0  0
  2  3  1  0  0  0
  3  4  1  0  0  0
  4  9  1  0  0  0
  9 10  2  0  0  0
 10 11  1  0  0  0
 11 12  2  0  0  0
 11 13  1  0  0  0
 13 14  1  0  0  0
 14 15  2  0  0  0
 15 16  1  0  0  0
 16 17  2  0  0  0
 17 18  1  0  0  0
 17 19  1  0  0  0
 19 20  2  0  0  0
  4  5  2  0  0  0
  5  6  1  0  0  0
  5  7  1  0  0  0
  7 22  1  0  0  0
 22 23  2  0  0  0
 22 24  1  0  0  0
 24 26  1  0  0  0
 26 27  1  0  0  0
 27 28  1  0  0  0
 27 30  1  0  0  0
 30 31  1  0  0  0
 31 32  1  0  0  0
 32 33  1  0  0  0
 33 34  1  0  0  0
 34 35  1  0  0  0
  7  2  2  0  0  0
 35 31  1  0  0  0
 20 10  1  0  0  0
 20 14  1  0  0  0
  3  8  1  0  0  0
 13 21  1  0  0  0
 24 25  1  0  0  0
 28 29  1  0  0  0
M  END
> <minimizedAffinity>
-7.43299

> <CNNscore>
0.5334752798

> <CNNaffinity>
6.1674270630

> <CNN_VS>
3.2901699543

> <CNNaffinity_variance>
0.0408013575

$$$$
[H]O[C@@]([H])(C([H])([H])N([H])C(=O)c1c(C([H])([H])[H])c(/C([H])=C2\C(=O)N([H])c3c([H])c([H])c(F)c([H])c32)n([H])c1C([H])([H])[H])C([H])([H])N1C([H])([H])C([H])([H])C([H])([H])C1([H])[H]


 35 38  0  0  0  0  0  0  0  0999 V2000
   32.8064  -22.0785   35.3144 C   0  0  0  0  0  0  0  0  0  0  0  0
   33.5828  -21.2013   36.2467 C   0  0  0  0  0  0  0  0  0  0  0  0
   34.1002  -19.9850   35.8968 N   0  0  0  0  0  0  0  0  0  0  0  0
   34.7409  -19.4107   36.9193 C   0  0  0  0  0  0  0  0  0  0  0  0
   34.6153  -20.3147   37.9579 C   0  0  0  0  0  0  0  0  0  0  0  0
   35.1842  -20.0838   39.3142 C   0  0  0  0  0  0  0  0  0  0  0  0
   33.8960  -21.4375   37.5557 C   0  0  0  0  0  0  0  0  0  0  0  0
   33.9772  -19.5786   34.9502 H   0  0  0  0  0  0  0  0  0  0  0  0
   35.4563  -18.1453   37.0215 C   0  0  0  0  0  0  0  0  0  0  0  0
   35.0170  -16.9801   36.5888 C   0  0  0  0  0  0  0  0  0  0  0  0
   33.7652  -16.7131   35.9288 C   0  0  0  0  0  0  0  0  0  0  0  0
   32.8741  -17.5383   35.6167 O   0  0  0  0  0  0  0  0  0  0  0  0
   33.7334  -15.2912   35.6881 N   0  0  0  0  0  0  0  0  0  0  0  0
   34.9262  -14.7119   36.1839 C   0  0  0  0  0  0  0  0  0  0  0  0
   35.3825  -13.3873   36.1992 C   0  0  0  0  0  0  0  0  0  0  0  0
   36.5974  -13.0289   36.7411 C   0  0  0  0  0  0  0  0  0  0  0  0
   37.3854  -14.0256   37.2874 C   0  0  0  0  0  0  0  0  0  0  0  0
   38.5831  -13.6723   37.8215 F   0  0  0  0  0  0  0  0  0  0  0  0
   36.9386  -15.3343   37.2747 C   0  0  0  0  0  0  0  0  0  0  0  0
   35.7253  -15.6815   36.7312 C   0  0  0  0  0  0  0  0  0  0  0  0
   32.9451  -14.8110   35.2235 H   0  0  0  0  0  0  0  0  0  0  0  0
   33.6154  -22.5590   38.4290 C   0  0  0  0  0  0  0  0  0  0  0  0
   34.2968  -23.6417   38.2425 O   0  0  0  0  0  0  0  0  0  0  0  0
   32.6882  -22.6184   39.4615 N   0  0  0  0  0  0  0  0  0  0  0  0
   32.0995  -21.7406   39.6159 H   0  0  0  0  0  0  0  0  0  0  0  0
   32.3779  -23.6791   40.3611 C   0  0  0  0  0  0  0  0  0  0  0  0
   31.4791  -23.4090   41.5047 C   0  0  0  0  0  0  0  0  0  0  0  0
   30.3577  -22.6606   41.2566 O   0  0  0  0  0  0  0  0  0  0  0  0
   30.6572  -21.7145   41.0715 H   0  0  0  0  0  0  0  0  0  0  0  0
   32.2810  -22.6980   42.6046 C   0  0  0  0  0  0  0  0  0  0  0  0
   32.2685  -21.2997   42.5144 N   0  0  0  0  0  0  0  0  0  0  0  0
   33.4736  -20.6009   42.2728 C   0  0  0  0  0  0  0  0  0  0  0  0
   33.3616  -19.2434   42.9463 C   0  0  0  0  0  0  0  0  0  0  0  0
   31.9054  -19.1311   43.3313 C   0  0  0  0  0  0  0  0  0  0  0  0
   31.5136  -20.5944   43.4956 C   0  0  0  0  0  0  0  0  0  0  0  0
  1  2  1  0  0  0
  2  3  1  0  0  0
  3  4  1  0  0  0
  4  9  1  0  0  0
  9 10  2  0  0  0
 10 11  1  0  0  0
 11 12  2  0  0  0
 11 13  1  0  0  0
 13 14  1  0  0  0
 14 15  2  0  0  0
 15 16  1  0  0  0
 16 17  2  0  0  0
 17 18  1  0  0  0
 17 19  1  0  0  0
 19 20  2  0  0  0
  4  5  2  0  0  0
  5  6  1  0  0  0
  5  7  1  0  0  0
  7 22  1  0  0  0
 22 23  2  0  0  0
 22 24  1  0  0  0
 24 26  1  0  0  0
 26 27  1  0  0  0
 27 28  1  0  0  0
 27 30  1  0  0  0
 30 31  1  0  0  0
 31 32  1  0  0  0
 32 33  1  0  0  0
 33 34  1  0  0  0
 34 35  1  0  0  0
  7  2  2  0  0  0
 35 31  1  0  0  0
 20 10  1  0  0  0
 20 14  1  0  0  0
  3  8  1  0  0  0
 13 21  1  0  0  0
 24 25  1  0  0  0
 28 29  1  0  0  0
M  END
> <minimizedAffinity>
-6.34847

> <CNNscore>
0.4822506607

> <CNNaffinity>
5.0589585304

> <CNN_VS>
2.4396860600

> <CNNaffinity_variance>
0.2249061167

$$$$
[H]O[C@@]([H])(C([H])([H])N([H])C(=O)c1c(C([H])([H])[H])c(/C([H])=C2\C(=O)N([H])c3c([H])c([H])c(F)c([H])c32)n([H])c1C([H])([H])[H])C([H])([H])N1C([H])([H])C([H])([H])C([H])([H])C1([H])[H]


 35 38  0  0  0  0  0  0  0  0999 V2000
   38.8459  -18.7433   33.5129 C   0  0  0  0  0  0  0  0  0  0  0  0
   37.9139  -19.2340   34.5769 C   0  0  0  0  0  0  0  0  0  0  0  0
   36.5947  -19.5223   34.3621 N   0  0  0  0  0  0  0  0  0  0  0  0
   35.9961  -19.9468   35.4790 C   0  0  0  0  0  0  0  0  0  0  0  0
   36.9930  -19.9221   36.4367 C   0  0  0  0  0  0  0  0  0  0  0  0
   36.7741  -20.3249   37.8531 C   0  0  0  0  0  0  0  0  0  0  0  0
   38.1958  -19.4796   35.8912 C   0  0  0  0  0  0  0  0  0  0  0  0
   36.1486  -19.4291   33.4301 H   0  0  0  0  0  0  0  0  0  0  0  0
   34.6201  -20.3465   35.7441 C   0  0  0  0  0  0  0  0  0  0  0  0
   33.5452  -19.6625   35.4057 C   0  0  0  0  0  0  0  0  0  0  0  0
   33.4998  -18.3957   34.7223 C   0  0  0  0  0  0  0  0  0  0  0  0
   34.4690  -17.6939   34.3476 O   0  0  0  0  0  0  0  0  0  0  0  0
   32.1023  -18.0816   34.5513 N   0  0  0  0  0  0  0  0  0  0  0  0
   31.3229  -19.1215   35.1127 C   0  0  0  0  0  0  0  0  0  0  0  0
   29.9365  -19.2998   35.2076 C   0  0  0  0  0  0  0  0  0  0  0  0
   29.3712  -20.4055   35.8044 C   0  0  0  0  0  0  0  0  0  0  0  0
   30.2174  -21.3677   36.3248 C   0  0  0  0  0  0  0  0  0  0  0  0
   29.6601  -22.4576   36.9132 F   0  0  0  0  0  0  0  0  0  0  0  0
   31.5865  -21.1959   36.2328 C   0  0  0  0  0  0  0  0  0  0  0  0
   32.1404  -20.0891   35.6360 C   0  0  0  0  0  0  0  0  0  0  0  0
   31.7657  -17.2220   34.0868 H   0  0  0  0  0  0  0  0  0  0  0  0
   39.4156  -19.3395   36.6603 C   0  0  0  0  0  0  0  0  0  0  0  0
   39.7323  -18.1515   37.0601 O   0  0  0  0  0  0  0  0  0  0  0  0
   40.3052  -20.3405   37.0292 N   0  0  0  0  0  0  0  0  0  0  0  0
   40.0721  -21.3256   36.6883 H   0  0  0  0  0  0  0  0  0  0  0  0
   41.5059  -20.2702   37.7934 C   0  0  0  0  0  0  0  0  0  0  0  0
   42.7610  -19.8695   37.1208 C   0  0  0  0  0  0  0  0  0  0  0  0
   43.8876  -20.5933   37.4147 O   0  0  0  0  0  0  0  0  0  0  0  0
   44.1490  -20.3778   38.3656 H   0  0  0  0  0  0  0  0  0  0  0  0
   43.0509  -18.3987   37.4537 C   0  0  0  0  0  0  0  0  0  0  0  0
   43.3640  -17.6069   36.3409 N   0  0  0  0  0  0  0  0  0  0  0  0
   43.1848  -18.1250   35.0377 C   0  0  0  0  0  0  0  0  0  0  0  0
   44.2247  -17.4785   34.1380 C   0  0  0  0  0  0  0  0  0  0  0  0
   44.8017  -16.3584   34.9710 C   0  0  0  0  0  0  0  0  0  0  0  0
   44.5902  -16.8826   36.3860 C   0  0  0  0  0  0  0  0  0  0  0  0
  1  2  1  0  0  0
  2  3  1  0  0  0
  3  4  1  0  0  0
  4  9  1  0  0  0
  9 10  2  0  0  0
 10 11  1  0  0  0
 11 12  2  0  0  0
 11 13  1  0  0  0
 13 14  1  0  0  0
 14 15  2  0  0  0
 15 16  1  0  0  0
 16 17  2  0  0  0
 17 18  1  0  0  0
 17 19  1  0  0  0
 19 20  2  0  0  0
  4  5  2  0  0  0
  5  6  1  0  0  0
  5  7  1  0  0  0
  7 22  1  0  0  0
 22 23  2  0  0  0
 22 24  1  0  0  0
 24 26  1  0  0  0
 26 27  1  0  0  0
 27 28  1  0  0  0
 27 30  1  0  0  0
 30 31  1  0  0  0
 31 32  1  0  0  0
 32 33  1  0  0  0
 33 34  1  0  0  0
 34 35  1  0  0  0
  7  2  2  0  0  0
 35 31  1  0  0  0
 20 10  1  0  0  0
 20 14  1  0  0  0
  3  8  1  0  0  0
 13 21  1  0  0  0
 24 25  1  0  0  0
 28 29  1  0  0  0
M  END
> <minimizedAffinity>
-5.50716

> <CNNscore>
0.4058944285

> <CNNaffinity>
5.0526952744

> <CNN_VS>
2.0508608818

> <CNNaffinity_variance>
0.2298126668

$$$$
[H]O[C@@]([H])(C([H])([H])N([H])C(=O)c1c(C([H])([H])[H])c(/C([H])=C2\C(=O)N([H])c3c([H])c([H])c(F)c([H])c32)n([H])c1C([H])([H])[H])C([H])([H])N1C([H])([H])C([H])([H])C([H])([H])C1([H])[H]


 35 38  0  0  0  0  0  0  0  0999 V2000
   37.3378  -15.9293   37.0842 C   0  0  0  0  0  0  0  0  0  0  0  0
   36.8372  -17.3270   36.8907 C   0  0  0  0  0  0  0  0  0  0  0  0
   35.5319  -17.6995   37.0547 N   0  0  0  0  0  0  0  0  0  0  0  0
   35.3586  -19.0025   36.8135 C   0  0  0  0  0  0  0  0  0  0  0  0
   36.6192  -19.4637   36.4821 C   0  0  0  0  0  0  0  0  0  0  0  0
   36.9024  -20.8819   36.1285 C   0  0  0  0  0  0  0  0  0  0  0  0
   37.5536  -18.4318   36.5256 C   0  0  0  0  0  0  0  0  0  0  0  0
   34.7887  -17.0251   37.3173 H   0  0  0  0  0  0  0  0  0  0  0  0
   34.1718  -19.8459   36.8757 C   0  0  0  0  0  0  0  0  0  0  0  0
   33.0330  -19.6125   36.2539 C   0  0  0  0  0  0  0  0  0  0  0  0
   32.7200  -18.4935   35.4031 C   0  0  0  0  0  0  0  0  0  0  0  0
   33.4574  -17.5203   35.1177 O   0  0  0  0  0  0  0  0  0  0  0  0
   31.3719  -18.7083   34.9369 N   0  0  0  0  0  0  0  0  0  0  0  0
   30.8801  -19.9168   35.4863 C   0  0  0  0  0  0  0  0  0  0  0  0
   29.6476  -20.5688   35.3498 C   0  0  0  0  0  0  0  0  0  0  0  0
   29.3661  -21.7603   35.9819 C   0  0  0  0  0  0  0  0  0  0  0  0
   30.3478  -22.3219   36.7779 C   0  0  0  0  0  0  0  0  0  0  0  0
   30.0703  -23.4963   37.4011 F   0  0  0  0  0  0  0  0  0  0  0  0
   31.5660  -21.6819   36.9149 C   0  0  0  0  0  0  0  0  0  0  0  0
   31.8366  -20.4935   36.2806 C   0  0  0  0  0  0  0  0  0  0  0  0
   30.8794  -18.0576   34.3030 H   0  0  0  0  0  0  0  0  0  0  0  0
   38.9610  -18.6187   36.2366 C   0  0  0  0  0  0  0  0  0  0  0  0
   39.7413  -18.8856   37.2322 O   0  0  0  0  0  0  0  0  0  0  0  0
   39.5897  -18.5455   35.0001 N   0  0  0  0  0  0  0  0  0  0  0  0
   38.9647  -18.3032   34.1685 H   0  0  0  0  0  0  0  0  0  0  0  0
   40.9581  -18.7338   34.6499 C   0  0  0  0  0  0  0  0  0  0  0  0
   41.5154  -20.1041   34.6484 C   0  0  0  0  0  0  0  0  0  0  0  0
   42.8728  -20.2280   34.5021 O   0  0  0  0  0  0  0  0  0  0  0  0
   43.1021  -19.9693   33.5537 H   0  0  0  0  0  0  0  0  0  0  0  0
   40.8491  -20.9060   33.5208 C   0  0  0  0  0  0  0  0  0  0  0  0
   40.5094  -22.2195   33.8708 N   0  0  0  0  0  0  0  0  0  0  0  0
   40.0928  -22.5091   35.1904 C   0  0  0  0  0  0  0  0  0  0  0  0
   40.5152  -23.9345   35.5044 C   0  0  0  0  0  0  0  0  0  0  0  0
   40.9379  -24.5060   34.1717 C   0  0  0  0  0  0  0  0  0  0  0  0
   41.3801  -23.2547   33.4231 C   0  0  0  0  0  0  0  0  0  0  0  0
  1  2  1  0  0  0
  2  3  1  0  0  0
  3  4  1  0  0  0
  4  9  1  0  0  0
  9 10  2  0  0  0
 10 11  1  0  0  0
 11 12  2  0  0  0
 11 13  1  0  0  0
 13 14  1  0  0  0
 14 15  2  0  0  0
 15 16  1  0  0  0
 16 17  2  0  0  0
 17 18  1  0  0  0
 17 19  1  0  0  0
 19 20  2  0  0  0
  4  5  2  0  0  0
  5  6  1  0  0  0
  5  7  1  0  0  0
  7 22  1  0  0  0
 22 23  2  0  0  0
 22 24  1  0  0  0
 24 26  1  0  0  0
 26 27  1  0  0  0
 27 28  1  0  0  0
 27 30  1  0  0  0
 30 31  1  0  0  0
 31 32  1  0  0  0
 32 33  1  0  0  0
 33 34  1  0  0  0
 34 35  1  0  0  0
  7  2  2  0  0  0
 35 31  1  0  0  0
 20 10  1  0  0  0
 20 14  1  0  0  0
  3  8  1  0  0  0
 13 21  1  0  0  0
 24 25  1  0  0  0
 28 29  1  0  0  0
M  END
> <minimizedAffinity>
-5.72934

> <CNNscore>
0.3916955292

> <CNNaffinity>
5.0329251289

> <CNN_VS>
1.9713742733

> <CNNaffinity_variance>
0.2025347501

$$$$
[H]O[C@@]([H])(C([H])([H])N([H])C(=O)c1c(C([H])([H])[H])c(/C([H])=C2\C(=O)N([H])c3c([H])c([H])c(F)c([H])c32)n([H])c1C([H])([H])[H])C([H])([H])N1C([H])([H])C([H])([H])C([H])([H])C1([H])[H]


 35 38  0  0  0  0  0  0  0  0999 V2000
   32.4584  -21.6145   34.2640 C   0  0  0  0  0  0  0  0  0  0  0  0
   33.2622  -20.9151   35.3158 C   0  0  0  0  0  0  0  0  0  0  0  0
   33.8260  -19.6805   35.1501 N   0  0  0  0  0  0  0  0  0  0  0  0
   34.4827  -19.2889   36.2462 C   0  0  0  0  0  0  0  0  0  0  0  0
   34.3186  -20.3318   37.1390 C   0  0  0  0  0  0  0  0  0  0  0  0
   34.8890  -20.3263   38.5141 C   0  0  0  0  0  0  0  0  0  0  0  0
   33.5601  -21.3547   36.5748 C   0  0  0  0  0  0  0  0  0  0  0  0
   33.7228  -19.1338   34.2745 H   0  0  0  0  0  0  0  0  0  0  0  0
   35.2439  -18.0803   36.5348 C   0  0  0  0  0  0  0  0  0  0  0  0
   34.8560  -16.8489   36.2681 C   0  0  0  0  0  0  0  0  0  0  0  0
   33.6257  -16.4413   35.6404 C   0  0  0  0  0  0  0  0  0  0  0  0
   32.7089  -17.1777   35.2050 O   0  0  0  0  0  0  0  0  0  0  0  0
   33.6518  -14.9995   35.6045 N   0  0  0  0  0  0  0  0  0  0  0  0
   34.8578  -14.5444   36.1896 C   0  0  0  0  0  0  0  0  0  0  0  0
   35.3639  -13.2547   36.3981 C   0  0  0  0  0  0  0  0  0  0  0  0
   36.5830  -13.0255   36.9977 C   0  0  0  0  0  0  0  0  0  0  0  0
   37.3239  -14.1203   37.4043 C   0  0  0  0  0  0  0  0  0  0  0  0
   38.5256  -13.8944   37.9953 F   0  0  0  0  0  0  0  0  0  0  0  0
   36.8279  -15.3951   37.2008 C   0  0  0  0  0  0  0  0  0  0  0  0
   35.6109  -15.6130   36.6012 C   0  0  0  0  0  0  0  0  0  0  0  0
   32.8896  -14.4271   35.2051 H   0  0  0  0  0  0  0  0  0  0  0  0
   33.2339  -22.5822   37.2720 C   0  0  0  0  0  0  0  0  0  0  0  0
   34.0142  -23.5961   37.0859 O   0  0  0  0  0  0  0  0  0  0  0  0
   32.1673  -22.8113   38.1319 N   0  0  0  0  0  0  0  0  0  0  0  0
   31.4985  -21.9917   38.2801 H   0  0  0  0  0  0  0  0  0  0  0  0
   31.8033  -23.9832   38.8564 C   0  0  0  0  0  0  0  0  0  0  0  0
   31.0412  -25.0456   38.1644 C   0  0  0  0  0  0  0  0  0  0  0  0
   31.5030  -25.4504   36.9387 O   0  0  0  0  0  0  0  0  0  0  0  0
   31.3396  -24.6968   36.2872 H   0  0  0  0  0  0  0  0  0  0  0  0
   29.5907  -24.5743   37.9845 C   0  0  0  0  0  0  0  0  0  0  0  0
   29.4659  -23.2837   37.4535 N   0  0  0  0  0  0  0  0  0  0  0  0
   28.6974  -22.3142   38.1380 C   0  0  0  0  0  0  0  0  0  0  0  0
   28.1105  -21.3740   37.0986 C   0  0  0  0  0  0  0  0  0  0  0  0
   28.8388  -21.7200   35.8214 C   0  0  0  0  0  0  0  0  0  0  0  0
   29.2026  -23.1807   36.0570 C   0  0  0  0  0  0  0  0  0  0  0  0
  1  2  1  0  0  0
  2  3  1  0  0  0
  3  4  1  0  0  0
  4  9  1  0  0  0
  9 10  2  0  0  0
 10 11  1  0  0  0
 11 12  2  0  0  0
 11 13  1  0  0  0
 13 14  1  0  0  0
 14 15  2  0  0  0
 15 16  1  0  0  0
 16 17  2  0  0  0
 17 18  1  0  0  0
 17 19  1  0  0  0
 19 20  2  0  0  0
  4  5  2  0  0  0
  5  6  1  0  0  0
  5  7  1  0  0  0
  7 22  1  0  0  0
 22 23  2  0  0  0
 22 24  1  0  0  0
 24 26  1  0  0  0
 26 27  1  0  0  0
 27 28  1  0  0  0
 27 30  1  0  0  0
 30 31  1  0  0  0
 31 32  1  0  0  0
 32 33  1  0  0  0
 33 34  1  0  0  0
 34 35  1  0  0  0
  7  2  2  0  0  0
 35 31  1  0  0  0
 20 10  1  0  0  0
 20 14  1  0  0  0
  3  8  1  0  0  0
 13 21  1  0  0  0
 24 25  1  0  0  0
 28 29  1  0  0  0
M  END
> <minimizedAffinity>
-6.43344

> <CNNscore>
0.3768933415

> <CNNaffinity>
5.0863032341

> <CNN_VS>
1.9169938564

> <CNNaffinity_variance>
0.2677952051

$$$$
[H]O[C@@]([H])(C([H])([H])N([H])C(=O)c1c(C([H])([H])[H])c(/C([H])=C2\C(=O)N([H])c3c([H])c([H])c(F)c([H])c32)n([H])c1C([H])([H])[H])C([H])([H])N1C([H])([H])C([H])([H])C([H])([H])C1([H])[H]


 35 38  0  0  0  0  0  0  0  0999 V2000
   35.4080  -19.0153   33.7630 C   0  0  0  0  0  0  0  0  0  0  0  0
   35.3394  -18.0049   34.8656 C   0  0  0  0  0  0  0  0  0  0  0  0
   34.3946  -17.0193   34.9398 N   0  0  0  0  0  0  0  0  0  0  0  0
   34.5600  -16.2606   36.0275 C   0  0  0  0  0  0  0  0  0  0  0  0
   35.6625  -16.8018   36.6624 C   0  0  0  0  0  0  0  0  0  0  0  0
   36.2138  -16.2672   37.9379 C   0  0  0  0  0  0  0  0  0  0  0  0
   36.1615  -17.8904   35.9512 C   0  0  0  0  0  0  0  0  0  0  0  0
   33.6444  -16.9121   34.2313 H   0  0  0  0  0  0  0  0  0  0  0  0
   33.8255  -15.1005   36.5155 C   0  0  0  0  0  0  0  0  0  0  0  0
   34.2721  -13.8602   36.5257 C   0  0  0  0  0  0  0  0  0  0  0  0
   35.5577  -13.3949   36.0735 C   0  0  0  0  0  0  0  0  0  0  0  0
   36.5010  -14.0814   35.6140 O   0  0  0  0  0  0  0  0  0  0  0  0
   35.5540  -11.9640   36.2566 N   0  0  0  0  0  0  0  0  0  0  0  0
   34.3085  -11.5714   36.8030 C   0  0  0  0  0  0  0  0  0  0  0  0
   33.8036  -10.3152   37.1636 C   0  0  0  0  0  0  0  0  0  0  0  0
   32.5406  -10.1474   37.6881 C   0  0  0  0  0  0  0  0  0  0  0  0
   31.7529  -11.2713   37.8590 C   0  0  0  0  0  0  0  0  0  0  0  0
   30.5079  -11.1060   38.3761 F   0  0  0  0  0  0  0  0  0  0  0  0
   32.2472  -12.5131   37.5040 C   0  0  0  0  0  0  0  0  0  0  0  0
   33.5086  -12.6697   36.9821 C   0  0  0  0  0  0  0  0  0  0  0  0
   36.3554  -11.3581   36.0145 H   0  0  0  0  0  0  0  0  0  0  0  0
   37.3211  -18.6516   36.3695 C   0  0  0  0  0  0  0  0  0  0  0  0
   37.1583  -19.5024   37.3292 O   0  0  0  0  0  0  0  0  0  0  0  0
   38.6111  -18.5807   35.8593 N   0  0  0  0  0  0  0  0  0  0  0  0
   38.7703  -17.8667   35.0810 H   0  0  0  0  0  0  0  0  0  0  0  0
   39.7835  -19.3089   36.2143 C   0  0  0  0  0  0  0  0  0  0  0  0
   40.9197  -18.5844   36.8247 C   0  0  0  0  0  0  0  0  0  0  0  0
   41.7486  -17.8936   35.9791 O   0  0  0  0  0  0  0  0  0  0  0  0
   42.2705  -18.5711   35.4428 H   0  0  0  0  0  0  0  0  0  0  0  0
   41.7808  -19.5871   37.6066 C   0  0  0  0  0  0  0  0  0  0  0  0
   42.2926  -19.0897   38.8124 N   0  0  0  0  0  0  0  0  0  0  0  0
   43.6898  -18.9502   38.9777 C   0  0  0  0  0  0  0  0  0  0  0  0
   44.0011  -19.1474   40.4518 C   0  0  0  0  0  0  0  0  0  0  0  0
   42.6519  -19.1210   41.1302 C   0  0  0  0  0  0  0  0  0  0  0  0
   41.7342  -19.6090   40.0160 C   0  0  0  0  0  0  0  0  0  0  0  0
  1  2  1  0  0  0
  2  3  1  0  0  0
  3  4  1  0  0  0
  4  9  1  0  0  0
  9 10  2  0  0  0
 10 11  1  0  0  0
 11 12  2  0  0  0
 11 13  1  0  0  0
 13 14  1  0  0  0
 14 15  2  0  0  0
 15 16  1  0  0  0
 16 17  2  0  0  0
 17 18  1  0  0  0
 17 19  1  0  0  0
 19 20  2  0  0  0
  4  5  2  0  0  0
  5  6  1  0  0  0
  5  7  1  0  0  0
  7 22  1  0  0  0
 22 23  2  0  0  0
 22 24  1  0  0  0
 24 26  1  0  0  0
 26 27  1  0  0  0
 27 28  1  0  0  0
 27 30  1  0  0  0
 30 31  1  0  0  0
 31 32  1  0  0  0
 32 33  1  0  0  0
 33 34  1  0  0  0
 34 35  1  0  0  0
  7  2  2  0  0  0
 35 31  1  0  0  0
 20 10  1  0  0  0
 20 14  1  0  0  0
  3  8  1  0  0  0
 13 21  1  0  0  0
 24 25  1  0  0  0
 28 29  1  0  0  0
M  END
> <minimizedAffinity>
-7.65842

> <CNNscore>
0.3551157117

> <CNNaffinity>
5.6346297264

> <CNN_VS>
2.0009455681

> <CNNaffinity_variance>
0.1581127197

$$$$
[H]O[C@@]([H])(C([H])([H])N([H])C(=O)c1c(C([H])([H])[H])c(/C([H])=C2\C(=O)N([H])c3c([H])c([H])c(F)c([H])c32)n([H])c1C([H])([H])[H])C([H])([H])N1C([H])([H])C([H])([H])C([H])([H])C1([H])[H]


 35 38  0  0  0  0  0  0  0  0999 V2000
   41.1818  -18.4534   33.5570 C   0  0  0  0  0  0  0  0  0  0  0  0
   40.0693  -19.0056   34.3930 C   0  0  0  0  0  0  0  0  0  0  0  0
   38.7750  -19.1138   33.9657 N   0  0  0  0  0  0  0  0  0  0  0  0
   37.9892  -19.6450   34.9072 C   0  0  0  0  0  0  0  0  0  0  0  0
   38.8373  -19.8797   35.9737 C   0  0  0  0  0  0  0  0  0  0  0  0
   38.3850  -20.4778   37.2598 C   0  0  0  0  0  0  0  0  0  0  0  0
   40.1385  -19.4864   35.6702 C   0  0  0  0  0  0  0  0  0  0  0  0
   38.4762  -18.8261   33.0148 H   0  0  0  0  0  0  0  0  0  0  0  0
   36.5609  -19.9331   34.9223 C   0  0  0  0  0  0  0  0  0  0  0  0
   35.6026  -19.0463   35.1049 C   0  0  0  0  0  0  0  0  0  0  0  0
   35.7575  -17.6326   35.3317 C   0  0  0  0  0  0  0  0  0  0  0  0
   36.8278  -16.9862   35.4266 O   0  0  0  0  0  0  0  0  0  0  0  0
   34.4233  -17.0938   35.4338 N   0  0  0  0  0  0  0  0  0  0  0  0
   33.4875  -18.1442   35.2757 C   0  0  0  0  0  0  0  0  0  0  0  0
   32.0865  -18.1541   35.2902 C   0  0  0  0  0  0  0  0  0  0  0  0
   31.3523  -19.3063   35.1130 C   0  0  0  0  0  0  0  0  0  0  0  0
   32.0384  -20.4906   34.9141 C   0  0  0  0  0  0  0  0  0  0  0  0
   31.3146  -21.6265   34.7396 F   0  0  0  0  0  0  0  0  0  0  0  0
   33.4212  -20.4852   34.8987 C   0  0  0  0  0  0  0  0  0  0  0  0
   34.1443  -19.3305   35.0769 C   0  0  0  0  0  0  0  0  0  0  0  0
   34.2257  -16.0927   35.5976 H   0  0  0  0  0  0  0  0  0  0  0  0
   41.2431  -19.6016   36.6007 C   0  0  0  0  0  0  0  0  0  0  0  0
   41.7981  -20.7628   36.7227 O   0  0  0  0  0  0  0  0  0  0  0  0
   41.7914  -18.6017   37.3939 N   0  0  0  0  0  0  0  0  0  0  0  0
   41.3310  -17.6404   37.3236 H   0  0  0  0  0  0  0  0  0  0  0  0
   42.8810  -18.6470   38.3112 C   0  0  0  0  0  0  0  0  0  0  0  0
   42.6068  -18.9373   39.7356 C   0  0  0  0  0  0  0  0  0  0  0  0
   43.2447  -18.1597   40.6671 O   0  0  0  0  0  0  0  0  0  0  0  0
   44.2243  -18.4027   40.6480 H   0  0  0  0  0  0  0  0  0  0  0  0
   42.9733  -20.4013   40.0197 C   0  0  0  0  0  0  0  0  0  0  0  0
   41.9170  -21.1726   40.5225 N   0  0  0  0  0  0  0  0  0  0  0  0
   41.9287  -22.5759   40.3510 C   0  0  0  0  0  0  0  0  0  0  0  0
   40.4848  -23.0409   40.2615 C   0  0  0  0  0  0  0  0  0  0  0  0
   39.6734  -21.8381   40.6814 C   0  0  0  0  0  0  0  0  0  0  0  0
   40.5963  -20.6896   40.2931 C   0  0  0  0  0  0  0  0  0  0  0  0
  1  2  1  0  0  0
  2  3  1  0  0  0
  3  4  1  0  0  0
  4  9  1  0  0  0
  9 10  2  0  0  0
 10 11  1  0  0  0
 11 12  2  0  0  0
 11 13  1  0  0  0
 13 14  1  0  0  0
 14 15  2  0  0  0
 15 16  1  0  0  0
 16 17  2  0  0  0
 17 18  1  0  0  0
 17 19  1  0  0  0
 19 20  2  0  0  0
  4  5  2  0  0  0
  5  6  1  0  0  0
  5  7  1  0  0  0
  7 22  1  0  0  0
 22 23  2  0  0  0
 22 24  1  0  0  0
 24 26  1  0  0  0
 26 27  1  0  0  0
 27 28  1  0  0  0
 27 30  1  0  0  0
 30 31  1  0  0  0
 31 32  1  0  0  0
 32 33  1  0  0  0
 33 34  1  0  0  0
 34 35  1  0  0  0
  7  2  2  0  0  0
 35 31  1  0  0  0
 20 10  1  0  0  0
 20 14  1  0  0  0
  3  8  1  0  0  0
 13 21  1  0  0  0
 24 25  1  0  0  0
 28 29  1  0  0  0
M  END
> <minimizedAffinity>
-5.16155

> <CNNscore>
0.3191993237

> <CNNaffinity>
5.0429549217

> <CNN_VS>
1.6097078323

> <CNNaffinity_variance>
0.1599309891

$$$$
[H]O[C@@]([H])(C([H])([H])N([H])C(=O)c1c(C([H])([H])[H])c(/C([H])=C2\C(=O)N([H])c3c([H])c([H])c(F)c([H])c32)n([H])c1C([H])([H])[H])C([H])([H])N1C([H])([H])C([H])([H])C([H])([H])C1([H])[H]


 35 38  0  0  0  0  0  0  0  0999 V2000
   34.7565   -8.9842   36.5870 C   0  0  0  0  0  0  0  0  0  0  0  0
   34.1108  -10.3233   36.7638 C   0  0  0  0  0  0  0  0  0  0  0  0
   34.7230  -11.5103   36.4706 N   0  0  0  0  0  0  0  0  0  0  0  0
   33.9253  -12.5513   36.7273 C   0  0  0  0  0  0  0  0  0  0  0  0
   32.7585  -11.9837   37.2049 C   0  0  0  0  0  0  0  0  0  0  0  0
   31.5750  -12.7828   37.6258 C   0  0  0  0  0  0  0  0  0  0  0  0
   32.8568  -10.5947   37.2340 C   0  0  0  0  0  0  0  0  0  0  0  0
   35.6947  -11.5622   36.1112 H   0  0  0  0  0  0  0  0  0  0  0  0
   34.1262  -13.9850   36.5610 C   0  0  0  0  0  0  0  0  0  0  0  0
   35.2663  -14.6237   36.7346 C   0  0  0  0  0  0  0  0  0  0  0  0
   36.5342  -14.0536   37.1107 C   0  0  0  0  0  0  0  0  0  0  0  0
   36.7986  -12.8450   37.3147 O   0  0  0  0  0  0  0  0  0  0  0  0
   37.4582  -15.1572   37.2060 N   0  0  0  0  0  0  0  0  0  0  0  0
   36.7763  -16.3588   36.8973 C   0  0  0  0  0  0  0  0  0  0  0  0
   37.2104  -17.6899   36.8461 C   0  0  0  0  0  0  0  0  0  0  0  0
   36.3697  -18.7309   36.5179 C   0  0  0  0  0  0  0  0  0  0  0  0
   35.0496  -18.4350   36.2308 C   0  0  0  0  0  0  0  0  0  0  0  0
   34.2208  -19.4611   35.9071 F   0  0  0  0  0  0  0  0  0  0  0  0
   34.6168  -17.1224   36.2805 C   0  0  0  0  0  0  0  0  0  0  0  0
   35.4636  -16.0912   36.6085 C   0  0  0  0  0  0  0  0  0  0  0  0
   38.4531  -15.0449   37.4620 H   0  0  0  0  0  0  0  0  0  0  0  0
   31.7830   -9.7291   37.6777 C   0  0  0  0  0  0  0  0  0  0  0  0
   31.9583   -8.4542   37.5536 O   0  0  0  0  0  0  0  0  0  0  0  0
   30.5652  -10.1040   38.2307 N   0  0  0  0  0  0  0  0  0  0  0  0
   30.4116  -11.1528   38.3622 H   0  0  0  0  0  0  0  0  0  0  0  0
   29.4684   -9.3070   38.6696 C   0  0  0  0  0  0  0  0  0  0  0  0
   28.5722   -9.8377   39.7202 C   0  0  0  0  0  0  0  0  0  0  0  0
   28.7888   -9.4078   41.0037 O   0  0  0  0  0  0  0  0  0  0  0  0
   29.6549   -9.8182   41.3208 H   0  0  0  0  0  0  0  0  0  0  0  0
   28.6652  -11.3706   39.7192 C   0  0  0  0  0  0  0  0  0  0  0  0
   29.0114  -11.9276   40.9575 N   0  0  0  0  0  0  0  0  0  0  0  0
   30.1492  -12.7607   41.0590 C   0  0  0  0  0  0  0  0  0  0  0  0
   29.8844  -13.7691   42.1644 C   0  0  0  0  0  0  0  0  0  0  0  0
   28.6439  -13.2551   42.8561 C   0  0  0  0  0  0  0  0  0  0  0  0
   27.9561  -12.4896   41.7324 C   0  0  0  0  0  0  0  0  0  0  0  0
  1  2  1  0  0  0
  2  3  1  0  0  0
  3  4  1  0  0  0
  4  9  1  0  0  0
  9 10  2  0  0  0
 10 11  1  0  0  0
 11 12  2  0  0  0
 11 13  1  0  0  0
 13 14  1  0  0  0
 14 15  2  0  0  0
 15 16  1  0  0  0
 16 17  2  0  0  0
 17 18  1  0  0  0
 17 19  1  0  0  0
 19 20  2  0  0  0
  4  5  2  0  0  0
  5  6  1  0  0  0
  5  7  1  0  0  0
  7 22  1  0  0  0
 22 23  2  0  0  0
 22 24  1  0  0  0
 24 26  1  0  0  0
 26 27  1  0  0  0
 27 28  1  0  0  0
 27 30  1  0  0  0
 30 31  1  0  0  0
 31 32  1  0  0  0
 32 33  1  0  0  0
 33 34  1  0  0  0
 34 35  1  0  0  0
  7  2  2  0  0  0
 35 31  1  0  0  0
 20 10  1  0  0  0
 20 14  1  0  0  0
  3  8  1  0  0  0
 13 21  1  0  0  0
 24 25  1  0  0  0
 28 29  1  0  0  0
M  END
> <minimizedAffinity>
-7.92460

> <CNNscore>
0.3111028373

> <CNNaffinity>
6.1226673126

> <CNN_VS>
1.9047791958

> <CNNaffinity_variance>
0.2209275514

$$$$
[H]C1=C2C([H])([H])C([H])([H])C3([H])C4([H])C([H])([H])C([H])([H])C(=O)[C@@]4(C([H])([H])[H])C([H])([H])C([H])([H])C3([H])[C@@]2(C([H])([H])[H])C([H])([H])C([H])([H])C1=O


 21 24  0  0  0  0  0  0  0  0999 V2000
   33.3028  -20.2608   33.6508 C   0  0  0  0  0  0  0  0  0  0  0  0
   32.6757  -20.2486   35.0532 C   0  0  0  0  0  0  0  0  0  0  0  0
   33.7948  -20.4528   36.0207 C   0  0  0  0  0  0  0  0  0  0  0  0
   33.3877  -20.8554   37.3859 C   0  0  0  0  0  0  0  0  0  0  0  0
   32.3306  -21.9039   37.4594 C   0  0  0  0  0  0  0  0  0  0  0  0
   31.7549  -22.3141   36.1530 C   0  0  0  0  0  0  0  0  0  0  0  0
   30.3618  -22.8919   36.4529 C   0  0  0  0  0  0  0  0  0  0  0  0
   30.5772  -24.1593   37.2076 C   0  0  0  0  0  0  0  0  0  0  0  0
   31.6383  -24.0891   38.2415 C   0  0  0  0  0  0  0  0  0  0  0  0
   31.5072  -24.9714   39.2497 C   0  0  0  0  0  0  0  0  0  0  0  0
   32.4599  -25.0302   40.3364 C   0  0  0  0  0  0  0  0  0  0  0  0
   32.3872  -25.8844   41.2441 O   0  0  0  0  0  0  0  0  0  0  0  0
   33.5589  -24.0412   40.3706 C   0  0  0  0  0  0  0  0  0  0  0  0
   33.1017  -22.7963   39.6527 C   0  0  0  0  0  0  0  0  0  0  0  0
   32.7795  -23.1384   38.2137 C   0  0  0  0  0  0  0  0  0  0  0  0
   33.9758  -23.7480   37.5133 C   0  0  0  0  0  0  0  0  0  0  0  0
   31.5698  -21.2341   35.1577 C   0  0  0  0  0  0  0  0  0  0  0  0
   30.2935  -20.4685   35.4456 C   0  0  0  0  0  0  0  0  0  0  0  0
   30.6041  -19.1338   34.7713 C   0  0  0  0  0  0  0  0  0  0  0  0
   32.0110  -18.9320   35.1938 C   0  0  0  0  0  0  0  0  0  0  0  0
   32.4746  -17.8806   35.5703 O   0  0  0  0  0  0  0  0  0  0  0  0
  2  1  1  0  0  0
  2  3  1  0  0  0
  3  4  1  0  0  0
  4  5  1  0  0  0
  5  6  1  0  0  0
  6  7  1  0  0  0
  7  8  1  0  0  0
  8  9  1  0  0  0
  9 10  2  0  0  0
 10 11  1  0  0  0
 11 12  2  0  0  0
 11 13  1  0  0  0
 13 14  1  0  0  0
 14 15  1  0  0  0
 15 16  1  0  0  0
  6 17  1  0  0  0
 17 18  1  0  0  0
 18 19  1  0  0  0
 19 20  1  0  0  0
 20 21  2  0  0  0
 17  2  1  0  0  0
 20  2  1  0  0  0
 15  5  1  0  0  0
 15  9  1  0  0  0
M  END
> <minimizedAffinity>
-3.98349

> <CNNscore>
0.6284433007

> <CNNaffinity>
4.1726007462

> <CNN_VS>
2.6222429276

> <CNNaffinity_variance>
0.2391557246

$$$$
[H]C1=C2C([H])([H])C([H])([H])C3([H])C4([H])C([H])([H])C([H])([H])C(=O)[C@@]4(C([H])([H])[H])C([H])([H])C([H])([H])C3([H])[C@@]2(C([H])([H])[H])C([H])([H])C([H])([H])C1=O


 21 24  0  0  0  0  0  0  0  0999 V2000
   36.4400  -18.6268   34.3527 C   0  0  0  0  0  0  0  0  0  0  0  0
   35.3543  -18.6099   35.4397 C   0  0  0  0  0  0  0  0  0  0  0  0
   35.3672  -19.9617   36.0740 C   0  0  0  0  0  0  0  0  0  0  0  0
   34.1672  -20.2992   36.8726 C   0  0  0  0  0  0  0  0  0  0  0  0
   32.8599  -19.9376   36.2542 C   0  0  0  0  0  0  0  0  0  0  0  0
   32.9512  -19.1872   34.9757 C   0  0  0  0  0  0  0  0  0  0  0  0
   31.6277  -18.4186   34.8260 C   0  0  0  0  0  0  0  0  0  0  0  0
   30.5619  -19.4388   34.6126 C   0  0  0  0  0  0  0  0  0  0  0  0
   30.6790  -20.6425   35.4711 C   0  0  0  0  0  0  0  0  0  0  0  0
   29.5231  -21.2955   35.6933 C   0  0  0  0  0  0  0  0  0  0  0  0
   29.4691  -22.4882   36.5098 C   0  0  0  0  0  0  0  0  0  0  0  0
   28.4169  -23.1402   36.6726 O   0  0  0  0  0  0  0  0  0  0  0  0
   30.7070  -22.9493   37.1746 C   0  0  0  0  0  0  0  0  0  0  0  0
   31.6001  -21.7551   37.3994 C   0  0  0  0  0  0  0  0  0  0  0  0
   31.9496  -21.1334   36.0641 C   0  0  0  0  0  0  0  0  0  0  0  0
   32.6220  -22.1368   35.1507 C   0  0  0  0  0  0  0  0  0  0  0  0
   34.0423  -18.1910   34.8845 C   0  0  0  0  0  0  0  0  0  0  0  0
   33.6369  -16.9042   35.5759 C   0  0  0  0  0  0  0  0  0  0  0  0
   35.0067  -16.3119   35.9005 C   0  0  0  0  0  0  0  0  0  0  0  0
   35.7250  -17.5202   36.3725 C   0  0  0  0  0  0  0  0  0  0  0  0
   36.4570  -17.5563   37.3343 O   0  0  0  0  0  0  0  0  0  0  0  0
  2  1  1  0  0  0
  2  3  1  0  0  0
  3  4  1  0  0  0
  4  5  1  0  0  0
  5  6  1  0  0  0
  6  7  1  0  0  0
  7  8  1  0  0  0
  8  9  1  0  0  0
  9 10  2  0  0  0
 10 11  1  0  0  0
 11 12  2  0  0  0
 11 13  1  0  0  0
 13 14  1  0  0  0
 14 15  1  0  0  0
 15 16  1  0  0  0
  6 17  1  0  0  0
 17 18  1  0  0  0
 18 19  1  0  0  0
 19 20  1  0  0  0
 20 21  2  0  0  0
 17  2  1  0  0  0
 20  2  1  0  0  0
 15  5  1  0  0  0
 15  9  1  0  0  0
M  END
> <minimizedAffinity>
-5.84157

> <CNNscore>
0.5558122993

> <CNNaffinity>
4.7245316505

> <CNN_VS>
2.6259527206

> <CNNaffinity_variance>
0.2175037861

$$$$
[H]C1=C2C([H])([H])C([H])([H])C3([H])C4([H])C([H])([H])C([H])([H])C(=O)[C@@]4(C([H])([H])[H])C([H])([H])C([H])([H])C3([H])[C@@]2(C([H])([H])[H])C([H])([H])C([H])([H])C1=O


 21 24  0  0  0  0  0  0  0  0999 V2000
   35.1855  -23.7334   38.7602 C   0  0  0  0  0  0  0  0  0  0  0  0
   35.6839  -22.2860   38.8907 C   0  0  0  0  0  0  0  0  0  0  0  0
   35.9217  -21.7919   37.5017 C   0  0  0  0  0  0  0  0  0  0  0  0
   36.7568  -20.5741   37.3959 C   0  0  0  0  0  0  0  0  0  0  0  0
   37.9720  -20.5500   38.2589 C   0  0  0  0  0  0  0  0  0  0  0  0
   38.1118  -21.7015   39.1866 C   0  0  0  0  0  0  0  0  0  0  0  0
   39.0128  -21.2263   40.3386 C   0  0  0  0  0  0  0  0  0  0  0  0
   40.3706  -21.0146   39.7608 C   0  0  0  0  0  0  0  0  0  0  0  0
   40.3800  -20.3553   38.4323 C   0  0  0  0  0  0  0  0  0  0  0  0
   41.5136  -19.6927   38.1357 C   0  0  0  0  0  0  0  0  0  0  0  0
   41.6803  -18.9972   36.8786 C   0  0  0  0  0  0  0  0  0  0  0  0
   42.7484  -18.4327   36.5631 O   0  0  0  0  0  0  0  0  0  0  0  0
   40.5425  -18.9550   35.9349 C   0  0  0  0  0  0  0  0  0  0  0  0
   39.2636  -19.0729   36.7254 C   0  0  0  0  0  0  0  0  0  0  0  0
   39.2528  -20.3935   37.4653 C   0  0  0  0  0  0  0  0  0  0  0  0
   39.3976  -21.5593   36.5097 C   0  0  0  0  0  0  0  0  0  0  0  0
   36.8580  -22.1998   39.7958 C   0  0  0  0  0  0  0  0  0  0  0  0
   36.4687  -21.3339   40.9775 C   0  0  0  0  0  0  0  0  0  0  0  0
   34.9659  -21.5989   41.0415 C   0  0  0  0  0  0  0  0  0  0  0  0
   34.6149  -21.5467   39.6018 C   0  0  0  0  0  0  0  0  0  0  0  0
   33.6379  -20.9967   39.1490 O   0  0  0  0  0  0  0  0  0  0  0  0
  2  1  1  0  0  0
  2  3  1  0  0  0
  3  4  1  0  0  0
  4  5  1  0  0  0
  5  6  1  0  0  0
  6  7  1  0  0  0
  7  8  1  0  0  0
  8  9  1  0  0  0
  9 10  2  0  0  0
 10 11  1  0  0  0
 11 12  2  0  0  0
 11 13  1  0  0  0
 13 14  1  0  0  0
 14 15  1  0  0  0
 15 16  1  0  0  0
  6 17  1  0  0  0
 17 18  1  0  0  0
 18 19  1  0  0  0
 19 20  1  0  0  0
 20 21  2  0  0  0
 17  2  1  0  0  0
 20  2  1  0  0  0
 15  5  1  0  0  0
 15  9  1  0  0  0
M  END
> <minimizedAffinity>
-4.31381

> <CNNscore>
0.5359871387

> <CNNaffinity>
4.3921508789

> <CNN_VS>
2.3541364670

> <CNNaffinity_variance>
0.0703890696

$$$$
[H]C1=C2C([H])([H])C([H])([H])C3([H])C4([H])C([H])([H])C([H])([H])C(=O)[C@@]4(C([H])([H])[H])C([H])([H])C([H])([H])C3([H])[C@@]2(C([H])([H])[H])C([H])([H])C([H])([H])C1=O


 21 24  0  0  0  0  0  0  0  0999 V2000
   30.2833  -25.8845   36.7497 C   0  0  0  0  0  0  0  0  0  0  0  0
   30.0620  -24.4085   37.1143 C   0  0  0  0  0  0  0  0  0  0  0  0
   29.6640  -23.7146   35.8533 C   0  0  0  0  0  0  0  0  0  0  0  0
   29.7714  -22.2383   35.8805 C   0  0  0  0  0  0  0  0  0  0  0  0
   31.0138  -21.6947   36.4996 C   0  0  0  0  0  0  0  0  0  0  0  0
   31.9153  -22.7088   37.1036 C   0  0  0  0  0  0  0  0  0  0  0  0
   32.7583  -21.9705   38.1567 C   0  0  0  0  0  0  0  0  0  0  0  0
   33.6518  -21.0376   37.4125 C   0  0  0  0  0  0  0  0  0  0  0  0
   33.0000  -20.3250   36.2869 C   0  0  0  0  0  0  0  0  0  0  0  0
   33.5682  -19.1512   35.9535 C   0  0  0  0  0  0  0  0  0  0  0  0
   33.0509  -18.3355   34.8769 C   0  0  0  0  0  0  0  0  0  0  0  0
   33.6046  -17.2766   34.5146 O   0  0  0  0  0  0  0  0  0  0  0  0
   31.8215  -18.7744   34.1819 C   0  0  0  0  0  0  0  0  0  0  0  0
   31.0071  -19.6100   35.1373 C   0  0  0  0  0  0  0  0  0  0  0  0
   31.8109  -20.8247   35.5497 C   0  0  0  0  0  0  0  0  0  0  0  0
   32.2247  -21.6439   34.3452 C   0  0  0  0  0  0  0  0  0  0  0  0
   31.2518  -23.8373   37.7948 C   0  0  0  0  0  0  0  0  0  0  0  0
   30.8317  -23.4231   39.1913 C   0  0  0  0  0  0  0  0  0  0  0  0
   29.7048  -24.4192   39.4565 C   0  0  0  0  0  0  0  0  0  0  0  0
   29.0031  -24.3964   38.1504 C   0  0  0  0  0  0  0  0  0  0  0  0
   27.8021  -24.3729   38.0124 O   0  0  0  0  0  0  0  0  0  0  0  0
  2  1  1  0  0  0
  2  3  1  0  0  0
  3  4  1  0  0  0
  4  5  1  0  0  0
  5  6  1  0  0  0
  6  7  1  0  0  0
  7  8  1  0  0  0
  8  9  1  0  0  0
  9 10  2  0  0  0
 10 11  1  0  0  0
 11 12  2  0  0  0
 11 13  1  0  0  0
 13 14  1  0  0  0
 14 15  1  0  0  0
 15 16  1  0  0  0
  6 17  1  0  0  0
 17 18  1  0  0  0
 18 19  1  0  0  0
 19 20  1  0  0  0
 20 21  2  0  0  0
 17  2  1  0  0  0
 20  2  1  0  0  0
 15  5  1  0  0  0
 15  9  1  0  0  0
M  END
> <minimizedAffinity>
-4.33838

> <CNNscore>
0.5252807140

> <CNNaffinity>
4.3493509293

> <CNN_VS>
2.2846300602

> <CNNaffinity_variance>
0.1023186222

$$$$
[H]C1=C2C([H])([H])C([H])([H])C3([H])C4([H])C([H])([H])C([H])([H])C(=O)[C@@]4(C([H])([H])[H])C([H])([H])C([H])([H])C3([H])[C@@]2(C([H])([H])[H])C([H])([H])C([H])([H])C1=O


 21 24  0  0  0  0  0  0  0  0999 V2000
   28.7810  -24.1951   35.5194 C   0  0  0  0  0  0  0  0  0  0  0  0
   29.2588  -22.9549   36.2902 C   0  0  0  0  0  0  0  0  0  0  0  0
   29.1421  -21.7999   35.3508 C   0  0  0  0  0  0  0  0  0  0  0  0
   29.8955  -20.5866   35.7406 C   0  0  0  0  0  0  0  0  0  0  0  0
   31.2819  -20.8212   36.2358 C   0  0  0  0  0  0  0  0  0  0  0  0
   31.6706  -22.2480   36.3753 C   0  0  0  0  0  0  0  0  0  0  0  0
   32.8102  -22.2903   37.4069 C   0  0  0  0  0  0  0  0  0  0  0  0
   33.9828  -21.6189   36.7774 C   0  0  0  0  0  0  0  0  0  0  0  0
   33.6549  -20.3874   36.0186 C   0  0  0  0  0  0  0  0  0  0  0  0
   34.6662  -19.5068   35.9018 C   0  0  0  0  0  0  0  0  0  0  0  0
   34.5071  -18.2572   35.1911 C   0  0  0  0  0  0  0  0  0  0  0  0
   35.4528  -17.4601   35.0197 O   0  0  0  0  0  0  0  0  0  0  0  0
   33.1747  -17.9141   34.6489 C   0  0  0  0  0  0  0  0  0  0  0  0
   32.1275  -18.6011   35.4889 C   0  0  0  0  0  0  0  0  0  0  0  0
   32.3292  -20.0995   35.4130 C   0  0  0  0  0  0  0  0  0  0  0  0
   32.2693  -20.5896   33.9815 C   0  0  0  0  0  0  0  0  0  0  0  0
   30.6138  -23.1639   36.8607 C   0  0  0  0  0  0  0  0  0  0  0  0
   30.4987  -23.0790   38.3699 C   0  0  0  0  0  0  0  0  0  0  0  0
   29.0629  -23.5586   38.5730 C   0  0  0  0  0  0  0  0  0  0  0  0
   28.3741  -22.8412   37.4731 C   0  0  0  0  0  0  0  0  0  0  0  0
   27.3030  -22.2892   37.5734 O   0  0  0  0  0  0  0  0  0  0  0  0
  2  1  1  0  0  0
  2  3  1  0  0  0
  3  4  1  0  0  0
  4  5  1  0  0  0
  5  6  1  0  0  0
  6  7  1  0  0  0
  7  8  1  0  0  0
  8  9  1  0  0  0
  9 10  2  0  0  0
 10 11  1  0  0  0
 11 12  2  0  0  0
 11 13  1  0  0  0
 13 14  1  0  0  0
 14 15  1  0  0  0
 15 16  1  0  0  0
  6 17  1  0  0  0
 17 18  1  0  0  0
 18 19  1  0  0  0
 19 20  1  0  0  0
 20 21  2  0  0  0
 17  2  1  0  0  0
 20  2  1  0  0  0
 15  5  1  0  0  0
 15  9  1  0  0  0
M  END
> <minimizedAffinity>
-5.09322

> <CNNscore>
0.5189058185

> <CNNaffinity>
4.4678792953

> <CNN_VS>
2.3184084892

> <CNNaffinity_variance>
0.2723185420

$$$$
[H]C1=C2C([H])([H])C([H])([H])C3([H])C4([H])C([H])([H])C([H])([H])C(=O)[C@@]4(C([H])([H])[H])C([H])([H])C([H])([H])C3([H])[C@@]2(C([H])([H])[H])C([H])([H])C([H])([H])C1=O


 21 24  0  0  0  0  0  0  0  0999 V2000
   31.6092  -18.7710   35.9231 C   0  0  0  0  0  0  0  0  0  0  0  0
   32.7687  -19.7259   35.6005 C   0  0  0  0  0  0  0  0  0  0  0  0
   33.2846  -20.2252   36.9100 C   0  0  0  0  0  0  0  0  0  0  0  0
   34.6269  -20.8482   36.8670 C   0  0  0  0  0  0  0  0  0  0  0  0
   35.6466  -20.1245   36.0555 C   0  0  0  0  0  0  0  0  0  0  0  0
   35.1407  -18.9421   35.3126 C   0  0  0  0  0  0  0  0  0  0  0  0
   36.1074  -18.7192   34.1376 C   0  0  0  0  0  0  0  0  0  0  0  0
   37.4075  -18.2909   34.7282 C   0  0  0  0  0  0  0  0  0  0  0  0
   37.8084  -19.0378   35.9452 C   0  0  0  0  0  0  0  0  0  0  0  0
   39.1330  -19.0653   36.1833 C   0  0  0  0  0  0  0  0  0  0  0  0
   39.6846  -19.7526   37.3302 C   0  0  0  0  0  0  0  0  0  0  0  0
   40.9037  -19.7331   37.5990 O   0  0  0  0  0  0  0  0  0  0  0  0
   38.7685  -20.5048   38.2146 C   0  0  0  0  0  0  0  0  0  0  0  0
   37.5750  -20.9417   37.4029 C   0  0  0  0  0  0  0  0  0  0  0  0
   36.8616  -19.7198   36.8647 C   0  0  0  0  0  0  0  0  0  0  0  0
   36.4340  -18.7957   37.9855 C   0  0  0  0  0  0  0  0  0  0  0  0
   33.7829  -19.0698   34.7368 C   0  0  0  0  0  0  0  0  0  0  0  0
   33.8379  -19.8313   33.4272 C   0  0  0  0  0  0  0  0  0  0  0  0
   32.4083  -20.3628   33.3470 C   0  0  0  0  0  0  0  0  0  0  0  0
   32.1952  -20.7945   34.7495 C   0  0  0  0  0  0  0  0  0  0  0  0
   31.6547  -21.8244   35.0801 O   0  0  0  0  0  0  0  0  0  0  0  0
  2  1  1  0  0  0
  2  3  1  0  0  0
  3  4  1  0  0  0
  4  5  1  0  0  0
  5  6  1  0  0  0
  6  7  1  0  0  0
  7  8  1  0  0  0
  8  9  1  0  0  0
  9 10  2  0  0  0
 10 11  1  0  0  0
 11 12  2  0  0  0
 11 13  1  0  0  0
 13 14  1  0  0  0
 14 15  1  0  0  0
 15 16  1  0  0  0
  6 17  1  0  0  0
 17 18  1  0  0  0
 18 19  1  0  0  0
 19 20  1  0  0  0
 20 21  2  0  0  0
 17  2  1  0  0  0
 20  2  1  0  0  0
 15  5  1  0  0  0
 15  9  1  0  0  0
M  END
> <minimizedAffinity>
-4.03276

> <CNNscore>
0.5166505575

> <CNNaffinity>
4.5606966019

> <CNN_VS>
2.3562865257

> <CNNaffinity_variance>
0.1453198642

$$$$
[H]C1=C2C([H])([H])C([H])([H])C3([H])C4([H])C([H])([H])C([H])([H])C(=O)[C@@]4(C([H])([H])[H])C([H])([H])C([H])([H])C3([H])[C@@]2(C([H])([H])[H])C([H])([H])C([H])([H])C1=O


 21 24  0  0  0  0  0  0  0  0999 V2000
   30.4104  -21.0285   36.1421 C   0  0  0  0  0  0  0  0  0  0  0  0
   31.8718  -21.4691   35.9666 C   0  0  0  0  0  0  0  0  0  0  0  0
   32.0414  -22.7110   36.7785 C   0  0  0  0  0  0  0  0  0  0  0  0
   33.4420  -23.0942   37.0666 C   0  0  0  0  0  0  0  0  0  0  0  0
   34.3428  -21.9796   37.4773 C   0  0  0  0  0  0  0  0  0  0  0  0
   33.7352  -20.6251   37.4291 C   0  0  0  0  0  0  0  0  0  0  0  0
   34.8994  -19.6300   37.2903 C   0  0  0  0  0  0  0  0  0  0  0  0
   35.6597  -19.6790   38.5716 C   0  0  0  0  0  0  0  0  0  0  0  0
   35.8525  -21.0423   39.1231 C   0  0  0  0  0  0  0  0  0  0  0  0
   36.9230  -21.1830   39.9269 C   0  0  0  0  0  0  0  0  0  0  0  0
   37.2486  -22.4500   40.5437 C   0  0  0  0  0  0  0  0  0  0  0  0
   38.2002  -22.5807   41.3414 O   0  0  0  0  0  0  0  0  0  0  0  0
   36.4224  -23.6319   40.2155 C   0  0  0  0  0  0  0  0  0  0  0  0
   35.8344  -23.4349   38.8408 C   0  0  0  0  0  0  0  0  0  0  0  0
   34.9619  -22.1978   38.8425 C   0  0  0  0  0  0  0  0  0  0  0  0
   33.8648  -22.3013   39.8812 C   0  0  0  0  0  0  0  0  0  0  0  0
   32.8105  -20.3685   36.3021 C   0  0  0  0  0  0  0  0  0  0  0  0
   33.5927  -20.0292   35.0486 C   0  0  0  0  0  0  0  0  0  0  0  0
   32.5797  -20.4079   33.9700 C   0  0  0  0  0  0  0  0  0  0  0  0
   32.0628  -21.6869   34.5137 C   0  0  0  0  0  0  0  0  0  0  0  0
   31.8554  -22.6818   33.8585 O   0  0  0  0  0  0  0  0  0  0  0  0
  2  1  1  0  0  0
  2  3  1  0  0  0
  3  4  1  0  0  0
  4  5  1  0  0  0
  5  6  1  0  0  0
  6  7  1  0  0  0
  7  8  1  0  0  0
  8  9  1  0  0  0
  9 10  2  0  0  0
 10 11  1  0  0  0
 11 12  2  0  0  0
 11 13  1  0  0  0
 13 14  1  0  0  0
 14 15  1  0  0  0
 15 16  1  0  0  0
  6 17  1  0  0  0
 17 18  1  0  0  0
 18 19  1  0  0  0
 19 20  1  0  0  0
 20 21  2  0  0  0
 17  2  1  0  0  0
 20  2  1  0  0  0
 15  5  1  0  0  0
 15  9  1  0  0  0
M  END
> <minimizedAffinity>
-4.25478

> <CNNscore>
0.5061651468

> <CNNaffinity>
4.1969532967

> <CNN_VS>
2.1243515015

> <CNNaffinity_variance>
0.0905314982

$$$$
[H]C1=C2C([H])([H])C([H])([H])C3([H])C4([H])C([H])([H])C([H])([H])C(=O)[C@@]4(C([H])([H])[H])C([H])([H])C([H])([H])C3([H])[C@@]2(C([H])([H])[H])C([H])([H])C([H])([H])C1=O


 21 24  0  0  0  0  0  0  0  0999 V2000
   40.7173  -18.7113   36.8193 C   0  0  0  0  0  0  0  0  0  0  0  0
   39.9007  -20.0108   36.7503 C   0  0  0  0  0  0  0  0  0  0  0  0
   38.6182  -19.6707   36.0650 C   0  0  0  0  0  0  0  0  0  0  0  0
   37.5304  -20.6618   36.2265 C   0  0  0  0  0  0  0  0  0  0  0  0
   37.3510  -21.2018   37.6043 C   0  0  0  0  0  0  0  0  0  0  0  0
   38.3625  -20.7541   38.5956 C   0  0  0  0  0  0  0  0  0  0  0  0
   38.3845  -21.8174   39.7063 C   0  0  0  0  0  0  0  0  0  0  0  0
   37.0729  -21.7292   40.4095 C   0  0  0  0  0  0  0  0  0  0  0  0
   35.9036  -21.5515   39.5146 C   0  0  0  0  0  0  0  0  0  0  0  0
   34.7330  -21.9856   40.0177 C   0  0  0  0  0  0  0  0  0  0  0  0
   33.4997  -21.8833   39.2690 C   0  0  0  0  0  0  0  0  0  0  0  0
   32.3972  -22.2226   39.7467 O   0  0  0  0  0  0  0  0  0  0  0  0
   33.5500  -21.3574   37.8877 C   0  0  0  0  0  0  0  0  0  0  0  0
   34.9169  -21.6437   37.3186 C   0  0  0  0  0  0  0  0  0  0  0  0
   35.9649  -20.9461   38.1593 C   0  0  0  0  0  0  0  0  0  0  0  0
   35.7154  -19.4538   38.2204 C   0  0  0  0  0  0  0  0  0  0  0  0
   39.7492  -20.6242   38.0942 C   0  0  0  0  0  0  0  0  0  0  0  0
   40.4249  -21.9808   38.0625 C   0  0  0  0  0  0  0  0  0  0  0  0
   41.5029  -21.7371   37.0083 C   0  0  0  0  0  0  0  0  0  0  0  0
   40.7314  -20.9775   35.9952 C   0  0  0  0  0  0  0  0  0  0  0  0
   40.8026  -21.1513   34.8006 O   0  0  0  0  0  0  0  0  0  0  0  0
  2  1  1  0  0  0
  2  3  1  0  0  0
  3  4  1  0  0  0
  4  5  1  0  0  0
  5  6  1  0  0  0
  6  7  1  0  0  0
  7  8  1  0  0  0
  8  9  1  0  0  0
  9 10  2  0  0  0
 10 11  1  0  0  0
 11 12  2  0  0  0
 11 13  1  0  0  0
 13 14  1  0  0  0
 14 15  1  0  0  0
 15 16  1  0  0  0
  6 17  1  0  0  0
 17 18  1  0  0  0
 18 19  1  0  0  0
 19 20  1  0  0  0
 20 21  2  0  0  0
 17  2  1  0  0  0
 20  2  1  0  0  0
 15  5  1  0  0  0
 15  9  1  0  0  0
M  END
> <minimizedAffinity>
-4.06308

> <CNNscore>
0.4826937318

> <CNNaffinity>
4.2690143585

> <CNN_VS>
2.0606265068

> <CNNaffinity_variance>
0.0565165095

$$$$
[H]C1=C2C([H])([H])C([H])([H])C3([H])C4([H])C([H])([H])C([H])([H])C(=O)[C@@]4(C([H])([H])[H])C([H])([H])C([H])([H])C3([H])[C@@]2(C([H])([H])[H])C([H])([H])C([H])([H])C1=O


 21 24  0  0  0  0  0  0  0  0999 V2000
   36.4022  -13.0970   36.2703 C   0  0  0  0  0  0  0  0  0  0  0  0
   35.6342  -14.3329   36.7634 C   0  0  0  0  0  0  0  0  0  0  0  0
   36.4910  -14.9790   37.8019 C   0  0  0  0  0  0  0  0  0  0  0  0
   36.1364  -16.3766   38.1372 C   0  0  0  0  0  0  0  0  0  0  0  0
   35.8307  -17.2595   36.9756 C   0  0  0  0  0  0  0  0  0  0  0  0
   35.8144  -16.5823   35.6537 C   0  0  0  0  0  0  0  0  0  0  0  0
   34.9365  -17.4457   34.7326 C   0  0  0  0  0  0  0  0  0  0  0  0
   35.6719  -18.7240   34.5150 C   0  0  0  0  0  0  0  0  0  0  0  0
   36.3195  -19.2778   35.7290 C   0  0  0  0  0  0  0  0  0  0  0  0
   36.5161  -20.6093   35.7099 C   0  0  0  0  0  0  0  0  0  0  0  0
   37.1362  -21.3016   36.8181 C   0  0  0  0  0  0  0  0  0  0  0  0
   37.3829  -22.5252   36.7886 O   0  0  0  0  0  0  0  0  0  0  0  0
   37.4896  -20.5292   38.0288 C   0  0  0  0  0  0  0  0  0  0  0  0
   36.5620  -19.3441   38.1251 C   0  0  0  0  0  0  0  0  0  0  0  0
   36.7394  -18.4693   36.9025 C   0  0  0  0  0  0  0  0  0  0  0  0
   38.1757  -18.0111   36.7591 C   0  0  0  0  0  0  0  0  0  0  0  0
   35.2487  -15.2145   35.6323 C   0  0  0  0  0  0  0  0  0  0  0  0
   33.7346  -15.2737   35.5869 C   0  0  0  0  0  0  0  0  0  0  0  0
   33.3790  -13.9090   36.1735 C   0  0  0  0  0  0  0  0  0  0  0  0
   34.3459  -13.8301   37.2948 C   0  0  0  0  0  0  0  0  0  0  0  0
   34.0845  -13.4274   38.4046 O   0  0  0  0  0  0  0  0  0  0  0  0
  2  1  1  0  0  0
  2  3  1  0  0  0
  3  4  1  0  0  0
  4  5  1  0  0  0
  5  6  1  0  0  0
  6  7  1  0  0  0
  7  8  1  0  0  0
  8  9  1  0  0  0
  9 10  2  0  0  0
 10 11  1  0  0  0
 11 12  2  0  0  0
 11 13  1  0  0  0
 13 14  1  0  0  0
 14 15  1  0  0  0
 15 16  1  0  0  0
  6 17  1  0  0  0
 17 18  1  0  0  0
 18 19  1  0  0  0
 19 20  1  0  0  0
 20 21  2  0  0  0
 17  2  1  0  0  0
 20  2  1  0  0  0
 15  5  1  0  0  0
 15  9  1  0  0  0
M  END
> <minimizedAffinity>
-5.73662

> <CNNscore>
0.4747585654

> <CNNaffinity>
4.7743201256

> <CNN_VS>
2.2666494846

> <CNNaffinity_variance>
0.1551888734

$$$$
[H]c1c([H])c([H])c2c(c1[H])c(C([H])([H])[C@@]([H])(C(=O)N1C([H])([H])C([H])([H])C([H])([H])[C@@]1([H])C(=O)N([H])[C@]([H])(C(=O)N([H])[C@]([H])(C(=O)N([H])[H])C([H])([H])C([H])(C([H])([H])[H])C([H])([H])[H])C([H])([H])c1c([H])n([H])c3c([H])c([H])c([H])c([H])c13)N([H])[H])c([H])n2[H]


 52 56  0  0  0  0  0  0  0  0999 V2000
   36.0282  -18.6977   35.4593 C   0  0  0  0  0  0  0  0  0  0  0  0
   38.1658  -19.4921   34.3128 N   0  0  0  0  0  0  0  0  0  0  0  0
   37.3057  -19.4794   35.4218 C   0  0  0  0  0  0  0  0  0  0  0  0
   37.6071  -20.1520   36.4409 O   0  0  0  0  0  0  0  0  0  0  0  0
   37.9007  -18.9367   33.4697 H   0  0  0  0  0  0  0  0  0  0  0  0
   39.4319  -20.2610   34.2929 C   0  0  0  0  0  0  0  0  0  0  0  0
   40.2825  -19.5868   33.3103 C   0  0  0  0  0  0  0  0  0  0  0  0
   40.7191  -20.1769   32.0957 N   0  0  0  0  0  0  0  0  0  0  0  0
   40.6727  -18.4011   33.5344 O   0  0  0  0  0  0  0  0  0  0  0  0
   40.8748  -21.1962   32.0567 H   0  0  0  0  0  0  0  0  0  0  0  0
   40.8823  -19.6038   31.2540 H   0  0  0  0  0  0  0  0  0  0  0  0
   39.0445  -21.6676   33.9915 C   0  0  0  0  0  0  0  0  0  0  0  0
   40.4854  -22.2536   35.9594 C   0  0  0  0  0  0  0  0  0  0  0  0
   39.6294  -22.7524   34.8099 C   0  0  0  0  0  0  0  0  0  0  0  0
   40.2933  -23.8720   34.1091 C   0  0  0  0  0  0  0  0  0  0  0  0
   36.2915  -17.2830   35.4197 N   0  0  0  0  0  0  0  0  0  0  0  0
   36.3398  -16.4411   36.5851 C   0  0  0  0  0  0  0  0  0  0  0  0
   36.1315  -17.0219   37.6626 O   0  0  0  0  0  0  0  0  0  0  0  0
   36.4616  -16.8546   34.4879 H   0  0  0  0  0  0  0  0  0  0  0  0
   36.6159  -15.0284   36.4183 C   0  0  0  0  0  0  0  0  0  0  0  0
   37.5704  -14.5492   37.5338 C   0  0  0  0  0  0  0  0  0  0  0  0
   37.3525  -13.0795   37.5587 C   0  0  0  0  0  0  0  0  0  0  0  0
   36.2262  -12.7774   36.6020 C   0  0  0  0  0  0  0  0  0  0  0  0
   35.5676  -14.0798   36.4977 N   0  0  0  0  0  0  0  0  0  0  0  0
   34.1625  -14.1931   36.4213 C   0  0  0  0  0  0  0  0  0  0  0  0
   33.6899  -15.3655   36.2099 O   0  0  0  0  0  0  0  0  0  0  0  0
   33.2137  -13.0882   36.5556 C   0  0  0  0  0  0  0  0  0  0  0  0
   32.1448  -13.4002   35.5432 N   0  0  0  0  0  0  0  0  0  0  0  0
   32.5944  -13.7969   34.6983 H   0  0  0  0  0  0  0  0  0  0  0  0
   31.5613  -12.5585   35.3848 H   0  0  0  0  0  0  0  0  0  0  0  0
   32.4589  -12.9450   37.8188 C   0  0  0  0  0  0  0  0  0  0  0  0
   31.4145  -11.9454   37.9340 C   0  0  0  0  0  0  0  0  0  0  0  0
   31.4697  -10.6325   37.4761 C   0  0  0  0  0  0  0  0  0  0  0  0
   30.3267  -10.0245   37.8024 N   0  0  0  0  0  0  0  0  0  0  0  0
   29.5099  -10.8688   38.4559 C   0  0  0  0  0  0  0  0  0  0  0  0
   28.2445  -10.7533   38.9863 C   0  0  0  0  0  0  0  0  0  0  0  0
   27.6218  -11.8246   39.6099 C   0  0  0  0  0  0  0  0  0  0  0  0
   28.2757  -13.0219   39.7013 C   0  0  0  0  0  0  0  0  0  0  0  0
   29.5413  -13.1303   39.1693 C   0  0  0  0  0  0  0  0  0  0  0  0
   30.1809  -12.0715   38.5429 C   0  0  0  0  0  0  0  0  0  0  0  0
   30.0384   -9.0251   37.6071 H   0  0  0  0  0  0  0  0  0  0  0  0
   35.1653  -19.1414   34.2813 C   0  0  0  0  0  0  0  0  0  0  0  0
   33.7323  -19.0687   34.4956 C   0  0  0  0  0  0  0  0  0  0  0  0
   32.9144  -17.9418   34.3421 C   0  0  0  0  0  0  0  0  0  0  0  0
   31.6550  -18.2551   34.6759 N   0  0  0  0  0  0  0  0  0  0  0  0
   31.5924  -19.5354   35.0429 C   0  0  0  0  0  0  0  0  0  0  0  0
   30.5084  -20.2889   35.4481 C   0  0  0  0  0  0  0  0  0  0  0  0
   30.7125  -21.6129   35.7560 C   0  0  0  0  0  0  0  0  0  0  0  0
   31.9637  -22.1739   35.6628 C   0  0  0  0  0  0  0  0  0  0  0  0
   33.0294  -21.3992   35.2566 C   0  0  0  0  0  0  0  0  0  0  0  0
   32.8843  -20.0564   34.9345 C   0  0  0  0  0  0  0  0  0  0  0  0
   30.8779  -17.5658   34.6367 H   0  0  0  0  0  0  0  0  0  0  0  0
 13 14  1  0  0  0
 14 15  1  0  0  0
 14 12  1  0  0  0
 12  6  1  0  0  0
  6  2  1  0  0  0
  2  3  1  0  0  0
  3  4  2  0  0  0
  3  1  1  0  0  0
  1 42  1  0  0  0
 42 43  1  0  0  0
 43 44  2  0  0  0
 44 45  1  0  0  0
 45 46  1  0  0  0
 46 47  2  0  0  0
 47 48  1  0  0  0
 48 49  2  0  0  0
 49 50  1  0  0  0
 50 51  2  0  0  0
  1 16  1  0  0  0
 16 17  1  0  0  0
 17 18  2  0  0  0
 17 20  1  0  0  0
 20 21  1  0  0  0
 21 22  1  0  0  0
 22 23  1  0  0  0
 23 24  1  0  0  0
 24 25  1  0  0  0
 25 26  2  0  0  0
 25 27  1  0  0  0
 27 28  1  0  0  0
 27 31  1  0  0  0
 31 32  1  0  0  0
 32 33  2  0  0  0
 33 34  1  0  0  0
 34 35  1  0  0  0
 35 36  2  0  0  0
 36 37  1  0  0  0
 37 38  2  0  0  0
 38 39  1  0  0  0
 39 40  2  0  0  0
  6  7  1  0  0  0
  7  8  1  0  0  0
  7  9  2  0  0  0
 51 43  1  0  0  0
 24 20  1  0  0  0
 40 32  1  0  0  0
 51 46  1  0  0  0
 40 35  1  0  0  0
  2  5  1  0  0  0
 45 52  1  0  0  0
 16 19  1  0  0  0
 28 29  1  0  0  0
 28 30  1  0  0  0
 34 41  1  0  0  0
  8 10  1  0  0  0
  8 11  1  0  0  0
M  END
> <minimizedAffinity>
-9.09108

> <CNNscore>
0.5755798817

> <CNNaffinity>
7.4808220863

> <CNN_VS>
4.3058109283

> <CNNaffinity_variance>
0.1646096408

$$$$
[H]c1c([H])c([H])c2c(c1[H])c(C([H])([H])[C@@]([H])(C(=O)N1C([H])([H])C([H])([H])C([H])([H])[C@@]1([H])C(=O)N([H])[C@]([H])(C(=O)N([H])[C@]([H])(C(=O)N([H])[H])C([H])([H])C([H])(C([H])([H])[H])C([H])([H])[H])C([H])([H])c1c([H])n([H])c3c([H])c([H])c([H])c([H])c13)N([H])[H])c([H])n2[H]


 52 56  0  0  0  0  0  0  0  0999 V2000
   35.5291  -19.7099   36.3661 C   0  0  0  0  0  0  0  0  0  0  0  0
   33.9439  -21.6658   35.9458 N   0  0  0  0  0  0  0  0  0  0  0  0
   34.2772  -20.4884   36.6331 C   0  0  0  0  0  0  0  0  0  0  0  0
   33.4976  -20.0520   37.5183 O   0  0  0  0  0  0  0  0  0  0  0  0
   34.5947  -22.0134   35.2074 H   0  0  0  0  0  0  0  0  0  0  0  0
   32.7077  -22.4321   36.2273 C   0  0  0  0  0  0  0  0  0  0  0  0
   33.1022  -23.8411   36.1774 C   0  0  0  0  0  0  0  0  0  0  0  0
   34.4357  -24.3014   36.3329 N   0  0  0  0  0  0  0  0  0  0  0  0
   32.2179  -24.7284   35.9799 O   0  0  0  0  0  0  0  0  0  0  0  0
   35.2160  -23.7052   36.0161 H   0  0  0  0  0  0  0  0  0  0  0  0
   34.6357  -25.2201   36.7567 H   0  0  0  0  0  0  0  0  0  0  0  0
   31.7129  -21.9781   35.2155 C   0  0  0  0  0  0  0  0  0  0  0  0
   29.2415  -22.0642   35.6364 C   0  0  0  0  0  0  0  0  0  0  0  0
   30.5167  -21.2427   35.6813 C   0  0  0  0  0  0  0  0  0  0  0  0
   30.2841  -19.8837   35.1482 C   0  0  0  0  0  0  0  0  0  0  0  0
   36.6265  -20.5915   36.0649 N   0  0  0  0  0  0  0  0  0  0  0  0
   37.4496  -21.2209   37.0628 C   0  0  0  0  0  0  0  0  0  0  0  0
   37.1524  -20.9495   38.2374 O   0  0  0  0  0  0  0  0  0  0  0  0
   36.8243  -20.7831   35.0624 H   0  0  0  0  0  0  0  0  0  0  0  0
   38.5266  -22.0914   36.6360 C   0  0  0  0  0  0  0  0  0  0  0  0
   38.7129  -23.2307   37.6619 C   0  0  0  0  0  0  0  0  0  0  0  0
   40.0985  -23.6994   37.4004 C   0  0  0  0  0  0  0  0  0  0  0  0
   40.7005  -22.7691   36.3771 C   0  0  0  0  0  0  0  0  0  0  0  0
   39.8445  -21.5897   36.5077 N   0  0  0  0  0  0  0  0  0  0  0  0
   40.3699  -20.2822   36.4209 C   0  0  0  0  0  0  0  0  0  0  0  0
   39.5234  -19.3200   36.4261 O   0  0  0  0  0  0  0  0  0  0  0  0
   41.7889  -19.9431   36.3190 C   0  0  0  0  0  0  0  0  0  0  0  0
   41.8081  -18.4388   36.3569 N   0  0  0  0  0  0  0  0  0  0  0  0
   40.9953  -18.0835   35.8216 H   0  0  0  0  0  0  0  0  0  0  0  0
   42.7341  -18.0961   36.0423 H   0  0  0  0  0  0  0  0  0  0  0  0
   42.6953  -20.3260   37.4225 C   0  0  0  0  0  0  0  0  0  0  0  0
   42.5742  -19.6882   38.7193 C   0  0  0  0  0  0  0  0  0  0  0  0
   43.3330  -18.6221   39.1927 C   0  0  0  0  0  0  0  0  0  0  0  0
   42.9419  -18.3479   40.4395 N   0  0  0  0  0  0  0  0  0  0  0  0
   41.9573  -19.1795   40.8217 C   0  0  0  0  0  0  0  0  0  0  0  0
   41.2137  -19.3124   41.9728 C   0  0  0  0  0  0  0  0  0  0  0  0
   40.2236  -20.2776   42.0862 C   0  0  0  0  0  0  0  0  0  0  0  0
   39.9788  -21.1161   41.0344 C   0  0  0  0  0  0  0  0  0  0  0  0
   40.7266  -20.9780   39.8863 C   0  0  0  0  0  0  0  0  0  0  0  0
   41.7207  -20.0206   39.7535 C   0  0  0  0  0  0  0  0  0  0  0  0
   43.3099  -17.5994   41.0909 H   0  0  0  0  0  0  0  0  0  0  0  0
   35.2522  -18.7451   35.2165 C   0  0  0  0  0  0  0  0  0  0  0  0
   34.7685  -17.4338   35.6055 C   0  0  0  0  0  0  0  0  0  0  0  0
   33.5212  -16.8729   35.3023 C   0  0  0  0  0  0  0  0  0  0  0  0
   33.4597  -15.6280   35.7946 N   0  0  0  0  0  0  0  0  0  0  0  0
   34.6037  -15.3318   36.4121 C   0  0  0  0  0  0  0  0  0  0  0  0
   34.9811  -14.1796   37.0732 C   0  0  0  0  0  0  0  0  0  0  0  0
   36.2279  -14.1370   37.6504 C   0  0  0  0  0  0  0  0  0  0  0  0
   37.0783  -15.2139   37.5725 C   0  0  0  0  0  0  0  0  0  0  0  0
   36.6773  -16.3521   36.9057 C   0  0  0  0  0  0  0  0  0  0  0  0
   35.4311  -16.4524   36.3018 C   0  0  0  0  0  0  0  0  0  0  0  0
   32.6210  -15.0238   35.6848 H   0  0  0  0  0  0  0  0  0  0  0  0
 13 14  1  0  0  0
 14 15  1  0  0  0
 14 12  1  0  0  0
 12  6  1  0  0  0
  6  2  1  0  0  0
  2  3  1  0  0  0
  3  4  2  0  0  0
  3  1  1  0  0  0
  1 42  1  0  0  0
 42 43  1  0  0  0
 43 44  2  0  0  0
 44 45  1  0  0  0
 45 46  1  0  0  0
 46 47  2  0  0  0
 47 48  1  0  0  0
 48 49  2  0  0  0
 49 50  1  0  0  0
 50 51  2  0  0  0
  1 16  1  0  0  0
 16 17  1  0  0  0
 17 18  2  0  0  0
 17 20  1  0  0  0
 20 21  1  0  0  0
 21 22  1  0  0  0
 22 23  1  0  0  0
 23 24  1  0  0  0
 24 25  1  0  0  0
 25 26  2  0  0  0
 25 27  1  0  0  0
 27 28  1  0  0  0
 27 31  1  0  0  0
 31 32  1  0  0  0
 32 33  2  0  0  0
 33 34  1  0  0  0
 34 35  1  0  0  0
 35 36  2  0  0  0
 36 37  1  0  0  0
 37 38  2  0  0  0
 38 39  1  0  0  0
 39 40  2  0  0  0
  6  7  1  0  0  0
  7  8  1  0  0  0
  7  9  2  0  0  0
 51 43  1  0  0  0
 24 20  1  0  0  0
 40 32  1  0  0  0
 51 46  1  0  0  0
 40 35  1  0  0  0
  2  5  1  0  0  0
 45 52  1  0  0  0
 16 19  1  0  0  0
 28 29  1  0  0  0
 28 30  1  0  0  0
 34 41  1  0  0  0
  8 10  1  0  0  0
  8 11  1  0  0  0
M  END
> <minimizedAffinity>
-7.80400

> <CNNscore>
0.5675776601

> <CNNaffinity>
6.8156633377

> <CNN_VS>
3.8684182167

> <CNNaffinity_variance>
0.1036232710

$$$$
[H]c1c([H])c([H])c2c(c1[H])c(C([H])([H])[C@@]([H])(C(=O)N1C([H])([H])C([H])([H])C([H])([H])[C@@]1([H])C(=O)N([H])[C@]([H])(C(=O)N([H])[C@]([H])(C(=O)N([H])[H])C([H])([H])C([H])(C([H])([H])[H])C([H])([H])[H])C([H])([H])c1c([H])n([H])c3c([H])c([H])c([H])c([H])c13)N([H])[H])c([H])n2[H]


 52 56  0  0  0  0  0  0  0  0999 V2000
   35.6426  -18.9361   35.3974 C   0  0  0  0  0  0  0  0  0  0  0  0
   37.2383  -20.7249   36.2741 N   0  0  0  0  0  0  0  0  0  0  0  0
   36.8457  -19.8205   35.2752 C   0  0  0  0  0  0  0  0  0  0  0  0
   37.5262  -19.7357   34.2210 O   0  0  0  0  0  0  0  0  0  0  0  0
   36.6703  -20.7801   37.1480 H   0  0  0  0  0  0  0  0  0  0  0  0
   38.4243  -21.6018   36.1359 C   0  0  0  0  0  0  0  0  0  0  0  0
   37.9442  -22.9553   36.4208 C   0  0  0  0  0  0  0  0  0  0  0  0
   36.5749  -23.3279   36.4386 N   0  0  0  0  0  0  0  0  0  0  0  0
   38.7823  -23.8722   36.6755 O   0  0  0  0  0  0  0  0  0  0  0  0
   35.8664  -22.6346   36.7253 H   0  0  0  0  0  0  0  0  0  0  0  0
   36.2783  -24.2784   36.1699 H   0  0  0  0  0  0  0  0  0  0  0  0
   39.4480  -21.0443   37.0637 C   0  0  0  0  0  0  0  0  0  0  0  0
   40.1344  -18.6507   36.7610 C   0  0  0  0  0  0  0  0  0  0  0  0
   40.4611  -20.1130   36.5206 C   0  0  0  0  0  0  0  0  0  0  0  0
   40.9288  -20.3249   35.1344 C   0  0  0  0  0  0  0  0  0  0  0  0
   36.0248  -17.5482   35.4009 N   0  0  0  0  0  0  0  0  0  0  0  0
   36.1339  -16.7472   36.5907 C   0  0  0  0  0  0  0  0  0  0  0  0
   35.8679  -17.3389   37.6494 O   0  0  0  0  0  0  0  0  0  0  0  0
   36.2385  -17.1092   34.4830 H   0  0  0  0  0  0  0  0  0  0  0  0
   36.5297  -15.3588   36.4671 C   0  0  0  0  0  0  0  0  0  0  0  0
   37.4592  -14.9760   37.6397 C   0  0  0  0  0  0  0  0  0  0  0  0
   37.3578  -13.4942   37.6832 C   0  0  0  0  0  0  0  0  0  0  0  0
   36.3110  -13.0870   36.6764 C   0  0  0  0  0  0  0  0  0  0  0  0
   35.5574  -14.3304   36.5120 N   0  0  0  0  0  0  0  0  0  0  0  0
   34.1537  -14.3291   36.3613 C   0  0  0  0  0  0  0  0  0  0  0  0
   33.6014  -15.4561   36.1021 O   0  0  0  0  0  0  0  0  0  0  0  0
   33.2900  -13.1538   36.4692 C   0  0  0  0  0  0  0  0  0  0  0  0
   32.1755  -13.4296   35.4964 N   0  0  0  0  0  0  0  0  0  0  0  0
   32.5733  -13.8928   34.6594 H   0  0  0  0  0  0  0  0  0  0  0  0
   31.6495  -12.5553   35.3150 H   0  0  0  0  0  0  0  0  0  0  0  0
   32.5807  -12.9036   37.7421 C   0  0  0  0  0  0  0  0  0  0  0  0
   31.6085  -11.8317   37.8358 C   0  0  0  0  0  0  0  0  0  0  0  0
   31.7816  -10.5167   37.4147 C   0  0  0  0  0  0  0  0  0  0  0  0
   30.6723   -9.8324   37.7047 N   0  0  0  0  0  0  0  0  0  0  0  0
   29.7660  -10.6276   38.2989 C   0  0  0  0  0  0  0  0  0  0  0  0
   28.4891  -10.4297   38.7747 C   0  0  0  0  0  0  0  0  0  0  0  0
   27.7607  -11.4651   39.3419 C   0  0  0  0  0  0  0  0  0  0  0  0
   28.3197  -12.7096   39.4319 C   0  0  0  0  0  0  0  0  0  0  0  0
   29.5974  -12.9004   38.9547 C   0  0  0  0  0  0  0  0  0  0  0  0
   30.3418  -11.8788   38.3852 C   0  0  0  0  0  0  0  0  0  0  0  0
   30.4679   -8.8101   37.5224 H   0  0  0  0  0  0  0  0  0  0  0  0
   34.6990  -19.2556   34.2412 C   0  0  0  0  0  0  0  0  0  0  0  0
   33.2883  -19.2890   34.5784 C   0  0  0  0  0  0  0  0  0  0  0  0
   32.4265  -18.1917   34.7024 C   0  0  0  0  0  0  0  0  0  0  0  0
   31.2107  -18.6180   35.0711 N   0  0  0  0  0  0  0  0  0  0  0  0
   31.2190  -19.9453   35.1977 C   0  0  0  0  0  0  0  0  0  0  0  0
   30.1975  -20.8089   35.5407 C   0  0  0  0  0  0  0  0  0  0  0  0
   30.4675  -22.1561   35.5800 C   0  0  0  0  0  0  0  0  0  0  0  0
   31.7224  -22.6328   35.2852 C   0  0  0  0  0  0  0  0  0  0  0  0
   32.7250  -21.7490   34.9467 C   0  0  0  0  0  0  0  0  0  0  0  0
   32.5119  -20.3781   34.8922 C   0  0  0  0  0  0  0  0  0  0  0  0
   30.4125  -17.9695   35.2225 H   0  0  0  0  0  0  0  0  0  0  0  0
 13 14  1  0  0  0
 14 15  1  0  0  0
 14 12  1  0  0  0
 12  6  1  0  0  0
  6  2  1  0  0  0
  2  3  1  0  0  0
  3  4  2  0  0  0
  3  1  1  0  0  0
  1 42  1  0  0  0
 42 43  1  0  0  0
 43 44  2  0  0  0
 44 45  1  0  0  0
 45 46  1  0  0  0
 46 47  2  0  0  0
 47 48  1  0  0  0
 48 49  2  0  0  0
 49 50  1  0  0  0
 50 51  2  0  0  0
  1 16  1  0  0  0
 16 17  1  0  0  0
 17 18  2  0  0  0
 17 20  1  0  0  0
 20 21  1  0  0  0
 21 22  1  0  0  0
 22 23  1  0  0  0
 23 24  1  0  0  0
 24 25  1  0  0  0
 25 26  2  0  0  0
 25 27  1  0  0  0
 27 28  1  0  0  0
 27 31  1  0  0  0
 31 32  1  0  0  0
 32 33  2  0  0  0
 33 34  1  0  0  0
 34 35  1  0  0  0
 35 36  2  0  0  0
 36 37  1  0  0  0
 37 38  2  0  0  0
 38 39  1  0  0  0
 39 40  2  0  0  0
  6  7  1  0  0  0
  7  8  1  0  0  0
  7  9  2  0  0  0
 51 43  1  0  0  0
 24 20  1  0  0  0
 40 32  1  0  0  0
 51 46  1  0  0  0
 40 35  1  0  0  0
  2  5  1  0  0  0
 45 52  1  0  0  0
 16 19  1  0  0  0
 28 29  1  0  0  0
 28 30  1  0  0  0
 34 41  1  0  0  0
  8 10  1  0  0  0
  8 11  1  0  0  0
M  END
> <minimizedAffinity>
-8.71673

> <CNNscore>
0.4111790061

> <CNNaffinity>
7.2004637718

> <CNN_VS>
2.9606795311

> <CNNaffinity_variance>
0.2539528310

$$$$
[H]c1c([H])c([H])c2c(c1[H])c(C([H])([H])[C@@]([H])(C(=O)N1C([H])([H])C([H])([H])C([H])([H])[C@@]1([H])C(=O)N([H])[C@]([H])(C(=O)N([H])[C@]([H])(C(=O)N([H])[H])C([H])([H])C([H])(C([H])([H])[H])C([H])([H])[H])C([H])([H])c1c([H])n([H])c3c([H])c([H])c([H])c([H])c13)N([H])[H])c([H])n2[H]


 52 56  0  0  0  0  0  0  0  0999 V2000
   35.7356  -18.7154   36.2040 C   0  0  0  0  0  0  0  0  0  0  0  0
   38.2623  -19.0367   36.0382 N   0  0  0  0  0  0  0  0  0  0  0  0
   36.9628  -19.5654   36.0777 C   0  0  0  0  0  0  0  0  0  0  0  0
   36.8036  -20.8108   36.0040 O   0  0  0  0  0  0  0  0  0  0  0  0
   38.3811  -18.0010   36.0917 H   0  0  0  0  0  0  0  0  0  0  0  0
   39.4683  -19.8895   35.9240 C   0  0  0  0  0  0  0  0  0  0  0  0
   40.4957  -19.2216   36.7251 C   0  0  0  0  0  0  0  0  0  0  0  0
   41.0153  -17.9320   36.4402 N   0  0  0  0  0  0  0  0  0  0  0  0
   40.9731  -19.8108   37.7415 O   0  0  0  0  0  0  0  0  0  0  0  0
   41.0712  -17.6152   35.4597 H   0  0  0  0  0  0  0  0  0  0  0  0
   41.3366  -17.3086   37.1963 H   0  0  0  0  0  0  0  0  0  0  0  0
   39.7345  -20.0175   34.4638 C   0  0  0  0  0  0  0  0  0  0  0  0
   41.6120  -19.0642   33.1005 C   0  0  0  0  0  0  0  0  0  0  0  0
   41.1341  -20.1791   34.0123 C   0  0  0  0  0  0  0  0  0  0  0  0
   41.5486  -21.4982   33.4894 C   0  0  0  0  0  0  0  0  0  0  0  0
   36.0421  -17.3318   35.9512 N   0  0  0  0  0  0  0  0  0  0  0  0
   36.2672  -16.3562   36.9842 C   0  0  0  0  0  0  0  0  0  0  0  0
   36.1760  -16.7883   38.1447 O   0  0  0  0  0  0  0  0  0  0  0  0
   36.1084  -17.0307   34.9584 H   0  0  0  0  0  0  0  0  0  0  0  0
   36.5702  -14.9909   36.6050 C   0  0  0  0  0  0  0  0  0  0  0  0
   37.6016  -14.3944   37.5876 C   0  0  0  0  0  0  0  0  0  0  0  0
   37.4246  -12.9289   37.4169 C   0  0  0  0  0  0  0  0  0  0  0  0
   36.2519  -12.7242   36.4906 C   0  0  0  0  0  0  0  0  0  0  0  0
   35.5540  -14.0049   36.6073 N   0  0  0  0  0  0  0  0  0  0  0  0
   34.1443  -14.0791   36.6250 C   0  0  0  0  0  0  0  0  0  0  0  0
   33.6292  -15.2524   36.6073 O   0  0  0  0  0  0  0  0  0  0  0  0
   33.2348  -12.9342   36.6540 C   0  0  0  0  0  0  0  0  0  0  0  0
   32.1138  -13.3353   35.7335 N   0  0  0  0  0  0  0  0  0  0  0  0
   32.5141  -13.8514   34.9293 H   0  0  0  0  0  0  0  0  0  0  0  0
   31.5486  -12.5011   35.4918 H   0  0  0  0  0  0  0  0  0  0  0  0
   32.5408  -12.6057   37.9175 C   0  0  0  0  0  0  0  0  0  0  0  0
   31.4869  -11.6096   37.9320 C   0  0  0  0  0  0  0  0  0  0  0  0
   31.5969  -10.2807   37.5339 C   0  0  0  0  0  0  0  0  0  0  0  0
   30.4190   -9.6836   37.7303 N   0  0  0  0  0  0  0  0  0  0  0  0
   29.5268  -10.5502   38.2400 C   0  0  0  0  0  0  0  0  0  0  0  0
   28.2026  -10.4526   38.6045 C   0  0  0  0  0  0  0  0  0  0  0  0
   27.5074  -11.5454   39.1016 C   0  0  0  0  0  0  0  0  0  0  0  0
   28.1479  -12.7461   39.2335 C   0  0  0  0  0  0  0  0  0  0  0  0
   29.4724  -12.8366   38.8676 C   0  0  0  0  0  0  0  0  0  0  0  0
   30.1848  -11.7563   38.3695 C   0  0  0  0  0  0  0  0  0  0  0  0
   30.1553   -8.6772   37.5360 H   0  0  0  0  0  0  0  0  0  0  0  0
   34.6883  -19.2456   35.2288 C   0  0  0  0  0  0  0  0  0  0  0  0
   33.5999  -19.9943   35.8286 C   0  0  0  0  0  0  0  0  0  0  0  0
   33.7044  -21.0014   36.7966 C   0  0  0  0  0  0  0  0  0  0  0  0
   32.4857  -21.4880   37.0684 N   0  0  0  0  0  0  0  0  0  0  0  0
   31.5738  -20.8542   36.3305 C   0  0  0  0  0  0  0  0  0  0  0  0
   30.2025  -21.0114   36.2893 C   0  0  0  0  0  0  0  0  0  0  0  0
   29.4784  -20.2057   35.4431 C   0  0  0  0  0  0  0  0  0  0  0  0
   30.1026  -19.2666   34.6575 C   0  0  0  0  0  0  0  0  0  0  0  0
   31.4733  -19.1305   34.7169 C   0  0  0  0  0  0  0  0  0  0  0  0
   32.2567  -19.9171   35.5509 C   0  0  0  0  0  0  0  0  0  0  0  0
   32.3280  -22.2471   37.7608 H   0  0  0  0  0  0  0  0  0  0  0  0
 13 14  1  0  0  0
 14 15  1  0  0  0
 14 12  1  0  0  0
 12  6  1  0  0  0
  6  2  1  0  0  0
  2  3  1  0  0  0
  3  4  2  0  0  0
  3  1  1  0  0  0
  1 42  1  0  0  0
 42 43  1  0  0  0
 43 44  2  0  0  0
 44 45  1  0  0  0
 45 46  1  0  0  0
 46 47  2  0  0  0
 47 48  1  0  0  0
 48 49  2  0  0  0
 49 50  1  0  0  0
 50 51  2  0  0  0
  1 16  1  0  0  0
 16 17  1  0  0  0
 17 18  2  0  0  0
 17 20  1  0  0  0
 20 21  1  0  0  0
 21 22  1  0  0  0
 22 23  1  0  0  0
 23 24  1  0  0  0
 24 25  1  0  0  0
 25 26  2  0  0  0
 25 27  1  0  0  0
 27 28  1  0  0  0
 27 31  1  0  0  0
 31 32  1  0  0  0
 32 33  2  0  0  0
 33 34  1  0  0  0
 34 35  1  0  0  0
 35 36  2  0  0  0
 36 37  1  0  0  0
 37 38  2  0  0  0
 38 39  1  0  0  0
 39 40  2  0  0  0
  6  7  1  0  0  0
  7  8  1  0  0  0
  7  9  2  0  0  0
 51 43  1  0  0  0
 24 20  1  0  0  0
 40 32  1  0  0  0
 51 46  1  0  0  0
 40 35  1  0  0  0
  2  5  1  0  0  0
 45 52  1  0  0  0
 16 19  1  0  0  0
 28 29  1  0  0  0
 28 30  1  0  0  0
 34 41  1  0  0  0
  8 10  1  0  0  0
  8 11  1  0  0  0
M  END
> <minimizedAffinity>
-8.41304

> <CNNscore>
0.3579435945

> <CNNaffinity>
7.1374077797

> <CNN_VS>
2.5547893047

> <CNNaffinity_variance>
0.0810654089

$$$$
[H]c1c([H])c([H])c2c(c1[H])c(C([H])([H])[C@@]([H])(C(=O)N1C([H])([H])C([H])([H])C([H])([H])[C@@]1([H])C(=O)N([H])[C@]([H])(C(=O)N([H])[C@]([H])(C(=O)N([H])[H])C([H])([H])C([H])(C([H])([H])[H])C([H])([H])[H])C([H])([H])c1c([H])n([H])c3c([H])c([H])c([H])c([H])c13)N([H])[H])c([H])n2[H]


 52 56  0  0  0  0  0  0  0  0999 V2000
   35.6390  -19.4983   36.4890 C   0  0  0  0  0  0  0  0  0  0  0  0
   33.7048  -21.0111   35.7921 N   0  0  0  0  0  0  0  0  0  0  0  0
   34.3754  -20.2543   36.7655 C   0  0  0  0  0  0  0  0  0  0  0  0
   33.9055  -20.1971   37.9307 O   0  0  0  0  0  0  0  0  0  0  0  0
   34.0999  -21.0440   34.8266 H   0  0  0  0  0  0  0  0  0  0  0  0
   32.4617  -21.7631   36.0817 C   0  0  0  0  0  0  0  0  0  0  0  0
   32.8356  -23.1768   36.0119 C   0  0  0  0  0  0  0  0  0  0  0  0
   34.1213  -23.6785   36.3431 N   0  0  0  0  0  0  0  0  0  0  0  0
   31.9778  -24.0294   35.6305 O   0  0  0  0  0  0  0  0  0  0  0  0
   34.9510  -23.0859   36.1844 H   0  0  0  0  0  0  0  0  0  0  0  0
   34.2381  -24.6236   36.7389 H   0  0  0  0  0  0  0  0  0  0  0  0
   31.4605  -21.2844   35.0878 C   0  0  0  0  0  0  0  0  0  0  0  0
   29.0248  -21.3113   35.6870 C   0  0  0  0  0  0  0  0  0  0  0  0
   30.3028  -20.5010   35.5724 C   0  0  0  0  0  0  0  0  0  0  0  0
   30.0377  -19.1897   34.9435 C   0  0  0  0  0  0  0  0  0  0  0  0
   36.5725  -20.3113   35.7544 N   0  0  0  0  0  0  0  0  0  0  0  0
   37.8127  -20.7998   36.2953 C   0  0  0  0  0  0  0  0  0  0  0  0
   38.0419  -20.4670   37.4694 O   0  0  0  0  0  0  0  0  0  0  0  0
   36.3231  -20.5599   34.7762 H   0  0  0  0  0  0  0  0  0  0  0  0
   38.6711  -21.6126   35.4573 C   0  0  0  0  0  0  0  0  0  0  0  0
   39.5222  -22.5518   36.3398 C   0  0  0  0  0  0  0  0  0  0  0  0
   40.6588  -22.9127   35.4532 C   0  0  0  0  0  0  0  0  0  0  0  0
   40.5188  -22.0983   34.1914 C   0  0  0  0  0  0  0  0  0  0  0  0
   39.6532  -21.0061   34.6371 N   0  0  0  0  0  0  0  0  0  0  0  0
   39.8427  -19.6820   34.1856 C   0  0  0  0  0  0  0  0  0  0  0  0
   38.9601  -18.8219   34.5373 O   0  0  0  0  0  0  0  0  0  0  0  0
   40.9513  -19.2208   33.3506 C   0  0  0  0  0  0  0  0  0  0  0  0
   40.6481  -17.7662   33.1125 N   0  0  0  0  0  0  0  0  0  0  0  0
   39.6255  -17.6572   32.9867 H   0  0  0  0  0  0  0  0  0  0  0  0
   41.2338  -17.4131   32.3339 H   0  0  0  0  0  0  0  0  0  0  0  0
   42.3145  -19.1984   33.9226 C   0  0  0  0  0  0  0  0  0  0  0  0
   42.5910  -18.4221   35.1159 C   0  0  0  0  0  0  0  0  0  0  0  0
   43.0031  -17.0938   35.1635 C   0  0  0  0  0  0  0  0  0  0  0  0
   43.1834  -16.7545   36.4422 N   0  0  0  0  0  0  0  0  0  0  0  0
   42.9108  -17.7927   37.2515 C   0  0  0  0  0  0  0  0  0  0  0  0
   42.9248  -17.9672   38.6172 C   0  0  0  0  0  0  0  0  0  0  0  0
   42.5712  -19.1780   39.1947 C   0  0  0  0  0  0  0  0  0  0  0  0
   42.2005  -20.2220   38.3935 C   0  0  0  0  0  0  0  0  0  0  0  0
   42.1892  -20.0407   37.0284 C   0  0  0  0  0  0  0  0  0  0  0  0
   42.5397  -18.8391   36.4319 C   0  0  0  0  0  0  0  0  0  0  0  0
   43.4950  -15.8221   36.8340 H   0  0  0  0  0  0  0  0  0  0  0  0
   35.2752  -18.2296   35.7228 C   0  0  0  0  0  0  0  0  0  0  0  0
   35.8129  -16.9967   36.2665 C   0  0  0  0  0  0  0  0  0  0  0  0
   37.0781  -16.8104   36.8383 C   0  0  0  0  0  0  0  0  0  0  0  0
   37.1923  -15.5462   37.2679 N   0  0  0  0  0  0  0  0  0  0  0  0
   36.0665  -14.8802   37.0097 C   0  0  0  0  0  0  0  0  0  0  0  0
   35.7402  -13.5616   37.2586 C   0  0  0  0  0  0  0  0  0  0  0  0
   34.5015  -13.1111   36.8687 C   0  0  0  0  0  0  0  0  0  0  0  0
   33.6094  -13.9510   36.2463 C   0  0  0  0  0  0  0  0  0  0  0  0
   33.9596  -15.2634   36.0103 C   0  0  0  0  0  0  0  0  0  0  0  0
   35.1954  -15.7751   36.3832 C   0  0  0  0  0  0  0  0  0  0  0  0
   38.0527  -15.1872   37.7277 H   0  0  0  0  0  0  0  0  0  0  0  0
 13 14  1  0  0  0
 14 15  1  0  0  0
 14 12  1  0  0  0
 12  6  1  0  0  0
  6  2  1  0  0  0
  2  3  1  0  0  0
  3  4  2  0  0  0
  3  1  1  0  0  0
  1 42  1  0  0  0
 42 43  1  0  0  0
 43 44  2  0  0  0
 44 45  1  0  0  0
 45 46  1  0  0  0
 46 47  2  0  0  0
 47 48  1  0  0  0
 48 49  2  0  0  0
 49 50  1  0  0  0
 50 51  2  0  0  0
  1 16  1  0  0  0
 16 17  1  0  0  0
 17 18  2  0  0  0
 17 20  1  0  0  0
 20 21  1  0  0  0
 21 22  1  0  0  0
 22 23  1  0  0  0
 23 24  1  0  0  0
 24 25  1  0  0  0
 25 26  2  0  0  0
 25 27  1  0  0  0
 27 28  1  0  0  0
 27 31  1  0  0  0
 31 32  1  0  0  0
 32 33  2  0  0  0
 33 34  1  0  0  0
 34 35  1  0  0  0
 35 36  2  0  0  0
 36 37  1  0  0  0
 37 38  2  0  0  0
 38 39  1  0  0  0
 39 40  2  0  0  0
  6  7  1  0  0  0
  7  8  1  0  0  0
  7  9  2  0  0  0
 51 43  1  0  0  0
 24 20  1  0  0  0
 40 32  1  0  0  0
 51 46  1  0  0  0
 40 35  1  0  0  0
  2  5  1  0  0  0
 45 52  1  0  0  0
 16 19  1  0  0  0
 28 29  1  0  0  0
 28 30  1  0  0  0
 34 41  1  0  0  0
  8 10  1  0  0  0
  8 11  1  0  0  0
M  END
> <minimizedAffinity>
-8.51351

> <CNNscore>
0.3461722732

> <CNNaffinity>
6.7080183029

> <CNN_VS>
2.3221299648

> <CNNaffinity_variance>
0.7237493992

$$$$
[H]c1c([H])c([H])c2c(c1[H])c(C([H])([H])[C@@]([H])(C(=O)N1C([H])([H])C([H])([H])C([H])([H])[C@@]1([H])C(=O)N([H])[C@]([H])(C(=O)N([H])[C@]([H])(C(=O)N([H])[H])C([H])([H])C([H])(C([H])([H])[H])C([H])([H])[H])C([H])([H])c1c([H])n([H])c3c([H])c([H])c([H])c([H])c13)N([H])[H])c([H])n2[H]


 52 56  0  0  0  0  0  0  0  0999 V2000
   36.2009  -18.6430   36.0611 C   0  0  0  0  0  0  0  0  0  0  0  0
   37.8512  -20.0359   34.7003 N   0  0  0  0  0  0  0  0  0  0  0  0
   37.4831  -19.4003   35.8963 C   0  0  0  0  0  0  0  0  0  0  0  0
   38.2554  -19.4606   36.8871 O   0  0  0  0  0  0  0  0  0  0  0  0
   37.1980  -19.9860   33.8876 H   0  0  0  0  0  0  0  0  0  0  0  0
   39.1273  -20.7725   34.5474 C   0  0  0  0  0  0  0  0  0  0  0  0
   39.7907  -20.1678   33.3908 C   0  0  0  0  0  0  0  0  0  0  0  0
   39.1328  -19.3603   32.4268 N   0  0  0  0  0  0  0  0  0  0  0  0
   41.0305  -20.3646   33.2112 O   0  0  0  0  0  0  0  0  0  0  0  0
   38.1401  -19.5402   32.2100 H   0  0  0  0  0  0  0  0  0  0  0  0
   39.6307  -18.5987   31.9414 H   0  0  0  0  0  0  0  0  0  0  0  0
   38.7517  -22.2094   34.4296 C   0  0  0  0  0  0  0  0  0  0  0  0
   39.9812  -22.5924   36.5823 C   0  0  0  0  0  0  0  0  0  0  0  0
   39.4347  -23.1918   35.2998 C   0  0  0  0  0  0  0  0  0  0  0  0
   40.4245  -24.0990   34.6814 C   0  0  0  0  0  0  0  0  0  0  0  0
   36.4031  -17.2365   35.8308 N   0  0  0  0  0  0  0  0  0  0  0  0
   36.4301  -16.2465   36.8742 C   0  0  0  0  0  0  0  0  0  0  0  0
   36.2603  -16.6877   38.0223 O   0  0  0  0  0  0  0  0  0  0  0  0
   36.5430  -16.9285   34.8478 H   0  0  0  0  0  0  0  0  0  0  0  0
   36.6435  -14.8583   36.5180 C   0  0  0  0  0  0  0  0  0  0  0  0
   37.6237  -14.2086   37.5191 C   0  0  0  0  0  0  0  0  0  0  0  0
   37.3496  -12.7560   37.3682 C   0  0  0  0  0  0  0  0  0  0  0  0
   36.1738  -12.6167   36.4338 C   0  0  0  0  0  0  0  0  0  0  0  0
   35.5630  -13.9431   36.5250 N   0  0  0  0  0  0  0  0  0  0  0  0
   34.1615  -14.1124   36.5280 C   0  0  0  0  0  0  0  0  0  0  0  0
   33.7269  -15.3174   36.4882 O   0  0  0  0  0  0  0  0  0  0  0  0
   33.1764  -13.0320   36.5651 C   0  0  0  0  0  0  0  0  0  0  0  0
   32.1689  -13.4207   35.5171 N   0  0  0  0  0  0  0  0  0  0  0  0
   32.6712  -13.8407   34.7142 H   0  0  0  0  0  0  0  0  0  0  0  0
   31.5706  -12.6050   35.2921 H   0  0  0  0  0  0  0  0  0  0  0  0
   32.3556  -12.8558   37.7821 C   0  0  0  0  0  0  0  0  0  0  0  0
   31.4101  -11.7597   37.8707 C   0  0  0  0  0  0  0  0  0  0  0  0
   31.6297  -10.4422   37.4804 C   0  0  0  0  0  0  0  0  0  0  0  0
   30.5316   -9.7336   37.7539 N   0  0  0  0  0  0  0  0  0  0  0  0
   29.5884  -10.5150   38.3077 C   0  0  0  0  0  0  0  0  0  0  0  0
   28.3047  -10.2915   38.7527 C   0  0  0  0  0  0  0  0  0  0  0  0
   27.5336  -11.3173   39.2796 C   0  0  0  0  0  0  0  0  0  0  0  0
   28.0565  -12.5780   39.3601 C   0  0  0  0  0  0  0  0  0  0  0  0
   29.3413  -12.7944   38.9138 C   0  0  0  0  0  0  0  0  0  0  0  0
   30.1281  -11.7828   38.3847 C   0  0  0  0  0  0  0  0  0  0  0  0
   30.3596   -8.7029   37.5863 H   0  0  0  0  0  0  0  0  0  0  0  0
   35.1759  -19.2286   35.0938 C   0  0  0  0  0  0  0  0  0  0  0  0
   34.1038  -19.9900   35.7068 C   0  0  0  0  0  0  0  0  0  0  0  0
   34.2314  -20.9911   36.6782 C   0  0  0  0  0  0  0  0  0  0  0  0
   33.0223  -21.4939   36.9631 N   0  0  0  0  0  0  0  0  0  0  0  0
   32.0949  -20.8765   36.2307 C   0  0  0  0  0  0  0  0  0  0  0  0
   30.7256  -21.0536   36.2026 C   0  0  0  0  0  0  0  0  0  0  0  0
   29.9825  -20.2622   35.3594 C   0  0  0  0  0  0  0  0  0  0  0  0
   30.5861  -19.3177   34.5641 C   0  0  0  0  0  0  0  0  0  0  0  0
   31.9552  -19.1619   34.6105 C   0  0  0  0  0  0  0  0  0  0  0  0
   32.7573  -19.9333   35.4408 C   0  0  0  0  0  0  0  0  0  0  0  0
   32.8818  -22.2520   37.6602 H   0  0  0  0  0  0  0  0  0  0  0  0
 13 14  1  0  0  0
 14 15  1  0  0  0
 14 12  1  0  0  0
 12  6  1  0  0  0
  6  2  1  0  0  0
  2  3  1  0  0  0
  3  4  2  0  0  0
  3  1  1  0  0  0
  1 42  1  0  0  0
 42 43  1  0  0  0
 43 44  2  0  0  0
 44 45  1  0  0  0
 45 46  1  0  0  0
 46 47  2  0  0  0
 47 48  1  0  0  0
 48 49  2  0  0  0
 49 50  1  0  0  0
 50 51  2  0  0  0
  1 16  1  0  0  0
 16 17  1  0  0  0
 17 18  2  0  0  0
 17 20  1  0  0  0
 20 21  1  0  0  0
 21 22  1  0  0  0
 22 23  1  0  0  0
 23 24  1  0  0  0
 24 25  1  0  0  0
 25 26  2  0  0  0
 25 27  1  0  0  0
 27 28  1  0  0  0
 27 31  1  0  0  0
 31 32  1  0  0  0
 32 33  2  0  0  0
 33 34  1  0  0  0
 34 35  1  0  0  0
 35 36  2  0  0  0
 36 37  1  0  0  0
 37 38  2  0  0  0
 38 39  1  0  0  0
 39 40  2  0  0  0
  6  7  1  0  0  0
  7  8  1  0  0  0
  7  9  2  0  0  0
 51 43  1  0  0  0
 24 20  1  0  0  0
 40 32  1  0  0  0
 51 46  1  0  0  0
 40 35  1  0  0  0
  2  5  1  0  0  0
 45 52  1  0  0  0
 16 19  1  0  0  0
 28 29  1  0  0  0
 28 30  1  0  0  0
 34 41  1  0  0  0
  8 10  1  0  0  0
  8 11  1  0  0  0
M  END
> <minimizedAffinity>
-8.55448

> <CNNscore>
0.3220517635

> <CNNaffinity>
7.1289620399

> <CNN_VS>
2.2958948612

> <CNNaffinity_variance>
0.2004285306

$$$$
[H]c1c([H])c([H])c2c(c1[H])c(C([H])([H])[C@@]([H])(C(=O)N1C([H])([H])C([H])([H])C([H])([H])[C@@]1([H])C(=O)N([H])[C@]([H])(C(=O)N([H])[C@]([H])(C(=O)N([H])[H])C([H])([H])C([H])(C([H])([H])[H])C([H])([H])[H])C([H])([H])c1c([H])n([H])c3c([H])c([H])c([H])c([H])c13)N([H])[H])c([H])n2[H]


 52 56  0  0  0  0  0  0  0  0999 V2000
   35.9608  -19.4826   36.8321 C   0  0  0  0  0  0  0  0  0  0  0  0
   36.1012  -21.3511   38.5653 N   0  0  0  0  0  0  0  0  0  0  0  0
   35.6875  -20.0650   38.1851 C   0  0  0  0  0  0  0  0  0  0  0  0
   35.0551  -19.3546   39.0081 O   0  0  0  0  0  0  0  0  0  0  0  0
   36.6179  -21.9344   37.8707 H   0  0  0  0  0  0  0  0  0  0  0  0
   35.8339  -21.9109   39.9105 C   0  0  0  0  0  0  0  0  0  0  0  0
   37.1467  -22.2629   40.4546 C   0  0  0  0  0  0  0  0  0  0  0  0
   37.8973  -21.4315   41.3261 N   0  0  0  0  0  0  0  0  0  0  0  0
   37.6730  -23.3732   40.1410 O   0  0  0  0  0  0  0  0  0  0  0  0
   37.8131  -20.4064   41.2431 H   0  0  0  0  0  0  0  0  0  0  0  0
   38.5236  -21.8354   42.0389 H   0  0  0  0  0  0  0  0  0  0  0  0
   34.8741  -23.0303   39.6977 C   0  0  0  0  0  0  0  0  0  0  0  0
   32.4274  -23.1093   40.2449 C   0  0  0  0  0  0  0  0  0  0  0  0
   33.5012  -22.7084   39.2504 C   0  0  0  0  0  0  0  0  0  0  0  0
   33.1105  -23.0868   37.8759 C   0  0  0  0  0  0  0  0  0  0  0  0
   36.3711  -18.1070   36.9394 N   0  0  0  0  0  0  0  0  0  0  0  0
   36.0250  -17.0878   35.9850 C   0  0  0  0  0  0  0  0  0  0  0  0
   35.3322  -17.4749   35.0301 O   0  0  0  0  0  0  0  0  0  0  0  0
   36.9473  -17.8431   37.7635 H   0  0  0  0  0  0  0  0  0  0  0  0
   36.4967  -15.7350   36.2020 C   0  0  0  0  0  0  0  0  0  0  0  0
   37.3519  -15.6817   37.4870 C   0  0  0  0  0  0  0  0  0  0  0  0
   37.3202  -14.2426   37.8560 C   0  0  0  0  0  0  0  0  0  0  0  0
   36.3744  -13.5562   36.9024 C   0  0  0  0  0  0  0  0  0  0  0  0
   35.5755  -14.6811   36.4152 N   0  0  0  0  0  0  0  0  0  0  0  0
   34.1891  -14.5555   36.1803 C   0  0  0  0  0  0  0  0  0  0  0  0
   33.6035  -15.5592   35.6399 O   0  0  0  0  0  0  0  0  0  0  0  0
   33.3784  -13.3796   36.4947 C   0  0  0  0  0  0  0  0  0  0  0  0
   32.2266  -13.4619   35.5297 N   0  0  0  0  0  0  0  0  0  0  0  0
   32.5812  -13.8058   34.6190 H   0  0  0  0  0  0  0  0  0  0  0  0
   31.7326  -12.5514   35.5012 H   0  0  0  0  0  0  0  0  0  0  0  0
   32.7160  -13.3013   37.8142 C   0  0  0  0  0  0  0  0  0  0  0  0
   31.6831  -12.3118   38.0532 C   0  0  0  0  0  0  0  0  0  0  0  0
   30.3985  -12.5535   38.5305 C   0  0  0  0  0  0  0  0  0  0  0  0
   29.7424  -11.3917   38.5801 N   0  0  0  0  0  0  0  0  0  0  0  0
   30.5276  -10.3850   38.1593 C   0  0  0  0  0  0  0  0  0  0  0  0
   30.3488   -9.0260   38.0287 C   0  0  0  0  0  0  0  0  0  0  0  0
   31.3677   -8.2039   37.5699 C   0  0  0  0  0  0  0  0  0  0  0  0
   32.5761   -8.7516   37.2396 C   0  0  0  0  0  0  0  0  0  0  0  0
   32.7478  -10.1116   37.3721 C   0  0  0  0  0  0  0  0  0  0  0  0
   31.7422  -10.9502   37.8280 C   0  0  0  0  0  0  0  0  0  0  0  0
   28.7471  -11.2153   38.8938 H   0  0  0  0  0  0  0  0  0  0  0  0
   37.0295  -20.3360   36.1549 C   0  0  0  0  0  0  0  0  0  0  0  0
   38.3552  -19.7490   36.1017 C   0  0  0  0  0  0  0  0  0  0  0  0
   38.8865  -18.9622   35.0717 C   0  0  0  0  0  0  0  0  0  0  0  0
   40.1556  -18.6443   35.3616 N   0  0  0  0  0  0  0  0  0  0  0  0
   40.4963  -19.1790   36.5345 C   0  0  0  0  0  0  0  0  0  0  0  0
   41.6864  -19.1026   37.2308 C   0  0  0  0  0  0  0  0  0  0  0  0
   41.7726  -19.7368   38.4472 C   0  0  0  0  0  0  0  0  0  0  0  0
   40.7016  -20.4296   38.9589 C   0  0  0  0  0  0  0  0  0  0  0  0
   39.5249  -20.4912   38.2430 C   0  0  0  0  0  0  0  0  0  0  0  0
   39.3796  -19.8722   37.0087 C   0  0  0  0  0  0  0  0  0  0  0  0
   40.7447  -18.0635   34.7321 H   0  0  0  0  0  0  0  0  0  0  0  0
 13 14  1  0  0  0
 14 15  1  0  0  0
 14 12  1  0  0  0
 12  6  1  0  0  0
  6  2  1  0  0  0
  2  3  1  0  0  0
  3  4  2  0  0  0
  3  1  1  0  0  0
  1 42  1  0  0  0
 42 43  1  0  0  0
 43 44  2  0  0  0
 44 45  1  0  0  0
 45 46  1  0  0  0
 46 47  2  0  0  0
 47 48  1  0  0  0
 48 49  2  0  0  0
 49 50  1  0  0  0
 50 51  2  0  0  0
  1 16  1  0  0  0
 16 17  1  0  0  0
 17 18  2  0  0  0
 17 20  1  0  0  0
 20 21  1  0  0  0
 21 22  1  0  0  0
 22 23  1  0  0  0
 23 24  1  0  0  0
 24 25  1  0  0  0
 25 26  2  0  0  0
 25 27  1  0  0  0
 27 28  1  0  0  0
 27 31  1  0  0  0
 31 32  1  0  0  0
 32 33  2  0  0  0
 33 34  1  0  0  0
 34 35  1  0  0  0
 35 36  2  0  0  0
 36 37  1  0  0  0
 37 38  2  0  0  0
 38 39  1  0  0  0
 39 40  2  0  0  0
  6  7  1  0  0  0
  7  8  1  0  0  0
  7  9  2  0  0  0
 51 43  1  0  0  0
 24 20  1  0  0  0
 40 32  1  0  0  0
 51 46  1  0  0  0
 40 35  1  0  0  0
  2  5  1  0  0  0
 45 52  1  0  0  0
 16 19  1  0  0  0
 28 29  1  0  0  0
 28 30  1  0  0  0
 34 41  1  0  0  0
  8 10  1  0  0  0
  8 11  1  0  0  0
M  END
> <minimizedAffinity>
-7.53183

> <CNNscore>
0.2612726092

> <CNNaffinity>
6.4541916847

> <CNN_VS>
1.6863034964

> <CNNaffinity_variance>
0.1478291899

$$$$
[H]c1c([H])c([H])c2c(c1[H])c(C([H])([H])[C@@]([H])(C(=O)N1C([H])([H])C([H])([H])C([H])([H])[C@@]1([H])C(=O)N([H])[C@]([H])(C(=O)N([H])[C@]([H])(C(=O)N([H])[H])C([H])([H])C([H])(C([H])([H])[H])C([H])([H])[H])C([H])([H])c1c([H])n([H])c3c([H])c([H])c([H])c([H])c13)N([H])[H])c([H])n2[H]


 52 56  0  0  0  0  0  0  0  0999 V2000
   36.6982  -19.3595   35.2235 C   0  0  0  0  0  0  0  0  0  0  0  0
   35.8419  -21.2085   36.7608 N   0  0  0  0  0  0  0  0  0  0  0  0
   36.7297  -20.1550   36.4927 C   0  0  0  0  0  0  0  0  0  0  0  0
   37.5990  -19.8510   37.3492 O   0  0  0  0  0  0  0  0  0  0  0  0
   35.1194  -21.4458   36.0458 H   0  0  0  0  0  0  0  0  0  0  0  0
   35.8909  -21.9944   38.0156 C   0  0  0  0  0  0  0  0  0  0  0  0
   35.4866  -23.3511   37.6422 C   0  0  0  0  0  0  0  0  0  0  0  0
   35.8202  -23.9716   36.4103 N   0  0  0  0  0  0  0  0  0  0  0  0
   34.7898  -24.0372   38.4497 O   0  0  0  0  0  0  0  0  0  0  0  0
   35.9275  -23.3902   35.5646 H   0  0  0  0  0  0  0  0  0  0  0  0
   35.9569  -24.9919   36.3480 H   0  0  0  0  0  0  0  0  0  0  0  0
   35.0110  -21.2732   38.9774 C   0  0  0  0  0  0  0  0  0  0  0  0
   36.5376  -21.8892   40.8700 C   0  0  0  0  0  0  0  0  0  0  0  0
   35.5731  -20.8735   40.2862 C   0  0  0  0  0  0  0  0  0  0  0  0
   34.6412  -20.3796   41.3220 C   0  0  0  0  0  0  0  0  0  0  0  0
   37.0287  -17.9810   35.4742 N   0  0  0  0  0  0  0  0  0  0  0  0
   36.0851  -16.9995   35.9385 C   0  0  0  0  0  0  0  0  0  0  0  0
   34.9305  -17.4214   36.1137 O   0  0  0  0  0  0  0  0  0  0  0  0
   38.0131  -17.6886   35.3123 H   0  0  0  0  0  0  0  0  0  0  0  0
   36.5376  -15.6403   36.1565 C   0  0  0  0  0  0  0  0  0  0  0  0
   37.4008  -15.5778   37.4356 C   0  0  0  0  0  0  0  0  0  0  0  0
   37.3498  -14.1405   37.8095 C   0  0  0  0  0  0  0  0  0  0  0  0
   36.3868  -13.4658   36.8647 C   0  0  0  0  0  0  0  0  0  0  0  0
   35.6018  -14.6013   36.3796 N   0  0  0  0  0  0  0  0  0  0  0  0
   34.2120  -14.4963   36.1547 C   0  0  0  0  0  0  0  0  0  0  0  0
   33.6380  -15.5072   35.6153 O   0  0  0  0  0  0  0  0  0  0  0  0
   33.3856  -13.3339   36.4786 C   0  0  0  0  0  0  0  0  0  0  0  0
   32.2285  -13.4308   35.5213 N   0  0  0  0  0  0  0  0  0  0  0  0
   32.5821  -13.7664   34.6071 H   0  0  0  0  0  0  0  0  0  0  0  0
   31.7205  -12.5279   35.4993 H   0  0  0  0  0  0  0  0  0  0  0  0
   32.7313  -13.2700   37.8029 C   0  0  0  0  0  0  0  0  0  0  0  0
   31.6932  -12.2894   38.0559 C   0  0  0  0  0  0  0  0  0  0  0  0
   30.4172  -12.5421   38.5504 C   0  0  0  0  0  0  0  0  0  0  0  0
   29.7519  -11.3860   38.6090 N   0  0  0  0  0  0  0  0  0  0  0  0
   30.5227  -10.3726   38.1779 C   0  0  0  0  0  0  0  0  0  0  0  0
   30.3306   -9.0152   38.0499 C   0  0  0  0  0  0  0  0  0  0  0  0
   31.3361   -8.1843   37.5775 C   0  0  0  0  0  0  0  0  0  0  0  0
   32.5446   -8.7217   37.2309 C   0  0  0  0  0  0  0  0  0  0  0  0
   32.7298  -10.0801   37.3608 C   0  0  0  0  0  0  0  0  0  0  0  0
   31.7376  -10.9273   37.8302 C   0  0  0  0  0  0  0  0  0  0  0  0
   28.7595  -11.2181   38.9362 H   0  0  0  0  0  0  0  0  0  0  0  0
   37.6714  -19.9998   34.2376 C   0  0  0  0  0  0  0  0  0  0  0  0
   38.9132  -19.2789   34.0297 C   0  0  0  0  0  0  0  0  0  0  0  0
   39.1563  -18.2775   33.0808 C   0  0  0  0  0  0  0  0  0  0  0  0
   40.4348  -17.8846   33.1634 N   0  0  0  0  0  0  0  0  0  0  0  0
   41.0557  -18.5735   34.1213 C   0  0  0  0  0  0  0  0  0  0  0  0
   42.3611  -18.4948   34.5649 C   0  0  0  0  0  0  0  0  0  0  0  0
   42.7501  -19.3148   35.5973 C   0  0  0  0  0  0  0  0  0  0  0  0
   41.8627  -20.1913   36.1745 C   0  0  0  0  0  0  0  0  0  0  0  0
   40.5652  -20.2508   35.7121 C   0  0  0  0  0  0  0  0  0  0  0  0
   40.1158  -19.4488   34.6717 C   0  0  0  0  0  0  0  0  0  0  0  0
   40.8344  -17.1475   32.5490 H   0  0  0  0  0  0  0  0  0  0  0  0
 13 14  1  0  0  0
 14 15  1  0  0  0
 14 12  1  0  0  0
 12  6  1  0  0  0
  6  2  1  0  0  0
  2  3  1  0  0  0
  3  4  2  0  0  0
  3  1  1  0  0  0
  1 42  1  0  0  0
 42 43  1  0  0  0
 43 44  2  0  0  0
 44 45  1  0  0  0
 45 46  1  0  0  0
 46 47  2  0  0  0
 47 48  1  0  0  0
 48 49  2  0  0  0
 49 50  1  0  0  0
 50 51  2  0  0  0
  1 16  1  0  0  0
 16 17  1  0  0  0
 17 18  2  0  0  0
 17 20  1  0  0  0
 20 21  1  0  0  0
 21 22  1  0  0  0
 22 23  1  0  0  0
 23 24  1  0  0  0
 24 25  1  0  0  0
 25 26  2  0  0  0
 25 27  1  0  0  0
 27 28  1  0  0  0
 27 31  1  0  0  0
 31 32  1  0  0  0
 32 33  2  0  0  0
 33 34  1  0  0  0
 34 35  1  0  0  0
 35 36  2  0  0  0
 36 37  1  0  0  0
 37 38  2  0  0  0
 38 39  1  0  0  0
 39 40  2  0  0  0
  6  7  1  0  0  0
  7  8  1  0  0  0
  7  9  2  0  0  0
 51 43  1  0  0  0
 24 20  1  0  0  0
 40 32  1  0  0  0
 51 46  1  0  0  0
 40 35  1  0  0  0
  2  5  1  0  0  0
 45 52  1  0  0  0
 16 19  1  0  0  0
 28 29  1  0  0  0
 28 30  1  0  0  0
 34 41  1  0  0  0
  8 10  1  0  0  0
  8 11  1  0  0  0
M  END
> <minimizedAffinity>
-8.20004

> <CNNscore>
0.2413481772

> <CNNaffinity>
6.8089342117

> <CNN_VS>
1.6433238983

> <CNNaffinity_variance>
0.0375195146

$$$$
[H]c1c([H])c([H])c2c(c1[H])c(C([H])([H])[C@@]([H])(C(=O)N1C([H])([H])C([H])([H])C([H])([H])[C@@]1([H])C(=O)N([H])[C@]([H])(C(=O)N([H])[C@]([H])(C(=O)N([H])[H])C([H])([H])C([H])(C([H])([H])[H])C([H])([H])[H])C([H])([H])c1c([H])n([H])c3c([H])c([H])c([H])c([H])c13)N([H])[H])c([H])n2[H]


 52 56  0  0  0  0  0  0  0  0999 V2000
   35.1902  -18.7948   37.0445 C   0  0  0  0  0  0  0  0  0  0  0  0
   36.0910  -20.9534   38.0665 N   0  0  0  0  0  0  0  0  0  0  0  0
   36.3033  -19.7205   37.4302 C   0  0  0  0  0  0  0  0  0  0  0  0
   37.4787  -19.3604   37.1647 O   0  0  0  0  0  0  0  0  0  0  0  0
   35.1116  -21.2374   38.2893 H   0  0  0  0  0  0  0  0  0  0  0  0
   37.2002  -21.8645   38.4328 C   0  0  0  0  0  0  0  0  0  0  0  0
   36.7184  -23.2111   38.1200 C   0  0  0  0  0  0  0  0  0  0  0  0
   36.8462  -24.3254   38.9897 N   0  0  0  0  0  0  0  0  0  0  0  0
   36.1506  -23.4260   37.0067 O   0  0  0  0  0  0  0  0  0  0  0  0
   37.6573  -24.3796   39.6253 H   0  0  0  0  0  0  0  0  0  0  0  0
   36.1424  -25.0792   38.9961 H   0  0  0  0  0  0  0  0  0  0  0  0
   37.5033  -21.5759   39.8626 C   0  0  0  0  0  0  0  0  0  0  0  0
   39.8365  -21.1401   39.0512 C   0  0  0  0  0  0  0  0  0  0  0  0
   38.8970  -21.2513   40.2378 C   0  0  0  0  0  0  0  0  0  0  0  0
   39.5219  -22.0264   41.3305 C   0  0  0  0  0  0  0  0  0  0  0  0
   35.6165  -17.4219   37.1183 N   0  0  0  0  0  0  0  0  0  0  0  0
   36.0965  -16.6672   35.9916 C   0  0  0  0  0  0  0  0  0  0  0  0
   36.1265  -17.2882   34.9169 O   0  0  0  0  0  0  0  0  0  0  0  0
   35.5647  -16.9547   38.0456 H   0  0  0  0  0  0  0  0  0  0  0  0
   36.4965  -15.2887   36.1903 C   0  0  0  0  0  0  0  0  0  0  0  0
   37.3873  -15.1812   37.4474 C   0  0  0  0  0  0  0  0  0  0  0  0
   37.2849  -13.7448   37.8139 C   0  0  0  0  0  0  0  0  0  0  0  0
   36.2716  -13.1176   36.8891 C   0  0  0  0  0  0  0  0  0  0  0  0
   35.5235  -14.2884   36.4303 N   0  0  0  0  0  0  0  0  0  0  0  0
   34.1255  -14.2433   36.2391 C   0  0  0  0  0  0  0  0  0  0  0  0
   33.5816  -15.2811   35.7200 O   0  0  0  0  0  0  0  0  0  0  0  0
   33.2590  -13.1144   36.5764 C   0  0  0  0  0  0  0  0  0  0  0  0
   32.0945  -13.2539   35.6335 N   0  0  0  0  0  0  0  0  0  0  0  0
   32.4491  -13.5736   34.7140 H   0  0  0  0  0  0  0  0  0  0  0  0
   31.5517  -12.3712   35.6202 H   0  0  0  0  0  0  0  0  0  0  0  0
   32.6196  -13.0786   37.9090 C   0  0  0  0  0  0  0  0  0  0  0  0
   31.4603  -12.2380   38.1383 C   0  0  0  0  0  0  0  0  0  0  0  0
   31.2359  -10.9722   37.6055 C   0  0  0  0  0  0  0  0  0  0  0  0
   30.0748  -10.5153   38.0806 N   0  0  0  0  0  0  0  0  0  0  0  0
   29.5121  -11.4157   38.9050 C   0  0  0  0  0  0  0  0  0  0  0  0
   28.3410  -11.4460   39.6284 C   0  0  0  0  0  0  0  0  0  0  0  0
   27.9990  -12.5441   40.4041 C   0  0  0  0  0  0  0  0  0  0  0  0
   28.8404  -13.6206   40.4533 C   0  0  0  0  0  0  0  0  0  0  0  0
   30.0103  -13.5835   39.7277 C   0  0  0  0  0  0  0  0  0  0  0  0
   30.3705  -12.4955   38.9473 C   0  0  0  0  0  0  0  0  0  0  0  0
   29.6054   -9.5881   37.8802 H   0  0  0  0  0  0  0  0  0  0  0  0
   34.7308  -19.1652   35.6370 C   0  0  0  0  0  0  0  0  0  0  0  0
   33.2986  -19.3255   35.4704 C   0  0  0  0  0  0  0  0  0  0  0  0
   32.3854  -18.3489   35.0526 C   0  0  0  0  0  0  0  0  0  0  0  0
   31.1469  -18.8605   35.0661 N   0  0  0  0  0  0  0  0  0  0  0  0
   31.1893  -20.1301   35.4709 C   0  0  0  0  0  0  0  0  0  0  0  0
   30.1673  -21.0466   35.6215 C   0  0  0  0  0  0  0  0  0  0  0  0
   30.4861  -22.3164   36.0403 C   0  0  0  0  0  0  0  0  0  0  0  0
   31.7890  -22.6664   36.3024 C   0  0  0  0  0  0  0  0  0  0  0  0
   32.7906  -21.7321   36.1449 C   0  0  0  0  0  0  0  0  0  0  0  0
   32.5289  -20.4342   35.7267 C   0  0  0  0  0  0  0  0  0  0  0  0
   30.3103  -18.3077   34.7919 H   0  0  0  0  0  0  0  0  0  0  0  0
 13 14  1  0  0  0
 14 15  1  0  0  0
 14 12  1  0  0  0
 12  6  1  0  0  0
  6  2  1  0  0  0
  2  3  1  0  0  0
  3  4  2  0  0  0
  3  1  1  0  0  0
  1 42  1  0  0  0
 42 43  1  0  0  0
 43 44  2  0  0  0
 44 45  1  0  0  0
 45 46  1  0  0  0
 46 47  2  0  0  0
 47 48  1  0  0  0
 48 49  2  0  0  0
 49 50  1  0  0  0
 50 51  2  0  0  0
  1 16  1  0  0  0
 16 17  1  0  0  0
 17 18  2  0  0  0
 17 20  1  0  0  0
 20 21  1  0  0  0
 21 22  1  0  0  0
 22 23  1  0  0  0
 23 24  1  0  0  0
 24 25  1  0  0  0
 25 26  2  0  0  0
 25 27  1  0  0  0
 27 28  1  0  0  0
 27 31  1  0  0  0
 31 32  1  0  0  0
 32 33  2  0  0  0
 33 34  1  0  0  0
 34 35  1  0  0  0
 35 36  2  0  0  0
 36 37  1  0  0  0
 37 38  2  0  0  0
 38 39  1  0  0  0
 39 40  2  0  0  0
  6  7  1  0  0  0
  7  8  1  0  0  0
  7  9  2  0  0  0
 51 43  1  0  0  0
 24 20  1  0  0  0
 40 32  1  0  0  0
 51 46  1  0  0  0
 40 35  1  0  0  0
  2  5  1  0  0  0
 45 52  1  0  0  0
 16 19  1  0  0  0
 28 29  1  0  0  0
 28 30  1  0  0  0
 34 41  1  0  0  0
  8 10  1  0  0  0
  8 11  1  0  0  0
M  END
> <minimizedAffinity>
-8.16108

> <CNNscore>
0.2366029918

> <CNNaffinity>
6.6569137573

> <CNN_VS>
1.5750457048

> <CNNaffinity_variance>
0.2994149327

$$$$
[H]c1nc2c([H])c([H])c([H])c(-c3c([H])nn4c([H])c(-c5c([H])c(OC([H])([H])[H])c(OC([H])([H])[H])c(OC([H])([H])[H])c5[H])c([H])nc34)c2c([H])c1[H]


 31 35  0  0  0  0  0  0  0  0999 V2000
   36.6568  -21.3326   38.2658 C   0  0  0  0  0  0  0  0  0  0  0  0
   35.8140  -20.2790   38.0172 C   0  0  0  0  0  0  0  0  0  0  0  0
   34.6203  -20.4362   37.4007 N   0  0  0  0  0  0  0  0  0  0  0  0
   34.2943  -21.6842   37.0379 C   0  0  0  0  0  0  0  0  0  0  0  0
   33.1425  -22.1813   36.3967 C   0  0  0  0  0  0  0  0  0  0  0  0
   33.3282  -23.5356   36.2734 C   0  0  0  0  0  0  0  0  0  0  0  0
   34.5227  -23.8458   36.8085 N   0  0  0  0  0  0  0  0  0  0  0  0
   35.0738  -22.7305   37.2548 N   0  0  0  0  0  0  0  0  0  0  0  0
   36.2816  -22.5994   37.8753 C   0  0  0  0  0  0  0  0  0  0  0  0
   32.0331  -21.3490   35.9584 C   0  0  0  0  0  0  0  0  0  0  0  0
   32.2937  -20.4365   34.9384 C   0  0  0  0  0  0  0  0  0  0  0  0
   31.2952  -19.6082   34.4332 C   0  0  0  0  0  0  0  0  0  0  0  0
   30.0155  -19.6827   34.9451 C   0  0  0  0  0  0  0  0  0  0  0  0
   29.7475  -20.5805   35.9529 C   0  0  0  0  0  0  0  0  0  0  0  0
   28.4989  -20.6201   36.4352 N   0  0  0  0  0  0  0  0  0  0  0  0
   28.1922  -21.4712   37.4268 C   0  0  0  0  0  0  0  0  0  0  0  0
   29.1595  -22.2978   37.9424 C   0  0  0  0  0  0  0  0  0  0  0  0
   30.4624  -22.2862   37.4699 C   0  0  0  0  0  0  0  0  0  0  0  0
   30.7610  -21.4090   36.4532 C   0  0  0  0  0  0  0  0  0  0  0  0
   39.3605  -21.2507   40.8364 C   0  0  0  0  0  0  0  0  0  0  0  0
   38.1253  -21.3826   40.2676 C   0  0  0  0  0  0  0  0  0  0  0  0
   37.9454  -21.1818   38.9259 C   0  0  0  0  0  0  0  0  0  0  0  0
   39.0305  -20.8428   38.1467 C   0  0  0  0  0  0  0  0  0  0  0  0
   40.2699  -20.7106   38.7138 C   0  0  0  0  0  0  0  0  0  0  0  0
   40.5085  -20.9059   40.0883 C   0  0  0  0  0  0  0  0  0  0  0  0
   39.1866  -20.5812   43.2114 C   0  0  0  0  0  0  0  0  0  0  0  0
   39.5497  -21.4487   42.1856 O   0  0  0  0  0  0  0  0  0  0  0  0
   41.3456  -20.3772   37.9521 O   0  0  0  0  0  0  0  0  0  0  0  0
   41.7128  -19.0913   37.5178 C   0  0  0  0  0  0  0  0  0  0  0  0
   41.6718  -20.7875   40.6556 O   0  0  0  0  0  0  0  0  0  0  0  0
   42.8059  -20.6359   41.2345 C   0  0  0  0  0  0  0  0  0  0  0  0
 26 27  1  0  0  0
 27 20  1  0  0  0
 20 21  2  0  0  0
 21 22  1  0  0  0
 22 23  2  0  0  0
 23 24  1  0  0  0
 24 28  1  0  0  0
 28 29  1  0  0  0
 24 25  2  0  0  0
 25 30  1  0  0  0
 30 31  1  0  0  0
 22  1  1  0  0  0
  1  2  1  0  0  0
  2  3  2  0  0  0
  3  4  1  0  0  0
  4  5  2  0  0  0
  5  6  1  0  0  0
  6  7  2  0  0  0
  7  8  1  0  0  0
  8  9  1  0  0  0
  5 10  1  0  0  0
 10 11  2  0  0  0
 11 12  1  0  0  0
 12 13  2  0  0  0
 13 14  1  0  0  0
 14 15  2  0  0  0
 15 16  1  0  0  0
 16 17  2  0  0  0
 17 18  1  0  0  0
 18 19  2  0  0  0
 25 20  1  0  0  0
  9  1  2  0  0  0
 19 10  1  0  0  0
  8  4  1  0  0  0
 19 14  1  0  0  0
M  END
> <minimizedAffinity>
-4.90069

> <CNNscore>
0.4573855698

> <CNNaffinity>
5.0800676346

> <CNN_VS>
2.3235497475

> <CNNaffinity_variance>
0.0546294227

$$$$
[H]c1nc2c([H])c([H])c([H])c(-c3c([H])nn4c([H])c(-c5c([H])c(OC([H])([H])[H])c(OC([H])([H])[H])c(OC([H])([H])[H])c5[H])c([H])nc34)c2c([H])c1[H]


 31 35  0  0  0  0  0  0  0  0999 V2000
   37.0912  -21.2187   38.0433 C   0  0  0  0  0  0  0  0  0  0  0  0
   36.3157  -20.1545   37.6580 C   0  0  0  0  0  0  0  0  0  0  0  0
   35.0934  -20.3131   37.1008 N   0  0  0  0  0  0  0  0  0  0  0  0
   34.6689  -21.5738   36.9390 C   0  0  0  0  0  0  0  0  0  0  0  0
   33.4638  -22.0743   36.4079 C   0  0  0  0  0  0  0  0  0  0  0  0
   33.5504  -23.4418   36.4868 C   0  0  0  0  0  0  0  0  0  0  0  0
   34.7381  -23.7563   37.0343 N   0  0  0  0  0  0  0  0  0  0  0  0
   35.3806  -22.6308   37.2934 N   0  0  0  0  0  0  0  0  0  0  0  0
   36.6154  -22.4983   37.8582 C   0  0  0  0  0  0  0  0  0  0  0  0
   32.4006  -21.2369   35.8750 C   0  0  0  0  0  0  0  0  0  0  0  0
   32.7450  -20.3538   34.8541 C   0  0  0  0  0  0  0  0  0  0  0  0
   31.7970  -19.5236   34.2621 C   0  0  0  0  0  0  0  0  0  0  0  0
   30.4843  -19.5668   34.6865 C   0  0  0  0  0  0  0  0  0  0  0  0
   30.1336  -20.4355   35.6944 C   0  0  0  0  0  0  0  0  0  0  0  0
   28.8545  -20.4449   36.0907 N   0  0  0  0  0  0  0  0  0  0  0  0
   28.4669  -21.2668   37.0787 C   0  0  0  0  0  0  0  0  0  0  0  0
   29.3832  -22.0944   37.6788 C   0  0  0  0  0  0  0  0  0  0  0  0
   30.7153  -22.1136   37.2967 C   0  0  0  0  0  0  0  0  0  0  0  0
   31.0969  -21.2661   36.2826 C   0  0  0  0  0  0  0  0  0  0  0  0
   40.7126  -20.4800   38.5576 C   0  0  0  0  0  0  0  0  0  0  0  0
   39.5009  -20.6276   37.9438 C   0  0  0  0  0  0  0  0  0  0  0  0
   38.4092  -21.0668   38.6423 C   0  0  0  0  0  0  0  0  0  0  0  0
   38.5436  -21.3613   39.9820 C   0  0  0  0  0  0  0  0  0  0  0  0
   39.7566  -21.2137   40.6002 C   0  0  0  0  0  0  0  0  0  0  0  0
   40.9101  -20.7657   39.9273 C   0  0  0  0  0  0  0  0  0  0  0  0
   42.0633  -18.7408   37.4309 C   0  0  0  0  0  0  0  0  0  0  0  0
   41.8163  -20.0408   37.8618 O   0  0  0  0  0  0  0  0  0  0  0  0
   39.8975  -21.5012   41.9215 O   0  0  0  0  0  0  0  0  0  0  0  0
   39.9880  -22.7758   42.5082 C   0  0  0  0  0  0  0  0  0  0  0  0
   42.0742  -20.6159   40.4855 O   0  0  0  0  0  0  0  0  0  0  0  0
   43.2061  -20.4387   41.0613 C   0  0  0  0  0  0  0  0  0  0  0  0
 26 27  1  0  0  0
 27 20  1  0  0  0
 20 21  2  0  0  0
 21 22  1  0  0  0
 22 23  2  0  0  0
 23 24  1  0  0  0
 24 28  1  0  0  0
 28 29  1  0  0  0
 24 25  2  0  0  0
 25 30  1  0  0  0
 30 31  1  0  0  0
 22  1  1  0  0  0
  1  2  1  0  0  0
  2  3  2  0  0  0
  3  4  1  0  0  0
  4  5  2  0  0  0
  5  6  1  0  0  0
  6  7  2  0  0  0
  7  8  1  0  0  0
  8  9  1  0  0  0
  5 10  1  0  0  0
 10 11  2  0  0  0
 11 12  1  0  0  0
 12 13  2  0  0  0
 13 14  1  0  0  0
 14 15  2  0  0  0
 15 16  1  0  0  0
 16 17  2  0  0  0
 17 18  1  0  0  0
 18 19  2  0  0  0
 25 20  1  0  0  0
  9  1  2  0  0  0
 19 10  1  0  0  0
  8  4  1  0  0  0
 19 14  1  0  0  0
M  END
> <minimizedAffinity>
-4.93491

> <CNNscore>
0.3860990703

> <CNNaffinity>
4.9714479446

> <CNN_VS>
1.9194713831

> <CNNaffinity_variance>
0.1358365864

$$$$
[H]c1nc2c([H])c([H])c([H])c(-c3c([H])nn4c([H])c(-c5c([H])c(OC([H])([H])[H])c(OC([H])([H])[H])c(OC([H])([H])[H])c5[H])c([H])nc34)c2c([H])c1[H]


 31 35  0  0  0  0  0  0  0  0999 V2000
   35.0939  -17.6400   36.7797 C   0  0  0  0  0  0  0  0  0  0  0  0
   35.8868  -18.3707   37.6280 C   0  0  0  0  0  0  0  0  0  0  0  0
   35.7617  -19.7109   37.7621 N   0  0  0  0  0  0  0  0  0  0  0  0
   34.8148  -20.3004   37.0196 C   0  0  0  0  0  0  0  0  0  0  0  0
   34.4389  -21.6545   36.9196 C   0  0  0  0  0  0  0  0  0  0  0  0
   33.4163  -21.7006   36.0052 C   0  0  0  0  0  0  0  0  0  0  0  0
   33.1830  -20.4484   35.5730 N   0  0  0  0  0  0  0  0  0  0  0  0
   34.0261  -19.6384   36.1894 N   0  0  0  0  0  0  0  0  0  0  0  0
   34.1323  -18.2871   36.0349 C   0  0  0  0  0  0  0  0  0  0  0  0
   35.0478  -22.7262   37.6917 C   0  0  0  0  0  0  0  0  0  0  0  0
   36.2019  -23.3042   37.1675 C   0  0  0  0  0  0  0  0  0  0  0  0
   36.8727  -24.3228   37.8389 C   0  0  0  0  0  0  0  0  0  0  0  0
   36.3945  -24.7788   39.0507 C   0  0  0  0  0  0  0  0  0  0  0  0
   35.2551  -24.2149   39.5773 C   0  0  0  0  0  0  0  0  0  0  0  0
   34.8111  -24.6875   40.7489 N   0  0  0  0  0  0  0  0  0  0  0  0
   33.6969  -24.1770   41.2965 C   0  0  0  0  0  0  0  0  0  0  0  0
   33.0172  -23.1724   40.6534 C   0  0  0  0  0  0  0  0  0  0  0  0
   33.4451  -22.6571   39.4400 C   0  0  0  0  0  0  0  0  0  0  0  0
   34.5887  -23.1901   38.8920 C   0  0  0  0  0  0  0  0  0  0  0  0
   36.4679  -14.1786   36.5436 C   0  0  0  0  0  0  0  0  0  0  0  0
   36.4050  -15.5320   36.7202 C   0  0  0  0  0  0  0  0  0  0  0  0
   35.2131  -16.1976   36.6243 C   0  0  0  0  0  0  0  0  0  0  0  0
   34.0670  -15.4848   36.3453 C   0  0  0  0  0  0  0  0  0  0  0  0
   34.1270  -14.1283   36.1671 C   0  0  0  0  0  0  0  0  0  0  0  0
   35.3271  -13.3962   36.2553 C   0  0  0  0  0  0  0  0  0  0  0  0
   38.4193  -13.3128   37.7931 C   0  0  0  0  0  0  0  0  0  0  0  0
   37.6624  -13.5011   36.6405 O   0  0  0  0  0  0  0  0  0  0  0  0
   33.0012  -13.4179   35.8909 O   0  0  0  0  0  0  0  0  0  0  0  0
   32.2126  -12.6895   36.7989 C   0  0  0  0  0  0  0  0  0  0  0  0
   35.4163  -12.1100   36.0918 O   0  0  0  0  0  0  0  0  0  0  0  0
   35.4886  -10.8455   35.8918 C   0  0  0  0  0  0  0  0  0  0  0  0
 26 27  1  0  0  0
 27 20  1  0  0  0
 20 21  2  0  0  0
 21 22  1  0  0  0
 22 23  2  0  0  0
 23 24  1  0  0  0
 24 28  1  0  0  0
 28 29  1  0  0  0
 24 25  2  0  0  0
 25 30  1  0  0  0
 30 31  1  0  0  0
 22  1  1  0  0  0
  1  2  1  0  0  0
  2  3  2  0  0  0
  3  4  1  0  0  0
  4  5  2  0  0  0
  5  6  1  0  0  0
  6  7  2  0  0  0
  7  8  1  0  0  0
  8  9  1  0  0  0
  5 10  1  0  0  0
 10 11  2  0  0  0
 11 12  1  0  0  0
 12 13  2  0  0  0
 13 14  1  0  0  0
 14 15  2  0  0  0
 15 16  1  0  0  0
 16 17  2  0  0  0
 17 18  1  0  0  0
 18 19  2  0  0  0
 25 20  1  0  0  0
  9  1  2  0  0  0
 19 10  1  0  0  0
  8  4  1  0  0  0
 19 14  1  0  0  0
M  END
> <minimizedAffinity>
-5.32861

> <CNNscore>
0.3474516869

> <CNNaffinity>
5.6895356178

> <CNN_VS>
1.9768387079

> <CNNaffinity_variance>
0.0302204825

$$$$
[H]c1nc2c([H])c([H])c([H])c(-c3c([H])nn4c([H])c(-c5c([H])c(OC([H])([H])[H])c(OC([H])([H])[H])c(OC([H])([H])[H])c5[H])c([H])nc34)c2c([H])c1[H]


 31 35  0  0  0  0  0  0  0  0999 V2000
   34.6045  -20.7542   36.9897 C   0  0  0  0  0  0  0  0  0  0  0  0
   35.6915  -21.5762   36.8316 C   0  0  0  0  0  0  0  0  0  0  0  0
   36.9530  -21.0980   36.7328 N   0  0  0  0  0  0  0  0  0  0  0  0
   37.0947  -19.7670   36.7962 C   0  0  0  0  0  0  0  0  0  0  0  0
   38.2509  -18.9642   36.7354 C   0  0  0  0  0  0  0  0  0  0  0  0
   37.8216  -17.6663   36.8571 C   0  0  0  0  0  0  0  0  0  0  0  0
   36.4826  -17.6773   36.9851 N   0  0  0  0  0  0  0  0  0  0  0  0
   36.0778  -18.9348   36.9466 N   0  0  0  0  0  0  0  0  0  0  0  0
   34.7962  -19.3912   37.0497 C   0  0  0  0  0  0  0  0  0  0  0  0
   39.5951  -19.4878   36.5492 C   0  0  0  0  0  0  0  0  0  0  0  0
   40.1831  -19.2871   35.3023 C   0  0  0  0  0  0  0  0  0  0  0  0
   41.4740  -19.7311   35.0289 C   0  0  0  0  0  0  0  0  0  0  0  0
   42.1974  -20.3855   36.0053 C   0  0  0  0  0  0  0  0  0  0  0  0
   41.6258  -20.5891   37.2404 C   0  0  0  0  0  0  0  0  0  0  0  0
   42.3498  -21.2369   38.1619 N   0  0  0  0  0  0  0  0  0  0  0  0
   41.8303  -21.4697   39.3776 C   0  0  0  0  0  0  0  0  0  0  0  0
   40.5591  -21.0424   39.6714 C   0  0  0  0  0  0  0  0  0  0  0  0
   39.7791  -20.3689   38.7447 C   0  0  0  0  0  0  0  0  0  0  0  0
   40.3255  -20.1375   37.5036 C   0  0  0  0  0  0  0  0  0  0  0  0
   31.5733  -22.6606   38.0396 C   0  0  0  0  0  0  0  0  0  0  0  0
   32.8724  -22.2447   37.9615 C   0  0  0  0  0  0  0  0  0  0  0  0
   33.2403  -21.2509   37.0956 C   0  0  0  0  0  0  0  0  0  0  0  0
   32.2807  -20.6679   36.2963 C   0  0  0  0  0  0  0  0  0  0  0  0
   30.9776  -21.0821   36.3729 C   0  0  0  0  0  0  0  0  0  0  0  0
   30.5471  -22.1000   37.2463 C   0  0  0  0  0  0  0  0  0  0  0  0
   31.1179  -23.5735   40.2931 C   0  0  0  0  0  0  0  0  0  0  0  0
   31.1952  -23.6611   38.9063 O   0  0  0  0  0  0  0  0  0  0  0  0
   30.0247  -20.5117   35.5886 O   0  0  0  0  0  0  0  0  0  0  0  0
   30.1211  -19.3014   34.8797 C   0  0  0  0  0  0  0  0  0  0  0  0
   29.3192  -22.5150   37.3416 O   0  0  0  0  0  0  0  0  0  0  0  0
   28.1206  -22.9629   37.4250 C   0  0  0  0  0  0  0  0  0  0  0  0
 26 27  1  0  0  0
 27 20  1  0  0  0
 20 21  2  0  0  0
 21 22  1  0  0  0
 22 23  2  0  0  0
 23 24  1  0  0  0
 24 28  1  0  0  0
 28 29  1  0  0  0
 24 25  2  0  0  0
 25 30  1  0  0  0
 30 31  1  0  0  0
 22  1  1  0  0  0
  1  2  1  0  0  0
  2  3  2  0  0  0
  3  4  1  0  0  0
  4  5  2  0  0  0
  5  6  1  0  0  0
  6  7  2  0  0  0
  7  8  1  0  0  0
  8  9  1  0  0  0
  5 10  1  0  0  0
 10 11  2  0  0  0
 11 12  1  0  0  0
 12 13  2  0  0  0
 13 14  1  0  0  0
 14 15  2  0  0  0
 15 16  1  0  0  0
 16 17  2  0  0  0
 17 18  1  0  0  0
 18 19  2  0  0  0
 25 20  1  0  0  0
  9  1  2  0  0  0
 19 10  1  0  0  0
  8  4  1  0  0  0
 19 14  1  0  0  0
M  END
> <minimizedAffinity>
-4.36937

> <CNNscore>
0.3413872421

> <CNNaffinity>
5.1726965904

> <CNN_VS>
1.7658926249

> <CNNaffinity_variance>
0.1689468771

$$$$
[H]c1nc2c([H])c([H])c([H])c(-c3c([H])nn4c([H])c(-c5c([H])c(OC([H])([H])[H])c(OC([H])([H])[H])c(OC([H])([H])[H])c5[H])c([H])nc34)c2c([H])c1[H]


 31 35  0  0  0  0  0  0  0  0999 V2000
   36.1607  -20.5925   37.1973 C   0  0  0  0  0  0  0  0  0  0  0  0
   36.9631  -19.4900   37.3480 C   0  0  0  0  0  0  0  0  0  0  0  0
   38.2755  -19.5866   37.6613 N   0  0  0  0  0  0  0  0  0  0  0  0
   38.7627  -20.8246   37.8209 C   0  0  0  0  0  0  0  0  0  0  0  0
   40.0637  -21.2644   38.1353 C   0  0  0  0  0  0  0  0  0  0  0  0
   40.0061  -22.6353   38.1681 C   0  0  0  0  0  0  0  0  0  0  0  0
   38.7443  -23.0092   37.8896 N   0  0  0  0  0  0  0  0  0  0  0  0
   38.0286  -21.9167   37.6872 N   0  0  0  0  0  0  0  0  0  0  0  0
   36.7034  -21.8470   37.3708 C   0  0  0  0  0  0  0  0  0  0  0  0
   41.1842  -20.3723   38.3887 C   0  0  0  0  0  0  0  0  0  0  0  0
   41.8952  -19.9217   37.2787 C   0  0  0  0  0  0  0  0  0  0  0  0
   42.9715  -19.0486   37.4118 C   0  0  0  0  0  0  0  0  0  0  0  0
   43.3522  -18.6123   38.6648 C   0  0  0  0  0  0  0  0  0  0  0  0
   42.6566  -19.0516   39.7679 C   0  0  0  0  0  0  0  0  0  0  0  0
   43.0583  -18.6187   40.9697 N   0  0  0  0  0  0  0  0  0  0  0  0
   42.4183  -19.0291   42.0761 C   0  0  0  0  0  0  0  0  0  0  0  0
   41.3546  -19.8906   41.9710 C   0  0  0  0  0  0  0  0  0  0  0  0
   40.9094  -20.3605   40.7455 C   0  0  0  0  0  0  0  0  0  0  0  0
   41.5750  -19.9305   39.6211 C   0  0  0  0  0  0  0  0  0  0  0  0
   32.9220  -19.6400   35.6073 C   0  0  0  0  0  0  0  0  0  0  0  0
   34.2561  -19.6665   35.9007 C   0  0  0  0  0  0  0  0  0  0  0  0
   34.7466  -20.5074   36.8625 C   0  0  0  0  0  0  0  0  0  0  0  0
   33.8757  -21.3347   37.5382 C   0  0  0  0  0  0  0  0  0  0  0  0
   32.5381  -21.3109   37.2459 C   0  0  0  0  0  0  0  0  0  0  0  0
   31.9827  -20.4649   36.2661 C   0  0  0  0  0  0  0  0  0  0  0  0
   33.0675  -17.7001   34.0795 C   0  0  0  0  0  0  0  0  0  0  0  0
   32.4200  -18.7956   34.6429 O   0  0  0  0  0  0  0  0  0  0  0  0
   31.6723  -22.1243   37.9073 O   0  0  0  0  0  0  0  0  0  0  0  0
   31.3731  -23.4658   37.6113 C   0  0  0  0  0  0  0  0  0  0  0  0
   30.7189  -20.4190   35.9665 O   0  0  0  0  0  0  0  0  0  0  0  0
   29.4630  -20.3738   35.7119 C   0  0  0  0  0  0  0  0  0  0  0  0
 26 27  1  0  0  0
 27 20  1  0  0  0
 20 21  2  0  0  0
 21 22  1  0  0  0
 22 23  2  0  0  0
 23 24  1  0  0  0
 24 28  1  0  0  0
 28 29  1  0  0  0
 24 25  2  0  0  0
 25 30  1  0  0  0
 30 31  1  0  0  0
 22  1  1  0  0  0
  1  2  1  0  0  0
  2  3  2  0  0  0
  3  4  1  0  0  0
  4  5  2  0  0  0
  5  6  1  0  0  0
  6  7  2  0  0  0
  7  8  1  0  0  0
  8  9  1  0  0  0
  5 10  1  0  0  0
 10 11  2  0  0  0
 11 12  1  0  0  0
 12 13  2  0  0  0
 13 14  1  0  0  0
 14 15  2  0  0  0
 15 16  1  0  0  0
 16 17  2  0  0  0
 17 18  1  0  0  0
 18 19  2  0  0  0
 25 20  1  0  0  0
  9  1  2  0  0  0
 19 10  1  0  0  0
  8  4  1  0  0  0
 19 14  1  0  0  0
M  END
> <minimizedAffinity>
-5.34916

> <CNNscore>
0.3023362756

> <CNNaffinity>
4.9286637306

> <CNN_VS>
1.4901138544

> <CNNaffinity_variance>
0.3048336506

$$$$
[H]c1nc2c([H])c([H])c([H])c(-c3c([H])nn4c([H])c(-c5c([H])c(OC([H])([H])[H])c(OC([H])([H])[H])c(OC([H])([H])[H])c5[H])c([H])nc34)c2c([H])c1[H]


 31 35  0  0  0  0  0  0  0  0999 V2000
   37.1380  -21.3344   37.8605 C   0  0  0  0  0  0  0  0  0  0  0  0
   36.0332  -20.5260   37.9507 C   0  0  0  0  0  0  0  0  0  0  0  0
   34.7884  -20.9648   37.6544 N   0  0  0  0  0  0  0  0  0  0  0  0
   34.6819  -22.2418   37.2625 C   0  0  0  0  0  0  0  0  0  0  0  0
   33.5504  -22.9972   36.8966 C   0  0  0  0  0  0  0  0  0  0  0  0
   34.0121  -24.2528   36.5900 C   0  0  0  0  0  0  0  0  0  0  0  0
   35.3465  -24.2623   36.7596 N   0  0  0  0  0  0  0  0  0  0  0  0
   35.7173  -23.0584   37.1592 N   0  0  0  0  0  0  0  0  0  0  0  0
   36.9826  -22.6412   37.4529 C   0  0  0  0  0  0  0  0  0  0  0  0
   32.1976  -22.4648   36.8515 C   0  0  0  0  0  0  0  0  0  0  0  0
   31.2942  -22.9580   37.7904 C   0  0  0  0  0  0  0  0  0  0  0  0
   29.9810  -22.4986   37.8448 C   0  0  0  0  0  0  0  0  0  0  0  0
   29.5524  -21.5340   36.9554 C   0  0  0  0  0  0  0  0  0  0  0  0
   30.4368  -21.0404   36.0239 C   0  0  0  0  0  0  0  0  0  0  0  0
   29.9866  -20.1138   35.1684 N   0  0  0  0  0  0  0  0  0  0  0  0
   30.8090  -19.6109   34.2341 C   0  0  0  0  0  0  0  0  0  0  0  0
   32.1081  -20.0483   34.1596 C   0  0  0  0  0  0  0  0  0  0  0  0
   32.6109  -21.0055   35.0269 C   0  0  0  0  0  0  0  0  0  0  0  0
   31.7562  -21.5107   35.9789 C   0  0  0  0  0  0  0  0  0  0  0  0
   40.3687  -20.6876   39.6123 C   0  0  0  0  0  0  0  0  0  0  0  0
   39.0934  -21.1169   39.3754 C   0  0  0  0  0  0  0  0  0  0  0  0
   38.4847  -20.8787   38.1731 C   0  0  0  0  0  0  0  0  0  0  0  0
   39.1752  -20.1965   37.1948 C   0  0  0  0  0  0  0  0  0  0  0  0
   40.4539  -19.7657   37.4289 C   0  0  0  0  0  0  0  0  0  0  0  0
   41.1251  -19.9846   38.6478 C   0  0  0  0  0  0  0  0  0  0  0  0
   40.7467  -20.2569   42.0186 C   0  0  0  0  0  0  0  0  0  0  0  0
   40.9876  -20.9211   40.8196 O   0  0  0  0  0  0  0  0  0  0  0  0
   41.1423  -19.0927   36.4689 O   0  0  0  0  0  0  0  0  0  0  0  0
   40.8274  -19.0058   35.1014 C   0  0  0  0  0  0  0  0  0  0  0  0
   42.3368  -19.5882   38.9002 O   0  0  0  0  0  0  0  0  0  0  0  0
   43.5464  -19.2240   39.1202 C   0  0  0  0  0  0  0  0  0  0  0  0
 26 27  1  0  0  0
 27 20  1  0  0  0
 20 21  2  0  0  0
 21 22  1  0  0  0
 22 23  2  0  0  0
 23 24  1  0  0  0
 24 28  1  0  0  0
 28 29  1  0  0  0
 24 25  2  0  0  0
 25 30  1  0  0  0
 30 31  1  0  0  0
 22  1  1  0  0  0
  1  2  1  0  0  0
  2  3  2  0  0  0
  3  4  1  0  0  0
  4  5  2  0  0  0
  5  6  1  0  0  0
  6  7  2  0  0  0
  7  8  1  0  0  0
  8  9  1  0  0  0
  5 10  1  0  0  0
 10 11  2  0  0  0
 11 12  1  0  0  0
 12 13  2  0  0  0
 13 14  1  0  0  0
 14 15  2  0  0  0
 15 16  1  0  0  0
 16 17  2  0  0  0
 17 18  1  0  0  0
 18 19  2  0  0  0
 25 20  1  0  0  0
  9  1  2  0  0  0
 19 10  1  0  0  0
  8  4  1  0  0  0
 19 14  1  0  0  0
M  END
> <minimizedAffinity>
-4.72077

> <CNNscore>
0.2912768722

> <CNNaffinity>
5.0300927162

> <CNN_VS>
1.4651496410

> <CNNaffinity_variance>
0.1355010420

$$$$
[H]c1nc2c([H])c([H])c([H])c(-c3c([H])nn4c([H])c(-c5c([H])c(OC([H])([H])[H])c(OC([H])([H])[H])c(OC([H])([H])[H])c5[H])c([H])nc34)c2c([H])c1[H]


 31 35  0  0  0  0  0  0  0  0999 V2000
   36.7141  -19.9257   37.2073 C   0  0  0  0  0  0  0  0  0  0  0  0
   37.7979  -19.3181   36.6256 C   0  0  0  0  0  0  0  0  0  0  0  0
   39.0644  -19.5383   37.0469 N   0  0  0  0  0  0  0  0  0  0  0  0
   39.2143  -20.3874   38.0726 C   0  0  0  0  0  0  0  0  0  0  0  0
   40.3771  -20.8313   38.7328 C   0  0  0  0  0  0  0  0  0  0  0  0
   39.9548  -21.7015   39.7066 C   0  0  0  0  0  0  0  0  0  0  0  0
   38.6137  -21.7836   39.6433 N   0  0  0  0  0  0  0  0  0  0  0  0
   38.2007  -20.9957   38.6659 N   0  0  0  0  0  0  0  0  0  0  0  0
   36.9143  -20.7918   38.2599 C   0  0  0  0  0  0  0  0  0  0  0  0
   41.7207  -20.3826   38.4027 C   0  0  0  0  0  0  0  0  0  0  0  0
   42.2218  -19.3044   39.1287 C   0  0  0  0  0  0  0  0  0  0  0  0
   43.5044  -18.8117   38.9041 C   0  0  0  0  0  0  0  0  0  0  0  0
   44.3069  -19.3951   37.9446 C   0  0  0  0  0  0  0  0  0  0  0  0
   43.8215  -20.4606   37.2217 C   0  0  0  0  0  0  0  0  0  0  0  0
   44.6208  -20.9967   36.2906 N   0  0  0  0  0  0  0  0  0  0  0  0
   44.1870  -22.0301   35.5519 C   0  0  0  0  0  0  0  0  0  0  0  0
   42.9258  -22.5334   35.7539 C   0  0  0  0  0  0  0  0  0  0  0  0
   42.0694  -22.0058   36.7075 C   0  0  0  0  0  0  0  0  0  0  0  0
   42.5286  -20.9475   37.4568 C   0  0  0  0  0  0  0  0  0  0  0  0
   33.6222  -18.3511   35.8340 C   0  0  0  0  0  0  0  0  0  0  0  0
   34.9133  -18.5069   36.2533 C   0  0  0  0  0  0  0  0  0  0  0  0
   35.3447  -19.6990   36.7687 C   0  0  0  0  0  0  0  0  0  0  0  0
   34.4582  -20.7501   36.8616 C   0  0  0  0  0  0  0  0  0  0  0  0
   33.1638  -20.5972   36.4416 C   0  0  0  0  0  0  0  0  0  0  0  0
   32.6697  -19.3925   35.9043 C   0  0  0  0  0  0  0  0  0  0  0  0
   33.6843  -15.8893   35.6003 C   0  0  0  0  0  0  0  0  0  0  0  0
   33.1795  -17.1548   35.3164 O   0  0  0  0  0  0  0  0  0  0  0  0
   32.2831  -21.6293   36.5291 O   0  0  0  0  0  0  0  0  0  0  0  0
   32.1404  -22.7022   35.6317 C   0  0  0  0  0  0  0  0  0  0  0  0
   31.4479  -19.2164   35.4978 O   0  0  0  0  0  0  0  0  0  0  0  0
   30.2554  -19.0487   35.0573 C   0  0  0  0  0  0  0  0  0  0  0  0
 26 27  1  0  0  0
 27 20  1  0  0  0
 20 21  2  0  0  0
 21 22  1  0  0  0
 22 23  2  0  0  0
 23 24  1  0  0  0
 24 28  1  0  0  0
 28 29  1  0  0  0
 24 25  2  0  0  0
 25 30  1  0  0  0
 30 31  1  0  0  0
 22  1  1  0  0  0
  1  2  1  0  0  0
  2  3  2  0  0  0
  3  4  1  0  0  0
  4  5  2  0  0  0
  5  6  1  0  0  0
  6  7  2  0  0  0
  7  8  1  0  0  0
  8  9  1  0  0  0
  5 10  1  0  0  0
 10 11  2  0  0  0
 11 12  1  0  0  0
 12 13  2  0  0  0
 13 14  1  0  0  0
 14 15  2  0  0  0
 15 16  1  0  0  0
 16 17  2  0  0  0
 17 18  1  0  0  0
 18 19  2  0  0  0
 25 20  1  0  0  0
  9  1  2  0  0  0
 19 10  1  0  0  0
  8  4  1  0  0  0
 19 14  1  0  0  0
M  END
> <minimizedAffinity>
-4.94359

> <CNNscore>
0.2812575996

> <CNNaffinity>
5.1573991776

> <CNN_VS>
1.4505577087

> <CNNaffinity_variance>
0.0759658590

$$$$
[H]c1nc2c([H])c([H])c([H])c(-c3c([H])nn4c([H])c(-c5c([H])c(OC([H])([H])[H])c(OC([H])([H])[H])c(OC([H])([H])[H])c5[H])c([H])nc34)c2c([H])c1[H]


 31 35  0  0  0  0  0  0  0  0999 V2000
   36.1349  -20.7199   37.1752 C   0  0  0  0  0  0  0  0  0  0  0  0
   36.8906  -19.5890   37.3550 C   0  0  0  0  0  0  0  0  0  0  0  0
   38.2128  -19.6386   37.6367 N   0  0  0  0  0  0  0  0  0  0  0  0
   38.7580  -20.8587   37.7346 C   0  0  0  0  0  0  0  0  0  0  0  0
   40.0841  -21.2514   38.0033 C   0  0  0  0  0  0  0  0  0  0  0  0
   40.0883  -22.6237   37.9803 C   0  0  0  0  0  0  0  0  0  0  0  0
   38.8384  -23.0429   37.7128 N   0  0  0  0  0  0  0  0  0  0  0  0
   38.0704  -21.9767   37.5709 N   0  0  0  0  0  0  0  0  0  0  0  0
   36.7366  -21.9543   37.2852 C   0  0  0  0  0  0  0  0  0  0  0  0
   41.1692  -20.3204   38.2703 C   0  0  0  0  0  0  0  0  0  0  0  0
   41.8403  -19.8005   37.1657 C   0  0  0  0  0  0  0  0  0  0  0  0
   42.8799  -18.8861   37.3124 C   0  0  0  0  0  0  0  0  0  0  0  0
   43.2636  -18.4777   38.5739 C   0  0  0  0  0  0  0  0  0  0  0  0
   42.6073  -18.9853   39.6717 C   0  0  0  0  0  0  0  0  0  0  0  0
   43.0111  -18.5775   40.8815 N   0  0  0  0  0  0  0  0  0  0  0  0
   42.4092  -19.0540   41.9828 C   0  0  0  0  0  0  0  0  0  0  0  0
   41.3822  -19.9572   41.8642 C   0  0  0  0  0  0  0  0  0  0  0  0
   40.9360  -20.4031   40.6301 C   0  0  0  0  0  0  0  0  0  0  0  0
   41.5624  -19.9053   39.5111 C   0  0  0  0  0  0  0  0  0  0  0  0
   32.4962  -21.5363   37.0393 C   0  0  0  0  0  0  0  0  0  0  0  0
   33.8280  -21.6255   37.3312 C   0  0  0  0  0  0  0  0  0  0  0  0
   34.7112  -20.6855   36.8738 C   0  0  0  0  0  0  0  0  0  0  0  0
   34.2415  -19.6389   36.1098 C   0  0  0  0  0  0  0  0  0  0  0  0
   32.9072  -19.5464   35.8162 C   0  0  0  0  0  0  0  0  0  0  0  0
   31.9575  -20.4866   36.2618 C   0  0  0  0  0  0  0  0  0  0  0  0
   31.6893  -23.8572   37.3238 C   0  0  0  0  0  0  0  0  0  0  0  0
   31.6014  -22.4788   37.4935 O   0  0  0  0  0  0  0  0  0  0  0  0
   32.4356  -18.5169   35.0638 O   0  0  0  0  0  0  0  0  0  0  0  0
   33.1731  -17.6909   34.1973 C   0  0  0  0  0  0  0  0  0  0  0  0
   30.6860  -20.4265   35.9997 O   0  0  0  0  0  0  0  0  0  0  0  0
   29.4407  -20.3646   35.7002 C   0  0  0  0  0  0  0  0  0  0  0  0
 26 27  1  0  0  0
 27 20  1  0  0  0
 20 21  2  0  0  0
 21 22  1  0  0  0
 22 23  2  0  0  0
 23 24  1  0  0  0
 24 28  1  0  0  0
 28 29  1  0  0  0
 24 25  2  0  0  0
 25 30  1  0  0  0
 30 31  1  0  0  0
 22  1  1  0  0  0
  1  2  1  0  0  0
  2  3  2  0  0  0
  3  4  1  0  0  0
  4  5  2  0  0  0
  5  6  1  0  0  0
  6  7  2  0  0  0
  7  8  1  0  0  0
  8  9  1  0  0  0
  5 10  1  0  0  0
 10 11  2  0  0  0
 11 12  1  0  0  0
 12 13  2  0  0  0
 13 14  1  0  0  0
 14 15  2  0  0  0
 15 16  1  0  0  0
 16 17  2  0  0  0
 17 18  1  0  0  0
 18 19  2  0  0  0
 25 20  1  0  0  0
  9  1  2  0  0  0
 19 10  1  0  0  0
  8  4  1  0  0  0
 19 14  1  0  0  0
M  END
> <minimizedAffinity>
-5.37150

> <CNNscore>
0.2721862793

> <CNNaffinity>
4.9236321449

> <CNN_VS>
1.3401451111

> <CNNaffinity_variance>
0.3014238477

$$$$
[H]c1nc2c([H])c([H])c([H])c(-c3c([H])nn4c([H])c(-c5c([H])c(OC([H])([H])[H])c(OC([H])([H])[H])c(OC([H])([H])[H])c5[H])c([H])nc34)c2c([H])c1[H]


 31 35  0  0  0  0  0  0  0  0999 V2000
   35.2296  -17.4680   36.8813 C   0  0  0  0  0  0  0  0  0  0  0  0
   36.0312  -18.1520   37.7599 C   0  0  0  0  0  0  0  0  0  0  0  0
   35.9568  -19.4939   37.9141 N   0  0  0  0  0  0  0  0  0  0  0  0
   35.0518  -20.1333   37.1607 C   0  0  0  0  0  0  0  0  0  0  0  0
   34.7330  -21.5029   37.0754 C   0  0  0  0  0  0  0  0  0  0  0  0
   33.7347  -21.6053   36.1391 C   0  0  0  0  0  0  0  0  0  0  0  0
   33.4615  -20.3707   35.6802 N   0  0  0  0  0  0  0  0  0  0  0  0
   34.2568  -19.5174   36.3016 N   0  0  0  0  0  0  0  0  0  0  0  0
   34.3123  -18.1656   36.1263 C   0  0  0  0  0  0  0  0  0  0  0  0
   35.3663  -22.5364   37.8795 C   0  0  0  0  0  0  0  0  0  0  0  0
   34.6126  -23.0773   38.9188 C   0  0  0  0  0  0  0  0  0  0  0  0
   35.1191  -24.0860   39.7339 C   0  0  0  0  0  0  0  0  0  0  0  0
   36.3938  -24.5694   39.5181 C   0  0  0  0  0  0  0  0  0  0  0  0
   37.1468  -24.0419   38.4942 C   0  0  0  0  0  0  0  0  0  0  0  0
   38.3834  -24.5248   38.3185 N   0  0  0  0  0  0  0  0  0  0  0  0
   39.1601  -24.0332   37.3402 C   0  0  0  0  0  0  0  0  0  0  0  0
   38.6836  -23.0377   36.5237 C   0  0  0  0  0  0  0  0  0  0  0  0
   37.4099  -22.5123   36.6741 C   0  0  0  0  0  0  0  0  0  0  0  0
   36.6259  -23.0267   37.6805 C   0  0  0  0  0  0  0  0  0  0  0  0
   36.4624  -13.9533   36.6535 C   0  0  0  0  0  0  0  0  0  0  0  0
   36.4486  -15.3048   36.8535 C   0  0  0  0  0  0  0  0  0  0  0  0
   35.2943  -16.0247   36.7039 C   0  0  0  0  0  0  0  0  0  0  0  0
   34.1360  -15.3689   36.3463 C   0  0  0  0  0  0  0  0  0  0  0  0
   34.1469  -14.0145   36.1445 C   0  0  0  0  0  0  0  0  0  0  0  0
   35.3069  -13.2280   36.2855 C   0  0  0  0  0  0  0  0  0  0  0  0
   38.6328  -13.4515   37.7288 C   0  0  0  0  0  0  0  0  0  0  0  0
   37.6186  -13.2214   36.8040 O   0  0  0  0  0  0  0  0  0  0  0  0
   33.0088  -13.3601   35.7909 O   0  0  0  0  0  0  0  0  0  0  0  0
   32.1129  -12.6927   36.6446 C   0  0  0  0  0  0  0  0  0  0  0  0
   35.3490  -11.9421   36.1014 O   0  0  0  0  0  0  0  0  0  0  0  0
   35.3835  -10.6798   35.8789 C   0  0  0  0  0  0  0  0  0  0  0  0
 26 27  1  0  0  0
 27 20  1  0  0  0
 20 21  2  0  0  0
 21 22  1  0  0  0
 22 23  2  0  0  0
 23 24  1  0  0  0
 24 28  1  0  0  0
 28 29  1  0  0  0
 24 25  2  0  0  0
 25 30  1  0  0  0
 30 31  1  0  0  0
 22  1  1  0  0  0
  1  2  1  0  0  0
  2  3  2  0  0  0
  3  4  1  0  0  0
  4  5  2  0  0  0
  5  6  1  0  0  0
  6  7  2  0  0  0
  7  8  1  0  0  0
  8  9  1  0  0  0
  5 10  1  0  0  0
 10 11  2  0  0  0
 11 12  1  0  0  0
 12 13  2  0  0  0
 13 14  1  0  0  0
 14 15  2  0  0  0
 15 16  1  0  0  0
 16 17  2  0  0  0
 17 18  1  0  0  0
 18 19  2  0  0  0
 25 20  1  0  0  0
  9  1  2  0  0  0
 19 10  1  0  0  0
  8  4  1  0  0  0
 19 14  1  0  0  0
M  END
> <minimizedAffinity>
-4.97363

> <CNNscore>
0.2629537582

> <CNNaffinity>
5.7341909409

> <CNN_VS>
1.5078270435

> <CNNaffinity_variance>
0.0314152502

$$$$
[H]O[C@@]1([H])C([H])([H])[C@@]([H])(O[H])[C@@]([H])(N([H])C(=O)C([H])([H])[H])[C@@]([H])(O[H])[C@]1([H])O[H]


 19 19  0  0  0  0  0  0  0  0999 V2000
   33.3459  -19.2118   34.6635 C   0  0  0  0  0  0  0  0  0  0  0  0
   31.9799  -18.5847   34.7653 C   0  0  0  0  0  0  0  0  0  0  0  0
   31.7852  -18.1138   36.0545 O   0  0  0  0  0  0  0  0  0  0  0  0
   30.9034  -19.5699   34.3824 C   0  0  0  0  0  0  0  0  0  0  0  0
   31.0408  -20.8826   35.0893 C   0  0  0  0  0  0  0  0  0  0  0  0
   30.6482  -20.7191   36.4152 O   0  0  0  0  0  0  0  0  0  0  0  0
   32.4383  -21.4299   35.0864 C   0  0  0  0  0  0  0  0  0  0  0  0
   32.8514  -21.7444   33.8052 O   0  0  0  0  0  0  0  0  0  0  0  0
   33.3891  -20.3674   35.6364 C   0  0  0  0  0  0  0  0  0  0  0  0
   32.9228  -20.0274   36.8971 O   0  0  0  0  0  0  0  0  0  0  0  0
   32.1417  -17.2121   36.1473 H   0  0  0  0  0  0  0  0  0  0  0  0
   30.7534  -21.6138   36.8489 H   0  0  0  0  0  0  0  0  0  0  0  0
   32.2520  -22.4284   33.4554 H   0  0  0  0  0  0  0  0  0  0  0  0
   33.6036  -19.6085   37.4739 H   0  0  0  0  0  0  0  0  0  0  0  0
   36.7350  -17.3875   34.7626 C   0  0  0  0  0  0  0  0  0  0  0  0
   35.6864  -18.3954   34.4822 C   0  0  0  0  0  0  0  0  0  0  0  0
   36.0348  -19.4195   33.8100 O   0  0  0  0  0  0  0  0  0  0  0  0
   34.3649  -18.2406   34.9314 N   0  0  0  0  0  0  0  0  0  0  0  0
   34.1174  -17.3898   35.4783 H   0  0  0  0  0  0  0  0  0  0  0  0
 15 16  1  0  0  0
 16 17  2  0  0  0
 16 18  1  0  0  0
 18  1  1  0  0  0
  1  2  1  0  0  0
  2  3  1  0  0  0
  2  4  1  0  0  0
  4  5  1  0  0  0
  5  6  1  0  0  0
  5  7  1  0  0  0
  7  8  1  0  0  0
  7  9  1  0  0  0
  9 10  1  0  0  0
  9  1  1  0  0  0
 18 19  1  0  0  0
  3 11  1  0  0  0
  6 12  1  0  0  0
  8 13  1  0  0  0
 10 14  1  0  0  0
M  END
> <minimizedAffinity>
-5.06400

> <CNNscore>
0.7693236470

> <CNNaffinity>
3.3228850365

> <CNN_VS>
2.5563740730

> <CNNaffinity_variance>
0.2603926063

$$$$
[H]O[C@@]1([H])C([H])([H])[C@@]([H])(O[H])[C@@]([H])(N([H])C(=O)C([H])([H])[H])[C@@]([H])(O[H])[C@]1([H])O[H]


 19 19  0  0  0  0  0  0  0  0999 V2000
   41.4022  -19.2453   35.4103 C   0  0  0  0  0  0  0  0  0  0  0  0
   41.4911  -20.6632   34.9090 C   0  0  0  0  0  0  0  0  0  0  0  0
   42.6570  -20.8193   34.1755 O   0  0  0  0  0  0  0  0  0  0  0  0
   40.2812  -21.0204   34.0815 C   0  0  0  0  0  0  0  0  0  0  0  0
   39.9808  -20.0034   33.0245 C   0  0  0  0  0  0  0  0  0  0  0  0
   40.9197  -20.1294   32.0039 O   0  0  0  0  0  0  0  0  0  0  0  0
   40.0227  -18.5862   33.5169 C   0  0  0  0  0  0  0  0  0  0  0  0
   39.0246  -18.3471   34.4430 O   0  0  0  0  0  0  0  0  0  0  0  0
   41.3657  -18.3378   34.2024 C   0  0  0  0  0  0  0  0  0  0  0  0
   42.3504  -18.6378   33.2737 O   0  0  0  0  0  0  0  0  0  0  0  0
   43.4029  -21.0416   34.7612 H   0  0  0  0  0  0  0  0  0  0  0  0
   40.6839  -19.4373   31.3220 H   0  0  0  0  0  0  0  0  0  0  0  0
   38.1666  -18.4962   34.0058 H   0  0  0  0  0  0  0  0  0  0  0  0
   43.2229  -18.2235   33.4704 H   0  0  0  0  0  0  0  0  0  0  0  0
   43.5385  -18.6900   38.5649 C   0  0  0  0  0  0  0  0  0  0  0  0
   42.3945  -18.9971   37.6754 C   0  0  0  0  0  0  0  0  0  0  0  0
   41.2945  -19.3094   38.2362 O   0  0  0  0  0  0  0  0  0  0  0  0
   42.5049  -18.9494   36.2762 N   0  0  0  0  0  0  0  0  0  0  0  0
   43.4205  -18.6899   35.8538 H   0  0  0  0  0  0  0  0  0  0  0  0
 15 16  1  0  0  0
 16 17  2  0  0  0
 16 18  1  0  0  0
 18  1  1  0  0  0
  1  2  1  0  0  0
  2  3  1  0  0  0
  2  4  1  0  0  0
  4  5  1  0  0  0
  5  6  1  0  0  0
  5  7  1  0  0  0
  7  8  1  0  0  0
  7  9  1  0  0  0
  9 10  1  0  0  0
  9  1  1  0  0  0
 18 19  1  0  0  0
  3 11  1  0  0  0
  6 12  1  0  0  0
  8 13  1  0  0  0
 10 14  1  0  0  0
M  END
> <minimizedAffinity>
-4.51810

> <CNNscore>
0.6039481163

> <CNNaffinity>
2.6661555767

> <CNN_VS>
1.6102195978

> <CNNaffinity_variance>
0.1289684922

$$$$
[H]O[C@@]1([H])C([H])([H])[C@@]([H])(O[H])[C@@]([H])(N([H])C(=O)C([H])([H])[H])[C@@]([H])(O[H])[C@]1([H])O[H]


 19 19  0  0  0  0  0  0  0  0999 V2000
   31.6161  -20.6323   35.9273 C   0  0  0  0  0  0  0  0  0  0  0  0
   31.7668  -21.0224   34.4800 C   0  0  0  0  0  0  0  0  0  0  0  0
   32.7083  -22.0342   34.3722 O   0  0  0  0  0  0  0  0  0  0  0  0
   32.1546  -19.8325   33.6375 C   0  0  0  0  0  0  0  0  0  0  0  0
   33.3159  -19.0753   34.2031 C   0  0  0  0  0  0  0  0  0  0  0  0
   34.4773  -19.8130   33.9882 O   0  0  0  0  0  0  0  0  0  0  0  0
   33.2060  -18.8072   35.6758 C   0  0  0  0  0  0  0  0  0  0  0  0
   32.1457  -17.9651   35.9547 O   0  0  0  0  0  0  0  0  0  0  0  0
   32.9584  -20.1276   36.4041 C   0  0  0  0  0  0  0  0  0  0  0  0
   34.0030  -20.9737   36.0648 O   0  0  0  0  0  0  0  0  0  0  0  0
   32.2918  -22.9050   34.5027 H   0  0  0  0  0  0  0  0  0  0  0  0
   35.2247  -19.2749   34.3774 H   0  0  0  0  0  0  0  0  0  0  0  0
   32.3056  -17.1191   35.4985 H   0  0  0  0  0  0  0  0  0  0  0  0
   34.1363  -21.7162   36.6992 H   0  0  0  0  0  0  0  0  0  0  0  0
   29.3726  -22.9591   38.0195 C   0  0  0  0  0  0  0  0  0  0  0  0
   29.8474  -21.8056   37.2207 C   0  0  0  0  0  0  0  0  0  0  0  0
   29.0176  -20.8601   37.0217 O   0  0  0  0  0  0  0  0  0  0  0  0
   31.1506  -21.7452   36.7008 N   0  0  0  0  0  0  0  0  0  0  0  0
   31.8011  -22.5373   36.8843 H   0  0  0  0  0  0  0  0  0  0  0  0
 15 16  1  0  0  0
 16 17  2  0  0  0
 16 18  1  0  0  0
 18  1  1  0  0  0
  1  2  1  0  0  0
  2  3  1  0  0  0
  2  4  1  0  0  0
  4  5  1  0  0  0
  5  6  1  0  0  0
  5  7  1  0  0  0
  7  8  1  0  0  0
  7  9  1  0  0  0
  9 10  1  0  0  0
  9  1  1  0  0  0
 18 19  1  0  0  0
  3 11  1  0  0  0
  6 12  1  0  0  0
  8 13  1  0  0  0
 10 14  1  0  0  0
M  END
> <minimizedAffinity>
-4.88915

> <CNNscore>
0.5699104071

> <CNNaffinity>
2.9101130962

> <CNN_VS>
1.6585037708

> <CNNaffinity_variance>
0.1867996752

$$$$
[H]O[C@@]1([H])C([H])([H])[C@@]([H])(O[H])[C@@]([H])(N([H])C(=O)C([H])([H])[H])[C@@]([H])(O[H])[C@]1([H])O[H]


 19 19  0  0  0  0  0  0  0  0999 V2000
   33.4887  -19.9433   35.9544 C   0  0  0  0  0  0  0  0  0  0  0  0
   33.0962  -18.5747   35.4619 C   0  0  0  0  0  0  0  0  0  0  0  0
   32.1018  -18.0598   36.2791 O   0  0  0  0  0  0  0  0  0  0  0  0
   32.6397  -18.6281   34.0250 C   0  0  0  0  0  0  0  0  0  0  0  0
   31.6183  -19.6952   33.7803 C   0  0  0  0  0  0  0  0  0  0  0  0
   30.4035  -19.2832   34.3222 O   0  0  0  0  0  0  0  0  0  0  0  0
   31.9686  -21.0214   34.3894 C   0  0  0  0  0  0  0  0  0  0  0  0
   33.0987  -21.5601   33.8028 O   0  0  0  0  0  0  0  0  0  0  0  0
   32.2627  -20.8234   35.8758 C   0  0  0  0  0  0  0  0  0  0  0  0
   31.1385  -20.2313   36.4306 O   0  0  0  0  0  0  0  0  0  0  0  0
   32.4911  -17.6070   37.0486 H   0  0  0  0  0  0  0  0  0  0  0  0
   29.7525  -20.0192   34.1372 H   0  0  0  0  0  0  0  0  0  0  0  0
   32.9107  -21.6957   32.8564 H   0  0  0  0  0  0  0  0  0  0  0  0
   31.0700  -20.3440   37.4074 H   0  0  0  0  0  0  0  0  0  0  0  0
   35.5936  -20.6122   39.1080 C   0  0  0  0  0  0  0  0  0  0  0  0
   35.0545  -20.6976   37.7311 C   0  0  0  0  0  0  0  0  0  0  0  0
   35.5771  -21.5653   36.9590 O   0  0  0  0  0  0  0  0  0  0  0  0
   34.0147  -19.8657   37.2850 N   0  0  0  0  0  0  0  0  0  0  0  0
   33.6122  -19.1681   37.9450 H   0  0  0  0  0  0  0  0  0  0  0  0
 15 16  1  0  0  0
 16 17  2  0  0  0
 16 18  1  0  0  0
 18  1  1  0  0  0
  1  2  1  0  0  0
  2  3  1  0  0  0
  2  4  1  0  0  0
  4  5  1  0  0  0
  5  6  1  0  0  0
  5  7  1  0  0  0
  7  8  1  0  0  0
  7  9  1  0  0  0
  9 10  1  0  0  0
  9  1  1  0  0  0
 18 19  1  0  0  0
  3 11  1  0  0  0
  6 12  1  0  0  0
  8 13  1  0  0  0
 10 14  1  0  0  0
M  END
> <minimizedAffinity>
-4.14300

> <CNNscore>
0.5654613376

> <CNNaffinity>
2.9391489029

> <CNN_VS>
1.6619750261

> <CNNaffinity_variance>
0.1505781710

$$$$
[H]O[C@@]1([H])C([H])([H])[C@@]([H])(O[H])[C@@]([H])(N([H])C(=O)C([H])([H])[H])[C@@]([H])(O[H])[C@]1([H])O[H]


 19 19  0  0  0  0  0  0  0  0999 V2000
   33.5981  -20.2225   36.2374 C   0  0  0  0  0  0  0  0  0  0  0  0
   32.5344  -21.1906   35.7893 C   0  0  0  0  0  0  0  0  0  0  0  0
   33.0142  -21.9419   34.7277 O   0  0  0  0  0  0  0  0  0  0  0  0
   31.2688  -20.4636   35.4071 C   0  0  0  0  0  0  0  0  0  0  0  0
   31.5151  -19.3275   34.4635 C   0  0  0  0  0  0  0  0  0  0  0  0
   31.7922  -19.8471   33.2016 O   0  0  0  0  0  0  0  0  0  0  0  0
   32.6631  -18.4463   34.8614 C   0  0  0  0  0  0  0  0  0  0  0  0
   32.4020  -17.7876   36.0484 O   0  0  0  0  0  0  0  0  0  0  0  0
   33.9048  -19.3122   35.0707 C   0  0  0  0  0  0  0  0  0  0  0  0
   34.1135  -20.0048   33.8880 O   0  0  0  0  0  0  0  0  0  0  0  0
   33.5029  -22.7197   35.0518 H   0  0  0  0  0  0  0  0  0  0  0  0
   31.9485  -19.0603   32.6049 H   0  0  0  0  0  0  0  0  0  0  0  0
   31.6157  -17.2277   35.9149 H   0  0  0  0  0  0  0  0  0  0  0  0
   35.0348  -20.3380   33.7788 H   0  0  0  0  0  0  0  0  0  0  0  0
   36.4932  -21.4786   38.4429 C   0  0  0  0  0  0  0  0  0  0  0  0
   35.2928  -20.7455   37.9787 C   0  0  0  0  0  0  0  0  0  0  0  0
   34.7578  -19.9336   38.8012 O   0  0  0  0  0  0  0  0  0  0  0  0
   34.7590  -20.9284   36.6927 N   0  0  0  0  0  0  0  0  0  0  0  0
   35.2238  -21.6009   36.0476 H   0  0  0  0  0  0  0  0  0  0  0  0
 15 16  1  0  0  0
 16 17  2  0  0  0
 16 18  1  0  0  0
 18  1  1  0  0  0
  1  2  1  0  0  0
  2  3  1  0  0  0
  2  4  1  0  0  0
  4  5  1  0  0  0
  5  6  1  0  0  0
  5  7  1  0  0  0
  7  8  1  0  0  0
  7  9  1  0  0  0
  9 10  1  0  0  0
  9  1  1  0  0  0
 18 19  1  0  0  0
  3 11  1  0  0  0
  6 12  1  0  0  0
  8 13  1  0  0  0
 10 14  1  0  0  0
M  END
> <minimizedAffinity>
-4.47610

> <CNNscore>
0.5492202640

> <CNNaffinity>
2.9708242416

> <CNN_VS>
1.6316368580

> <CNNaffinity_variance>
0.1187262908

$$$$
[H]O[C@@]1([H])C([H])([H])[C@@]([H])(O[H])[C@@]([H])(N([H])C(=O)C([H])([H])[H])[C@@]([H])(O[H])[C@]1([H])O[H]


 19 19  0  0  0  0  0  0  0  0999 V2000
   41.3576  -21.0137   33.1074 C   0  0  0  0  0  0  0  0  0  0  0  0
   40.4983  -21.2666   34.3187 C   0  0  0  0  0  0  0  0  0  0  0  0
   39.1769  -21.4067   33.9238 O   0  0  0  0  0  0  0  0  0  0  0  0
   40.6450  -20.1539   35.3269 C   0  0  0  0  0  0  0  0  0  0  0  0
   40.4811  -18.7954   34.7191 C   0  0  0  0  0  0  0  0  0  0  0  0
   39.1317  -18.5893   34.4437 O   0  0  0  0  0  0  0  0  0  0  0  0
   41.2464  -18.6058   33.4420 C   0  0  0  0  0  0  0  0  0  0  0  0
   42.6101  -18.6642   33.6609 O   0  0  0  0  0  0  0  0  0  0  0  0
   40.8802  -19.7284   32.4720 C   0  0  0  0  0  0  0  0  0  0  0  0
   39.5037  -19.6858   32.3121 O   0  0  0  0  0  0  0  0  0  0  0  0
   38.9907  -22.3290   33.6717 H   0  0  0  0  0  0  0  0  0  0  0  0
   39.0661  -17.6758   34.0425 H   0  0  0  0  0  0  0  0  0  0  0  0
   42.8477  -17.9437   34.2724 H   0  0  0  0  0  0  0  0  0  0  0  0
   39.1842  -20.1276   31.4909 H   0  0  0  0  0  0  0  0  0  0  0  0
   42.1428  -24.3167   31.2915 C   0  0  0  0  0  0  0  0  0  0  0  0
   42.2203  -23.1730   32.2296 C   0  0  0  0  0  0  0  0  0  0  0  0
   43.1766  -23.1797   33.0708 O   0  0  0  0  0  0  0  0  0  0  0  0
   41.2883  -22.1229   32.2028 N   0  0  0  0  0  0  0  0  0  0  0  0
   40.5199  -22.1518   31.5007 H   0  0  0  0  0  0  0  0  0  0  0  0
 15 16  1  0  0  0
 16 17  2  0  0  0
 16 18  1  0  0  0
 18  1  1  0  0  0
  1  2  1  0  0  0
  2  3  1  0  0  0
  2  4  1  0  0  0
  4  5  1  0  0  0
  5  6  1  0  0  0
  5  7  1  0  0  0
  7  8  1  0  0  0
  7  9  1  0  0  0
  9 10  1  0  0  0
  9  1  1  0  0  0
 18 19  1  0  0  0
  3 11  1  0  0  0
  6 12  1  0  0  0
  8 13  1  0  0  0
 10 14  1  0  0  0
M  END
> <minimizedAffinity>
-4.45431

> <CNNscore>
0.5272856355

> <CNNaffinity>
2.6684391499

> <CNN_VS>
1.4070296288

> <CNNaffinity_variance>
0.0555248149

$$$$
[H]O[C@@]1([H])C([H])([H])[C@@]([H])(O[H])[C@@]([H])(N([H])C(=O)C([H])([H])[H])[C@@]([H])(O[H])[C@]1([H])O[H]


 19 19  0  0  0  0  0  0  0  0999 V2000
   33.4301  -19.9841   35.3650 C   0  0  0  0  0  0  0  0  0  0  0  0
   33.2695  -21.1694   36.2809 C   0  0  0  0  0  0  0  0  0  0  0  0
   33.5114  -22.3352   35.5709 O   0  0  0  0  0  0  0  0  0  0  0  0
   31.8942  -21.1907   36.9006 C   0  0  0  0  0  0  0  0  0  0  0  0
   30.8005  -21.0309   35.8906 C   0  0  0  0  0  0  0  0  0  0  0  0
   30.6758  -22.2193   35.1756 O   0  0  0  0  0  0  0  0  0  0  0  0
   31.0410  -19.9237   34.9061 C   0  0  0  0  0  0  0  0  0  0  0  0
   31.0441  -18.6899   35.5296 O   0  0  0  0  0  0  0  0  0  0  0  0
   32.4105  -20.1236   34.2583 C   0  0  0  0  0  0  0  0  0  0  0  0
   32.4032  -21.3878   33.6892 O   0  0  0  0  0  0  0  0  0  0  0  0
   34.4632  -22.5421   35.5660 H   0  0  0  0  0  0  0  0  0  0  0  0
   29.9386  -22.0714   34.5165 H   0  0  0  0  0  0  0  0  0  0  0  0
   30.1687  -18.5561   35.9360 H   0  0  0  0  0  0  0  0  0  0  0  0
   33.0809  -21.5112   32.9841 H   0  0  0  0  0  0  0  0  0  0  0  0
   36.8156  -18.6360   34.1220 C   0  0  0  0  0  0  0  0  0  0  0  0
   35.4304  -18.6976   34.6431 C   0  0  0  0  0  0  0  0  0  0  0  0
   34.8557  -17.5878   34.8883 O   0  0  0  0  0  0  0  0  0  0  0  0
   34.7699  -19.9176   34.8611 N   0  0  0  0  0  0  0  0  0  0  0  0
   35.2720  -20.8048   34.6488 H   0  0  0  0  0  0  0  0  0  0  0  0
 15 16  1  0  0  0
 16 17  2  0  0  0
 16 18  1  0  0  0
 18  1  1  0  0  0
  1  2  1  0  0  0
  2  3  1  0  0  0
  2  4  1  0  0  0
  4  5  1  0  0  0
  5  6  1  0  0  0
  5  7  1  0  0  0
  7  8  1  0  0  0
  7  9  1  0  0  0
  9 10  1  0  0  0
  9  1  1  0  0  0
 18 19  1  0  0  0
  3 11  1  0  0  0
  6 12  1  0  0  0
  8 13  1  0  0  0
 10 14  1  0  0  0
M  END
> <minimizedAffinity>
-4.89816

> <CNNscore>
0.5210422873

> <CNNaffinity>
3.0304503441

> <CNN_VS>
1.5789927244

> <CNNaffinity_variance>
0.1355779618

$$$$
[H]O[C@@]1([H])C([H])([H])[C@@]([H])(O[H])[C@@]([H])(N([H])C(=O)C([H])([H])[H])[C@@]([H])(O[H])[C@]1([H])O[H]


 19 19  0  0  0  0  0  0  0  0999 V2000
   35.0844  -19.2067   35.0169 C   0  0  0  0  0  0  0  0  0  0  0  0
   34.5936  -17.7841   34.9453 C   0  0  0  0  0  0  0  0  0  0  0  0
   34.3951  -17.3011   36.2294 O   0  0  0  0  0  0  0  0  0  0  0  0
   33.3265  -17.6903   34.1318 C   0  0  0  0  0  0  0  0  0  0  0  0
   32.2913  -18.6863   34.5539 C   0  0  0  0  0  0  0  0  0  0  0  0
   31.7398  -18.2718   35.7634 O   0  0  0  0  0  0  0  0  0  0  0  0
   32.8276  -20.0752   34.7438 C   0  0  0  0  0  0  0  0  0  0  0  0
   33.2744  -20.6082   33.5490 O   0  0  0  0  0  0  0  0  0  0  0  0
   34.0145  -20.0225   35.7049 C   0  0  0  0  0  0  0  0  0  0  0  0
   33.5568  -19.4337   36.8737 O   0  0  0  0  0  0  0  0  0  0  0  0
   35.2230  -16.9354   36.5896 H   0  0  0  0  0  0  0  0  0  0  0  0
   31.0565  -18.9596   36.0079 H   0  0  0  0  0  0  0  0  0  0  0  0
   32.5173  -20.6512   32.9371 H   0  0  0  0  0  0  0  0  0  0  0  0
   34.1140  -19.6295   37.6630 H   0  0  0  0  0  0  0  0  0  0  0  0
   38.8517  -19.5171   35.7483 C   0  0  0  0  0  0  0  0  0  0  0  0
   37.5576  -19.4525   35.0305 C   0  0  0  0  0  0  0  0  0  0  0  0
   37.5938  -19.5704   33.7629 O   0  0  0  0  0  0  0  0  0  0  0  0
   36.3396  -19.2700   35.7053 N   0  0  0  0  0  0  0  0  0  0  0  0
   36.3496  -19.1776   36.7424 H   0  0  0  0  0  0  0  0  0  0  0  0
 15 16  1  0  0  0
 16 17  2  0  0  0
 16 18  1  0  0  0
 18  1  1  0  0  0
  1  2  1  0  0  0
  2  3  1  0  0  0
  2  4  1  0  0  0
  4  5  1  0  0  0
  5  6  1  0  0  0
  5  7  1  0  0  0
  7  8  1  0  0  0
  7  9  1  0  0  0
  9 10  1  0  0  0
  9  1  1  0  0  0
 18 19  1  0  0  0
  3 11  1  0  0  0
  6 12  1  0  0  0
  8 13  1  0  0  0
 10 14  1  0  0  0
M  END
> <minimizedAffinity>
-4.82657

> <CNNscore>
0.5013838410

> <CNNaffinity>
3.1022877693

> <CNN_VS>
1.5554369688

> <CNNaffinity_variance>
0.2844326198

$$$$
[H]O[C@@]1([H])C([H])([H])[C@@]([H])(O[H])[C@@]([H])(N([H])C(=O)C([H])([H])[H])[C@@]([H])(O[H])[C@]1([H])O[H]


 19 19  0  0  0  0  0  0  0  0999 V2000
   33.6699  -18.7164   35.6271 C   0  0  0  0  0  0  0  0  0  0  0  0
   33.7207  -20.0663   36.2941 C   0  0  0  0  0  0  0  0  0  0  0  0
   34.7763  -20.7976   35.7722 O   0  0  0  0  0  0  0  0  0  0  0  0
   32.4159  -20.8036   36.1211 C   0  0  0  0  0  0  0  0  0  0  0  0
   31.9479  -20.8283   34.6991 C   0  0  0  0  0  0  0  0  0  0  0  0
   32.7381  -21.7249   33.9844 O   0  0  0  0  0  0  0  0  0  0  0  0
   32.0254  -19.4963   34.0117 C   0  0  0  0  0  0  0  0  0  0  0  0
   31.1608  -18.5838   34.5869 O   0  0  0  0  0  0  0  0  0  0  0  0
   33.4448  -18.9473   34.1507 C   0  0  0  0  0  0  0  0  0  0  0  0
   34.2971  -19.9028   33.6191 O   0  0  0  0  0  0  0  0  0  0  0  0
   35.6015  -20.5962   36.2490 H   0  0  0  0  0  0  0  0  0  0  0  0
   32.3939  -21.7123   33.0458 H   0  0  0  0  0  0  0  0  0  0  0  0
   30.2540  -18.9274   34.4917 H   0  0  0  0  0  0  0  0  0  0  0  0
   35.1788  -19.5484   33.3570 H   0  0  0  0  0  0  0  0  0  0  0  0
   36.1508  -15.8332   36.2238 C   0  0  0  0  0  0  0  0  0  0  0  0
   34.9011  -16.5830   35.9592 C   0  0  0  0  0  0  0  0  0  0  0  0
   33.8389  -15.8982   35.8019 O   0  0  0  0  0  0  0  0  0  0  0  0
   34.8754  -17.9851   35.8827 N   0  0  0  0  0  0  0  0  0  0  0  0
   35.7640  -18.5111   36.0166 H   0  0  0  0  0  0  0  0  0  0  0  0
 15 16  1  0  0  0
 16 17  2  0  0  0
 16 18  1  0  0  0
 18  1  1  0  0  0
  1  2  1  0  0  0
  2  3  1  0  0  0
  2  4  1  0  0  0
  4  5  1  0  0  0
  5  6  1  0  0  0
  5  7  1  0  0  0
  7  8  1  0  0  0
  7  9  1  0  0  0
  9 10  1  0  0  0
  9  1  1  0  0  0
 18 19  1  0  0  0
  3 11  1  0  0  0
  6 12  1  0  0  0
  8 13  1  0  0  0
 10 14  1  0  0  0
M  END
> <minimizedAffinity>
-5.26909

> <CNNscore>
0.4828162193

> <CNNaffinity>
3.1268243790

> <CNN_VS>
1.5096815825

> <CNNaffinity_variance>
0.1034825295

$$$$
[H]c1nc([H])c(Cl)c(N([H])C(=O)N([H])c2c([H])c(-c3c([H])c([H])c([H])c(-c4c([H])c([H])c([H])c(-c5nnn([H])n5)c4[H])c3[H])nn(C([H])([H])C([H])([H])[H])c2=O)c1Cl


 41 45  0  0  0  0  0  0  0  0999 V2000
   35.9852  -13.5089   36.7406 N   0  0  0  0  0  0  0  0  0  0  0  0
   36.0508  -14.8019   36.6225 N   0  0  0  0  0  0  0  0  0  0  0  0
   34.9876  -15.5978   36.4119 C   0  0  0  0  0  0  0  0  0  0  0  0
   33.7324  -14.9901   36.3144 C   0  0  0  0  0  0  0  0  0  0  0  0
   33.6377  -13.6263   36.4359 C   0  0  0  0  0  0  0  0  0  0  0  0
   34.8074  -12.8909   36.6539 C   0  0  0  0  0  0  0  0  0  0  0  0
   34.7833  -11.6454   36.7727 O   0  0  0  0  0  0  0  0  0  0  0  0
   32.4290  -12.9167   36.3540 N   0  0  0  0  0  0  0  0  0  0  0  0
   31.7191  -12.2412   37.3496 C   0  0  0  0  0  0  0  0  0  0  0  0
   32.1054  -12.1810   38.5320 O   0  0  0  0  0  0  0  0  0  0  0  0
   30.4812  -11.5603   37.0807 N   0  0  0  0  0  0  0  0  0  0  0  0
   31.9670  -12.8792   35.3801 H   0  0  0  0  0  0  0  0  0  0  0  0
   30.1043  -11.5736   36.1094 H   0  0  0  0  0  0  0  0  0  0  0  0
   29.7439  -10.8720   38.0612 C   0  0  0  0  0  0  0  0  0  0  0  0
   29.9837   -9.5230   38.2740 C   0  0  0  0  0  0  0  0  0  0  0  0
   31.2058   -8.7114   37.3083 Cl  0  0  0  0  0  0  0  0  0  0  0  0
   29.2802   -8.8113   39.2290 C   0  0  0  0  0  0  0  0  0  0  0  0
   28.3515   -9.4548   39.9543 N   0  0  0  0  0  0  0  0  0  0  0  0
   28.0735  -10.7715   39.7914 C   0  0  0  0  0  0  0  0  0  0  0  0
   28.7823  -11.4667   38.8366 C   0  0  0  0  0  0  0  0  0  0  0  0
   28.4191  -13.1702   38.6289 Cl  0  0  0  0  0  0  0  0  0  0  0  0
   35.1581  -17.0516   36.2909 C   0  0  0  0  0  0  0  0  0  0  0  0
   34.4117  -17.7193   35.3444 C   0  0  0  0  0  0  0  0  0  0  0  0
   34.4885  -19.0793   35.1416 C   0  0  0  0  0  0  0  0  0  0  0  0
   35.3638  -19.7957   35.9365 C   0  0  0  0  0  0  0  0  0  0  0  0
   36.1346  -19.1792   36.8986 C   0  0  0  0  0  0  0  0  0  0  0  0
   36.0090  -17.7947   37.0536 C   0  0  0  0  0  0  0  0  0  0  0  0
   37.0494  -19.9613   37.7210 C   0  0  0  0  0  0  0  0  0  0  0  0
   36.5603  -20.6863   38.7908 C   0  0  0  0  0  0  0  0  0  0  0  0
   37.4023  -21.4421   39.5941 C   0  0  0  0  0  0  0  0  0  0  0  0
   38.7590  -21.4936   39.3492 C   0  0  0  0  0  0  0  0  0  0  0  0
   39.2621  -20.7696   38.2775 C   0  0  0  0  0  0  0  0  0  0  0  0
   38.4081  -20.0225   37.4883 C   0  0  0  0  0  0  0  0  0  0  0  0
   40.6923  -20.8108   38.0012 C   0  0  0  0  0  0  0  0  0  0  0  0
   41.5063  -21.8697   38.1204 N   0  0  0  0  0  0  0  0  0  0  0  0
   42.7090  -21.4808   37.7753 N   0  0  0  0  0  0  0  0  0  0  0  0
   42.7028  -20.2071   37.4368 N   0  0  0  0  0  0  0  0  0  0  0  0
   41.4569  -19.7932   37.5763 N   0  0  0  0  0  0  0  0  0  0  0  0
   43.5350  -19.6524   37.1215 H   0  0  0  0  0  0  0  0  0  0  0  0
   38.1139  -13.6638   37.7949 C   0  0  0  0  0  0  0  0  0  0  0  0
   37.2188  -12.7483   36.9690 C   0  0  0  0  0  0  0  0  0  0  0  0
 40 41  1  0  0  0
 41  1  1  0  0  0
  1  2  1  0  0  0
  2  3  2  0  0  0
  3  4  1  0  0  0
  4  5  2  0  0  0
  5  8  1  0  0  0
  8  9  1  0  0  0
  9 10  2  0  0  0
  9 11  1  0  0  0
 11 14  1  0  0  0
 14 15  2  0  0  0
 15 16  1  0  0  0
 15 17  1  0  0  0
 17 18  2  0  0  0
 18 19  1  0  0  0
 19 20  2  0  0  0
 20 21  1  0  0  0
  5  6  1  0  0  0
  6  7  2  0  0  0
  3 22  1  0  0  0
 22 23  2  0  0  0
 23 24  1  0  0  0
 24 25  2  0  0  0
 25 26  1  0  0  0
 26 27  2  0  0  0
 26 28  1  0  0  0
 28 29  2  0  0  0
 29 30  1  0  0  0
 30 31  2  0  0  0
 31 32  1  0  0  0
 32 33  2  0  0  0
 32 34  1  0  0  0
 34 35  1  0  0  0
 35 36  2  0  0  0
 36 37  1  0  0  0
 37 38  1  0  0  0
  6  1  1  0  0  0
 27 22  1  0  0  0
 33 28  1  0  0  0
 38 34  2  0  0  0
 20 14  1  0  0  0
  8 12  1  0  0  0
 11 13  1  0  0  0
 37 39  1  0  0  0
M  END
> <minimizedAffinity>
-8.85281

> <CNNscore>
0.4410790801

> <CNNaffinity>
7.0021424294

> <CNN_VS>
3.0884985924

> <CNNaffinity_variance>
0.0606521964

$$$$
[H]c1nc([H])c(Cl)c(N([H])C(=O)N([H])c2c([H])c(-c3c([H])c([H])c([H])c(-c4c([H])c([H])c([H])c(-c5nnn([H])n5)c4[H])c3[H])nn(C([H])([H])C([H])([H])[H])c2=O)c1Cl


 41 45  0  0  0  0  0  0  0  0999 V2000
   36.0896  -13.4762   36.7410 N   0  0  0  0  0  0  0  0  0  0  0  0
   36.1739  -14.7666   36.6071 N   0  0  0  0  0  0  0  0  0  0  0  0
   35.1227  -15.5749   36.3838 C   0  0  0  0  0  0  0  0  0  0  0  0
   33.8593  -14.9839   36.2904 C   0  0  0  0  0  0  0  0  0  0  0  0
   33.7448  -13.6233   36.4284 C   0  0  0  0  0  0  0  0  0  0  0  0
   34.9033  -12.8740   36.6587 C   0  0  0  0  0  0  0  0  0  0  0  0
   34.8611  -11.6305   36.7927 O   0  0  0  0  0  0  0  0  0  0  0  0
   32.5264  -12.9299   36.3520 N   0  0  0  0  0  0  0  0  0  0  0  0
   31.8367  -12.2217   37.3389 C   0  0  0  0  0  0  0  0  0  0  0  0
   32.2549  -12.1094   38.5066 O   0  0  0  0  0  0  0  0  0  0  0  0
   30.5842  -11.5651   37.0777 N   0  0  0  0  0  0  0  0  0  0  0  0
   32.0371  -12.9370   35.3907 H   0  0  0  0  0  0  0  0  0  0  0  0
   30.1806  -11.6218   36.1188 H   0  0  0  0  0  0  0  0  0  0  0  0
   29.8666  -10.8449   38.0500 C   0  0  0  0  0  0  0  0  0  0  0  0
   30.0880   -9.4836   38.1928 C   0  0  0  0  0  0  0  0  0  0  0  0
   31.2625   -8.6966   37.1507 Cl  0  0  0  0  0  0  0  0  0  0  0  0
   29.4028   -8.7406   39.1374 C   0  0  0  0  0  0  0  0  0  0  0  0
   28.5105   -9.3658   39.9219 N   0  0  0  0  0  0  0  0  0  0  0  0
   28.2519  -10.6932   39.8286 C   0  0  0  0  0  0  0  0  0  0  0  0
   28.9420  -11.4196   38.8834 C   0  0  0  0  0  0  0  0  0  0  0  0
   28.6041  -13.1367   38.7659 Cl  0  0  0  0  0  0  0  0  0  0  0  0
   35.3143  -17.0244   36.2454 C   0  0  0  0  0  0  0  0  0  0  0  0
   34.5105  -17.7068   35.3582 C   0  0  0  0  0  0  0  0  0  0  0  0
   34.6002  -19.0646   35.1459 C   0  0  0  0  0  0  0  0  0  0  0  0
   35.5502  -19.7630   35.8677 C   0  0  0  0  0  0  0  0  0  0  0  0
   36.3807  -19.1314   36.7683 C   0  0  0  0  0  0  0  0  0  0  0  0
   36.2380  -17.7502   36.9370 C   0  0  0  0  0  0  0  0  0  0  0  0
   37.3736  -19.8947   37.5143 C   0  0  0  0  0  0  0  0  0  0  0  0
   38.6996  -19.8568   37.1279 C   0  0  0  0  0  0  0  0  0  0  0  0
   39.6711  -20.5704   37.8155 C   0  0  0  0  0  0  0  0  0  0  0  0
   39.3423  -21.3429   38.9102 C   0  0  0  0  0  0  0  0  0  0  0  0
   38.0136  -21.3888   39.3079 C   0  0  0  0  0  0  0  0  0  0  0  0
   37.0598  -20.6713   38.6108 C   0  0  0  0  0  0  0  0  0  0  0  0
   37.6451  -22.1985   40.4622 C   0  0  0  0  0  0  0  0  0  0  0  0
   36.6624  -23.1084   40.5280 N   0  0  0  0  0  0  0  0  0  0  0  0
   36.6685  -23.6054   41.7404 N   0  0  0  0  0  0  0  0  0  0  0  0
   37.6206  -23.0492   42.4623 N   0  0  0  0  0  0  0  0  0  0  0  0
   38.2239  -22.1801   41.6727 N   0  0  0  0  0  0  0  0  0  0  0  0
   37.8381  -23.2693   43.4643 H   0  0  0  0  0  0  0  0  0  0  0  0
   38.1917  -13.5895   37.8524 C   0  0  0  0  0  0  0  0  0  0  0  0
   37.3117  -12.7010   36.9821 C   0  0  0  0  0  0  0  0  0  0  0  0
 40 41  1  0  0  0
 41  1  1  0  0  0
  1  2  1  0  0  0
  2  3  2  0  0  0
  3  4  1  0  0  0
  4  5  2  0  0  0
  5  8  1  0  0  0
  8  9  1  0  0  0
  9 10  2  0  0  0
  9 11  1  0  0  0
 11 14  1  0  0  0
 14 15  2  0  0  0
 15 16  1  0  0  0
 15 17  1  0  0  0
 17 18  2  0  0  0
 18 19  1  0  0  0
 19 20  2  0  0  0
 20 21  1  0  0  0
  5  6  1  0  0  0
  6  7  2  0  0  0
  3 22  1  0  0  0
 22 23  2  0  0  0
 23 24  1  0  0  0
 24 25  2  0  0  0
 25 26  1  0  0  0
 26 27  2  0  0  0
 26 28  1  0  0  0
 28 29  2  0  0  0
 29 30  1  0  0  0
 30 31  2  0  0  0
 31 32  1  0  0  0
 32 33  2  0  0  0
 32 34  1  0  0  0
 34 35  1  0  0  0
 35 36  2  0  0  0
 36 37  1  0  0  0
 37 38  1  0  0  0
  6  1  1  0  0  0
 27 22  1  0  0  0
 33 28  1  0  0  0
 38 34  2  0  0  0
 20 14  1  0  0  0
  8 12  1  0  0  0
 11 13  1  0  0  0
 37 39  1  0  0  0
M  END
> <minimizedAffinity>
-8.68624

> <CNNscore>
0.3778479695

> <CNNaffinity>
7.0162162781

> <CNN_VS>
2.6510629654

> <CNNaffinity_variance>
0.0246775858

$$$$
[H]c1nc([H])c(Cl)c(N([H])C(=O)N([H])c2c([H])c(-c3c([H])c([H])c([H])c(-c4c([H])c([H])c([H])c(-c5nnn([H])n5)c4[H])c3[H])nn(C([H])([H])C([H])([H])[H])c2=O)c1Cl


 41 45  0  0  0  0  0  0  0  0999 V2000
   36.0207  -13.4574   36.7630 N   0  0  0  0  0  0  0  0  0  0  0  0
   36.0982  -14.7517   36.6684 N   0  0  0  0  0  0  0  0  0  0  0  0
   35.0414  -15.5618   36.4815 C   0  0  0  0  0  0  0  0  0  0  0  0
   33.7794  -14.9684   36.3833 C   0  0  0  0  0  0  0  0  0  0  0  0
   33.6721  -13.6036   36.4800 C   0  0  0  0  0  0  0  0  0  0  0  0
   34.8361  -12.8528   36.6745 C   0  0  0  0  0  0  0  0  0  0  0  0
   34.8005  -11.6056   36.7702 O   0  0  0  0  0  0  0  0  0  0  0  0
   32.4557  -12.9076   36.3950 N   0  0  0  0  0  0  0  0  0  0  0  0
   31.7376  -12.2370   37.3879 C   0  0  0  0  0  0  0  0  0  0  0  0
   32.1221  -12.1691   38.5705 O   0  0  0  0  0  0  0  0  0  0  0  0
   30.4925  -11.5706   37.1160 N   0  0  0  0  0  0  0  0  0  0  0  0
   31.9942  -12.8781   35.4206 H   0  0  0  0  0  0  0  0  0  0  0  0
   30.1166  -11.5909   36.1444 H   0  0  0  0  0  0  0  0  0  0  0  0
   29.7468  -10.8876   38.0938 C   0  0  0  0  0  0  0  0  0  0  0  0
   29.9609   -9.5321   38.2924 C   0  0  0  0  0  0  0  0  0  0  0  0
   31.1617   -8.7059   37.3125 Cl  0  0  0  0  0  0  0  0  0  0  0  0
   29.2483   -8.8252   39.2443 C   0  0  0  0  0  0  0  0  0  0  0  0
   28.3363   -9.4799   39.9807 N   0  0  0  0  0  0  0  0  0  0  0  0
   28.0836  -10.8033   39.8318 C   0  0  0  0  0  0  0  0  0  0  0  0
   28.8011  -11.4936   38.8799 C   0  0  0  0  0  0  0  0  0  0  0  0
   28.4706  -13.2058   38.6904 Cl  0  0  0  0  0  0  0  0  0  0  0  0
   35.2255  -17.0158   36.3863 C   0  0  0  0  0  0  0  0  0  0  0  0
   36.4877  -17.5284   36.5938 C   0  0  0  0  0  0  0  0  0  0  0  0
   36.7783  -18.8730   36.5300 C   0  0  0  0  0  0  0  0  0  0  0  0
   35.7394  -19.7386   36.2424 C   0  0  0  0  0  0  0  0  0  0  0  0
   34.4574  -19.2808   36.0260 C   0  0  0  0  0  0  0  0  0  0  0  0
   34.2295  -17.9030   36.1054 C   0  0  0  0  0  0  0  0  0  0  0  0
   33.3822  -20.2181   35.7254 C   0  0  0  0  0  0  0  0  0  0  0  0
   33.1919  -20.6494   34.4266 C   0  0  0  0  0  0  0  0  0  0  0  0
   32.1789  -21.5416   34.1049 C   0  0  0  0  0  0  0  0  0  0  0  0
   31.3270  -22.0277   35.0750 C   0  0  0  0  0  0  0  0  0  0  0  0
   31.5083  -21.6018   36.3833 C   0  0  0  0  0  0  0  0  0  0  0  0
   32.5228  -20.7127   36.6848 C   0  0  0  0  0  0  0  0  0  0  0  0
   30.6195  -22.1036   37.4234 C   0  0  0  0  0  0  0  0  0  0  0  0
   29.4022  -21.6372   37.7377 N   0  0  0  0  0  0  0  0  0  0  0  0
   28.9459  -22.3665   38.7261 N   0  0  0  0  0  0  0  0  0  0  0  0
   29.8249  -23.2888   39.0631 N   0  0  0  0  0  0  0  0  0  0  0  0
   30.8588  -23.1265   38.2583 N   0  0  0  0  0  0  0  0  0  0  0  0
   29.7053  -24.0011   39.8235 H   0  0  0  0  0  0  0  0  0  0  0  0
   38.1794  -13.5914   37.7574 C   0  0  0  0  0  0  0  0  0  0  0  0
   37.2485  -12.6806   36.9668 C   0  0  0  0  0  0  0  0  0  0  0  0
 40 41  1  0  0  0
 41  1  1  0  0  0
  1  2  1  0  0  0
  2  3  2  0  0  0
  3  4  1  0  0  0
  4  5  2  0  0  0
  5  8  1  0  0  0
  8  9  1  0  0  0
  9 10  2  0  0  0
  9 11  1  0  0  0
 11 14  1  0  0  0
 14 15  2  0  0  0
 15 16  1  0  0  0
 15 17  1  0  0  0
 17 18  2  0  0  0
 18 19  1  0  0  0
 19 20  2  0  0  0
 20 21  1  0  0  0
  5  6  1  0  0  0
  6  7  2  0  0  0
  3 22  1  0  0  0
 22 23  2  0  0  0
 23 24  1  0  0  0
 24 25  2  0  0  0
 25 26  1  0  0  0
 26 27  2  0  0  0
 26 28  1  0  0  0
 28 29  2  0  0  0
 29 30  1  0  0  0
 30 31  2  0  0  0
 31 32  1  0  0  0
 32 33  2  0  0  0
 32 34  1  0  0  0
 34 35  1  0  0  0
 35 36  2  0  0  0
 36 37  1  0  0  0
 37 38  1  0  0  0
  6  1  1  0  0  0
 27 22  1  0  0  0
 33 28  1  0  0  0
 38 34  2  0  0  0
 20 14  1  0  0  0
  8 12  1  0  0  0
 11 13  1  0  0  0
 37 39  1  0  0  0
M  END
> <minimizedAffinity>
-9.21314

> <CNNscore>
0.3629676104

> <CNNaffinity>
7.0732078552

> <CNN_VS>
2.5673453808

> <CNNaffinity_variance>
0.1232976317

$$$$
[H]c1nc([H])c(Cl)c(N([H])C(=O)N([H])c2c([H])c(-c3c([H])c([H])c([H])c(-c4c([H])c([H])c([H])c(-c5nnn([H])n5)c4[H])c3[H])nn(C([H])([H])C([H])([H])[H])c2=O)c1Cl


 41 45  0  0  0  0  0  0  0  0999 V2000
   35.9721  -13.3922   36.8200 N   0  0  0  0  0  0  0  0  0  0  0  0
   36.0806  -14.6795   36.6743 N   0  0  0  0  0  0  0  0  0  0  0  0
   35.0466  -15.5037   36.4297 C   0  0  0  0  0  0  0  0  0  0  0  0
   33.7743  -14.9339   36.3265 C   0  0  0  0  0  0  0  0  0  0  0  0
   33.6343  -13.5769   36.4766 C   0  0  0  0  0  0  0  0  0  0  0  0
   34.7765  -12.8100   36.7288 C   0  0  0  0  0  0  0  0  0  0  0  0
   34.7108  -11.5689   36.8747 O   0  0  0  0  0  0  0  0  0  0  0  0
   32.4048  -12.9042   36.3918 N   0  0  0  0  0  0  0  0  0  0  0  0
   31.7071  -12.1893   37.3683 C   0  0  0  0  0  0  0  0  0  0  0  0
   32.1271  -12.0498   38.5325 O   0  0  0  0  0  0  0  0  0  0  0  0
   30.4436  -11.5572   37.0996 N   0  0  0  0  0  0  0  0  0  0  0  0
   31.9129  -12.9360   35.4325 H   0  0  0  0  0  0  0  0  0  0  0  0
   30.0382  -11.6373   36.1431 H   0  0  0  0  0  0  0  0  0  0  0  0
   29.7178  -10.8311   38.0612 C   0  0  0  0  0  0  0  0  0  0  0  0
   28.7262  -11.4676   38.7921 C   0  0  0  0  0  0  0  0  0  0  0  0
   28.4055  -13.1685   38.4936 Cl  0  0  0  0  0  0  0  0  0  0  0  0
   27.9901  -10.7882   39.7461 C   0  0  0  0  0  0  0  0  0  0  0  0
   28.2544   -9.4885   39.9552 N   0  0  0  0  0  0  0  0  0  0  0  0
   29.2109   -8.8134   39.2720 C   0  0  0  0  0  0  0  0  0  0  0  0
   29.9354   -9.5035   38.3253 C   0  0  0  0  0  0  0  0  0  0  0  0
   31.1724   -8.6261   37.4439 Cl  0  0  0  0  0  0  0  0  0  0  0  0
   35.2654  -16.9482   36.2793 C   0  0  0  0  0  0  0  0  0  0  0  0
   36.5572  -17.4229   36.3488 C   0  0  0  0  0  0  0  0  0  0  0  0
   36.8815  -18.7554   36.2221 C   0  0  0  0  0  0  0  0  0  0  0  0
   35.8466  -19.6483   36.0152 C   0  0  0  0  0  0  0  0  0  0  0  0
   34.5360  -19.2287   35.9373 C   0  0  0  0  0  0  0  0  0  0  0  0
   34.2744  -17.8614   36.0743 C   0  0  0  0  0  0  0  0  0  0  0  0
   33.4659  -20.1942   35.7191 C   0  0  0  0  0  0  0  0  0  0  0  0
   33.1425  -20.5802   34.4324 C   0  0  0  0  0  0  0  0  0  0  0  0
   32.1303  -21.4975   34.1883 C   0  0  0  0  0  0  0  0  0  0  0  0
   31.4123  -22.0548   35.2261 C   0  0  0  0  0  0  0  0  0  0  0  0
   31.7280  -21.6750   36.5230 C   0  0  0  0  0  0  0  0  0  0  0  0
   32.7395  -20.7600   36.7468 C   0  0  0  0  0  0  0  0  0  0  0  0
   30.9820  -22.2522   37.6339 C   0  0  0  0  0  0  0  0  0  0  0  0
   31.4890  -22.7835   38.7558 N   0  0  0  0  0  0  0  0  0  0  0  0
   30.4809  -23.1862   39.4895 N   0  0  0  0  0  0  0  0  0  0  0  0
   29.3386  -22.9346   38.8822 N   0  0  0  0  0  0  0  0  0  0  0  0
   29.6482  -22.3575   37.7358 N   0  0  0  0  0  0  0  0  0  0  0  0
   28.3840  -23.1572   39.2549 H   0  0  0  0  0  0  0  0  0  0  0  0
   38.2053  -13.5863   37.6210 C   0  0  0  0  0  0  0  0  0  0  0  0
   37.1772  -12.5984   37.0841 C   0  0  0  0  0  0  0  0  0  0  0  0
 40 41  1  0  0  0
 41  1  1  0  0  0
  1  2  1  0  0  0
  2  3  2  0  0  0
  3  4  1  0  0  0
  4  5  2  0  0  0
  5  8  1  0  0  0
  8  9  1  0  0  0
  9 10  2  0  0  0
  9 11  1  0  0  0
 11 14  1  0  0  0
 14 15  2  0  0  0
 15 16  1  0  0  0
 15 17  1  0  0  0
 17 18  2  0  0  0
 18 19  1  0  0  0
 19 20  2  0  0  0
 20 21  1  0  0  0
  5  6  1  0  0  0
  6  7  2  0  0  0
  3 22  1  0  0  0
 22 23  2  0  0  0
 23 24  1  0  0  0
 24 25  2  0  0  0
 25 26  1  0  0  0
 26 27  2  0  0  0
 26 28  1  0  0  0
 28 29  2  0  0  0
 29 30  1  0  0  0
 30 31  2  0  0  0
 31 32  1  0  0  0
 32 33  2  0  0  0
 32 34  1  0  0  0
 34 35  1  0  0  0
 35 36  2  0  0  0
 36 37  1  0  0  0
 37 38  1  0  0  0
  6  1  1  0  0  0
 27 22  1  0  0  0
 33 28  1  0  0  0
 38 34  2  0  0  0
 20 14  1  0  0  0
  8 12  1  0  0  0
 11 13  1  0  0  0
 37 39  1  0  0  0
M  END
> <minimizedAffinity>
-9.00977

> <CNNscore>
0.3357281089

> <CNNaffinity>
7.0188970566

> <CNN_VS>
2.3564410210

> <CNNaffinity_variance>
0.1533578187

$$$$
[H]c1nc([H])c(Cl)c(N([H])C(=O)N([H])c2c([H])c(-c3c([H])c([H])c([H])c(-c4c([H])c([H])c([H])c(-c5nnn([H])n5)c4[H])c3[H])nn(C([H])([H])C([H])([H])[H])c2=O)c1Cl


 41 45  0  0  0  0  0  0  0  0999 V2000
   30.3695  -20.8555   35.7336 N   0  0  0  0  0  0  0  0  0  0  0  0
   31.2501  -21.7626   36.0369 N   0  0  0  0  0  0  0  0  0  0  0  0
   32.5740  -21.5382   36.1098 C   0  0  0  0  0  0  0  0  0  0  0  0
   33.0275  -20.2435   35.8409 C   0  0  0  0  0  0  0  0  0  0  0  0
   32.1169  -19.2687   35.5183 C   0  0  0  0  0  0  0  0  0  0  0  0
   30.7609  -19.6088   35.4703 C   0  0  0  0  0  0  0  0  0  0  0  0
   29.8851  -18.7628   35.1821 O   0  0  0  0  0  0  0  0  0  0  0  0
   32.4644  -17.9391   35.2310 N   0  0  0  0  0  0  0  0  0  0  0  0
   33.4370  -17.1229   35.8134 C   0  0  0  0  0  0  0  0  0  0  0  0
   34.1777  -17.5088   36.7373 O   0  0  0  0  0  0  0  0  0  0  0  0
   33.6566  -15.7674   35.3861 N   0  0  0  0  0  0  0  0  0  0  0  0
   31.9030  -17.4627   34.4428 H   0  0  0  0  0  0  0  0  0  0  0  0
   33.0685  -15.3847   34.6159 H   0  0  0  0  0  0  0  0  0  0  0  0
   34.6275  -14.9216   35.9526 C   0  0  0  0  0  0  0  0  0  0  0  0
   34.2355  -13.7247   36.5327 C   0  0  0  0  0  0  0  0  0  0  0  0
   32.5314  -13.2997   36.5428 Cl  0  0  0  0  0  0  0  0  0  0  0  0
   35.1598  -12.8657   37.0996 C   0  0  0  0  0  0  0  0  0  0  0  0
   36.4565  -13.2135   37.0788 N   0  0  0  0  0  0  0  0  0  0  0  0
   36.8990  -14.3695   36.5264 C   0  0  0  0  0  0  0  0  0  0  0  0
   35.9667  -15.2146   35.9658 C   0  0  0  0  0  0  0  0  0  0  0  0
   36.5437  -16.7095   35.2525 Cl  0  0  0  0  0  0  0  0  0  0  0  0
   33.4954  -22.6267   36.4611 C   0  0  0  0  0  0  0  0  0  0  0  0
   33.0172  -23.9189   36.4380 C   0  0  0  0  0  0  0  0  0  0  0  0
   33.7887  -25.0168   36.7479 C   0  0  0  0  0  0  0  0  0  0  0  0
   35.1074  -24.7933   37.0977 C   0  0  0  0  0  0  0  0  0  0  0  0
   35.6380  -23.5218   37.1373 C   0  0  0  0  0  0  0  0  0  0  0  0
   34.8008  -22.4498   36.8111 C   0  0  0  0  0  0  0  0  0  0  0  0
   37.0327  -23.3177   37.5091 C   0  0  0  0  0  0  0  0  0  0  0  0
   37.7450  -24.3488   38.0911 C   0  0  0  0  0  0  0  0  0  0  0  0
   39.0741  -24.1896   38.4569 C   0  0  0  0  0  0  0  0  0  0  0  0
   39.7284  -22.9927   38.2504 C   0  0  0  0  0  0  0  0  0  0  0  0
   39.0234  -21.9497   37.6666 C   0  0  0  0  0  0  0  0  0  0  0  0
   37.7001  -22.1268   37.3088 C   0  0  0  0  0  0  0  0  0  0  0  0
   39.6960  -20.6771   37.4393 C   0  0  0  0  0  0  0  0  0  0  0  0
   40.8394  -20.2580   38.0006 N   0  0  0  0  0  0  0  0  0  0  0  0
   41.0939  -19.0630   37.5272 N   0  0  0  0  0  0  0  0  0  0  0  0
   40.1554  -18.6932   36.6791 N   0  0  0  0  0  0  0  0  0  0  0  0
   39.2918  -19.6903   36.6247 N   0  0  0  0  0  0  0  0  0  0  0  0
   40.1217  -17.7821   36.1609 H   0  0  0  0  0  0  0  0  0  0  0  0
   28.9275  -22.7465   35.6255 C   0  0  0  0  0  0  0  0  0  0  0  0
   28.9503  -21.2243   35.6865 C   0  0  0  0  0  0  0  0  0  0  0  0
 40 41  1  0  0  0
 41  1  1  0  0  0
  1  2  1  0  0  0
  2  3  2  0  0  0
  3  4  1  0  0  0
  4  5  2  0  0  0
  5  8  1  0  0  0
  8  9  1  0  0  0
  9 10  2  0  0  0
  9 11  1  0  0  0
 11 14  1  0  0  0
 14 15  2  0  0  0
 15 16  1  0  0  0
 15 17  1  0  0  0
 17 18  2  0  0  0
 18 19  1  0  0  0
 19 20  2  0  0  0
 20 21  1  0  0  0
  5  6  1  0  0  0
  6  7  2  0  0  0
  3 22  1  0  0  0
 22 23  2  0  0  0
 23 24  1  0  0  0
 24 25  2  0  0  0
 25 26  1  0  0  0
 26 27  2  0  0  0
 26 28  1  0  0  0
 28 29  2  0  0  0
 29 30  1  0  0  0
 30 31  2  0  0  0
 31 32  1  0  0  0
 32 33  2  0  0  0
 32 34  1  0  0  0
 34 35  1  0  0  0
 35 36  2  0  0  0
 36 37  1  0  0  0
 37 38  1  0  0  0
  6  1  1  0  0  0
 27 22  1  0  0  0
 33 28  1  0  0  0
 38 34  2  0  0  0
 20 14  1  0  0  0
  8 12  1  0  0  0
 11 13  1  0  0  0
 37 39  1  0  0  0
M  END
> <minimizedAffinity>
-6.57414

> <CNNscore>
0.3084421158

> <CNNaffinity>
6.7380475998

> <CNN_VS>
2.0782976151

> <CNNaffinity_variance>
0.1011929289

$$$$
[H]c1nc([H])c(Cl)c(N([H])C(=O)N([H])c2c([H])c(-c3c([H])c([H])c([H])c(-c4c([H])c([H])c([H])c(-c5nnn([H])n5)c4[H])c3[H])nn(C([H])([H])C([H])([H])[H])c2=O)c1Cl


 41 45  0  0  0  0  0  0  0  0999 V2000
   35.9959  -13.3648   36.7479 N   0  0  0  0  0  0  0  0  0  0  0  0
   36.1161  -14.6548   36.6405 N   0  0  0  0  0  0  0  0  0  0  0  0
   35.0862  -15.4980   36.4497 C   0  0  0  0  0  0  0  0  0  0  0  0
   33.8047  -14.9462   36.3620 C   0  0  0  0  0  0  0  0  0  0  0  0
   33.6523  -13.5868   36.4725 C   0  0  0  0  0  0  0  0  0  0  0  0
   34.7913  -12.7993   36.6698 C   0  0  0  0  0  0  0  0  0  0  0  0
   34.7145  -11.5550   36.7778 O   0  0  0  0  0  0  0  0  0  0  0  0
   32.4130  -12.9310   36.3988 N   0  0  0  0  0  0  0  0  0  0  0  0
   31.7297  -12.1979   37.3719 C   0  0  0  0  0  0  0  0  0  0  0  0
   32.1751  -12.0216   38.5215 O   0  0  0  0  0  0  0  0  0  0  0  0
   30.4526  -11.5881   37.1163 N   0  0  0  0  0  0  0  0  0  0  0  0
   31.8991  -12.9948   35.4527 H   0  0  0  0  0  0  0  0  0  0  0  0
   30.0258  -11.6990   36.1723 H   0  0  0  0  0  0  0  0  0  0  0  0
   29.7406  -10.8445   38.0750 C   0  0  0  0  0  0  0  0  0  0  0  0
   28.7673  -11.4700   38.8392 C   0  0  0  0  0  0  0  0  0  0  0  0
   28.4521  -13.1792   38.5860 Cl  0  0  0  0  0  0  0  0  0  0  0  0
   28.0454  -10.7733   39.7915 C   0  0  0  0  0  0  0  0  0  0  0  0
   28.3051   -9.4676   39.9657 N   0  0  0  0  0  0  0  0  0  0  0  0
   29.2439   -8.8026   39.2488 C   0  0  0  0  0  0  0  0  0  0  0  0
   29.9546   -9.5099   38.3043 C   0  0  0  0  0  0  0  0  0  0  0  0
   31.1687   -8.6455   37.3793 Cl  0  0  0  0  0  0  0  0  0  0  0  0
   35.3184  -16.9441   36.3397 C   0  0  0  0  0  0  0  0  0  0  0  0
   34.3633  -17.7119   35.7093 C   0  0  0  0  0  0  0  0  0  0  0  0
   34.4739  -19.0751   35.5480 C   0  0  0  0  0  0  0  0  0  0  0  0
   35.6068  -19.6883   36.0498 C   0  0  0  0  0  0  0  0  0  0  0  0
   36.5937  -18.9692   36.6891 C   0  0  0  0  0  0  0  0  0  0  0  0
   36.4199  -17.5874   36.8199 C   0  0  0  0  0  0  0  0  0  0  0  0
   37.7775  -19.6439   37.2071 C   0  0  0  0  0  0  0  0  0  0  0  0
   37.6344  -20.7247   38.0559 C   0  0  0  0  0  0  0  0  0  0  0  0
   38.7393  -21.3908   38.5669 C   0  0  0  0  0  0  0  0  0  0  0  0
   40.0200  -20.9934   38.2425 C   0  0  0  0  0  0  0  0  0  0  0  0
   40.1765  -19.9090   37.3907 C   0  0  0  0  0  0  0  0  0  0  0  0
   39.0641  -19.2580   36.8914 C   0  0  0  0  0  0  0  0  0  0  0  0
   41.5208  -19.4733   37.0349 C   0  0  0  0  0  0  0  0  0  0  0  0
   42.0584  -19.4383   35.8070 N   0  0  0  0  0  0  0  0  0  0  0  0
   43.2819  -18.9851   35.9272 N   0  0  0  0  0  0  0  0  0  0  0  0
   43.5559  -18.7254   37.1899 N   0  0  0  0  0  0  0  0  0  0  0  0
   42.4679  -19.0270   37.8743 N   0  0  0  0  0  0  0  0  0  0  0  0
   44.4653  -18.3528   37.5560 H   0  0  0  0  0  0  0  0  0  0  0  0
   38.2071  -13.4748   37.6225 C   0  0  0  0  0  0  0  0  0  0  0  0
   37.1978  -12.5494   36.9546 C   0  0  0  0  0  0  0  0  0  0  0  0
 40 41  1  0  0  0
 41  1  1  0  0  0
  1  2  1  0  0  0
  2  3  2  0  0  0
  3  4  1  0  0  0
  4  5  2  0  0  0
  5  8  1  0  0  0
  8  9  1  0  0  0
  9 10  2  0  0  0
  9 11  1  0  0  0
 11 14  1  0  0  0
 14 15  2  0  0  0
 15 16  1  0  0  0
 15 17  1  0  0  0
 17 18  2  0  0  0
 18 19  1  0  0  0
 19 20  2  0  0  0
 20 21  1  0  0  0
  5  6  1  0  0  0
  6  7  2  0  0  0
  3 22  1  0  0  0
 22 23  2  0  0  0
 23 24  1  0  0  0
 24 25  2  0  0  0
 25 26  1  0  0  0
 26 27  2  0  0  0
 26 28  1  0  0  0
 28 29  2  0  0  0
 29 30  1  0  0  0
 30 31  2  0  0  0
 31 32  1  0  0  0
 32 33  2  0  0  0
 32 34  1  0  0  0
 34 35  1  0  0  0
 35 36  2  0  0  0
 36 37  1  0  0  0
 37 38  1  0  0  0
  6  1  1  0  0  0
 27 22  1  0  0  0
 33 28  1  0  0  0
 38 34  2  0  0  0
 20 14  1  0  0  0
  8 12  1  0  0  0
 11 13  1  0  0  0
 37 39  1  0  0  0
M  END
> <minimizedAffinity>
-8.97654

> <CNNscore>
0.2928431034

> <CNNaffinity>
6.8530158997

> <CNN_VS>
2.0068583488

> <CNNaffinity_variance>
0.0800482258

$$$$
[H]c1nc([H])c(Cl)c(N([H])C(=O)N([H])c2c([H])c(-c3c([H])c([H])c([H])c(-c4c([H])c([H])c([H])c(-c5nnn([H])n5)c4[H])c3[H])nn(C([H])([H])C([H])([H])[H])c2=O)c1Cl


 41 45  0  0  0  0  0  0  0  0999 V2000
   35.9265  -13.4081   36.8206 N   0  0  0  0  0  0  0  0  0  0  0  0
   36.0373  -14.6885   36.6246 N   0  0  0  0  0  0  0  0  0  0  0  0
   35.0053  -15.5037   36.3437 C   0  0  0  0  0  0  0  0  0  0  0  0
   33.7326  -14.9317   36.2581 C   0  0  0  0  0  0  0  0  0  0  0  0
   33.5902  -13.5820   36.4612 C   0  0  0  0  0  0  0  0  0  0  0  0
   34.7304  -12.8242   36.7479 C   0  0  0  0  0  0  0  0  0  0  0  0
   34.6626  -11.5899   36.9424 O   0  0  0  0  0  0  0  0  0  0  0  0
   32.3602  -12.9079   36.3983 N   0  0  0  0  0  0  0  0  0  0  0  0
   31.6464  -12.2533   37.4050 C   0  0  0  0  0  0  0  0  0  0  0  0
   32.0491  -12.1819   38.5813 O   0  0  0  0  0  0  0  0  0  0  0  0
   30.3852  -11.6089   37.1556 N   0  0  0  0  0  0  0  0  0  0  0  0
   31.8823  -12.8840   35.4317 H   0  0  0  0  0  0  0  0  0  0  0  0
   29.9938  -11.6332   36.1903 H   0  0  0  0  0  0  0  0  0  0  0  0
   29.6434  -10.9423   38.1477 C   0  0  0  0  0  0  0  0  0  0  0  0
   29.8639   -9.5922   38.3735 C   0  0  0  0  0  0  0  0  0  0  0  0
   31.0677   -8.7518   37.4094 Cl  0  0  0  0  0  0  0  0  0  0  0  0
   29.1554   -8.9014   39.3401 C   0  0  0  0  0  0  0  0  0  0  0  0
   28.2409   -9.5667   40.0639 N   0  0  0  0  0  0  0  0  0  0  0  0
   27.9820  -10.8856   39.8885 C   0  0  0  0  0  0  0  0  0  0  0  0
   28.6956  -11.5598   38.9222 C   0  0  0  0  0  0  0  0  0  0  0  0
   28.3570  -13.2663   38.6985 Cl  0  0  0  0  0  0  0  0  0  0  0  0
   35.2266  -16.9408   36.1372 C   0  0  0  0  0  0  0  0  0  0  0  0
   34.1310  -17.7416   35.8975 C   0  0  0  0  0  0  0  0  0  0  0  0
   34.2176  -19.1002   35.6896 C   0  0  0  0  0  0  0  0  0  0  0  0
   35.4751  -19.6736   35.7265 C   0  0  0  0  0  0  0  0  0  0  0  0
   36.6051  -18.9204   35.9621 C   0  0  0  0  0  0  0  0  0  0  0  0
   36.4479  -17.5454   36.1654 C   0  0  0  0  0  0  0  0  0  0  0  0
   37.9178  -19.5534   35.9944 C   0  0  0  0  0  0  0  0  0  0  0  0
   38.0473  -20.8387   36.4845 C   0  0  0  0  0  0  0  0  0  0  0  0
   39.2813  -21.4719   36.5292 C   0  0  0  0  0  0  0  0  0  0  0  0
   40.4217  -20.8357   36.0843 C   0  0  0  0  0  0  0  0  0  0  0  0
   40.3043  -19.5444   35.5896 C   0  0  0  0  0  0  0  0  0  0  0  0
   39.0668  -18.9299   35.5529 C   0  0  0  0  0  0  0  0  0  0  0  0
   41.4967  -18.8547   35.1141 C   0  0  0  0  0  0  0  0  0  0  0  0
   42.2922  -18.0391   35.8212 N   0  0  0  0  0  0  0  0  0  0  0  0
   43.2468  -17.6319   35.0214 N   0  0  0  0  0  0  0  0  0  0  0  0
   43.0976  -18.1549   33.8210 N   0  0  0  0  0  0  0  0  0  0  0  0
   42.0164  -18.9104   33.8782 N   0  0  0  0  0  0  0  0  0  0  0  0
   43.7261  -17.9900   32.9978 H   0  0  0  0  0  0  0  0  0  0  0  0
   38.1636  -13.6338   37.6024 C   0  0  0  0  0  0  0  0  0  0  0  0
   37.1296  -12.6239   37.1205 C   0  0  0  0  0  0  0  0  0  0  0  0
 40 41  1  0  0  0
 41  1  1  0  0  0
  1  2  1  0  0  0
  2  3  2  0  0  0
  3  4  1  0  0  0
  4  5  2  0  0  0
  5  8  1  0  0  0
  8  9  1  0  0  0
  9 10  2  0  0  0
  9 11  1  0  0  0
 11 14  1  0  0  0
 14 15  2  0  0  0
 15 16  1  0  0  0
 15 17  1  0  0  0
 17 18  2  0  0  0
 18 19  1  0  0  0
 19 20  2  0  0  0
 20 21  1  0  0  0
  5  6  1  0  0  0
  6  7  2  0  0  0
  3 22  1  0  0  0
 22 23  2  0  0  0
 23 24  1  0  0  0
 24 25  2  0  0  0
 25 26  1  0  0  0
 26 27  2  0  0  0
 26 28  1  0  0  0
 28 29  2  0  0  0
 29 30  1  0  0  0
 30 31  2  0  0  0
 31 32  1  0  0  0
 32 33  2  0  0  0
 32 34  1  0  0  0
 34 35  1  0  0  0
 35 36  2  0  0  0
 36 37  1  0  0  0
 37 38  1  0  0  0
  6  1  1  0  0  0
 27 22  1  0  0  0
 33 28  1  0  0  0
 38 34  2  0  0  0
 20 14  1  0  0  0
  8 12  1  0  0  0
 11 13  1  0  0  0
 37 39  1  0  0  0
M  END
> <minimizedAffinity>
-9.25423

> <CNNscore>
0.2914677262

> <CNNaffinity>
6.7367987633

> <CNN_VS>
1.9635593891

> <CNNaffinity_variance>
0.1595147550

$$$$
[H]c1nc([H])c(Cl)c(N([H])C(=O)N([H])c2c([H])c(-c3c([H])c([H])c([H])c(-c4c([H])c([H])c([H])c(-c5nnn([H])n5)c4[H])c3[H])nn(C([H])([H])C([H])([H])[H])c2=O)c1Cl


 41 45  0  0  0  0  0  0  0  0999 V2000
   35.9565  -13.4575   36.8185 N   0  0  0  0  0  0  0  0  0  0  0  0
   36.0394  -14.7400   36.6225 N   0  0  0  0  0  0  0  0  0  0  0  0
   34.9904  -15.5320   36.3385 C   0  0  0  0  0  0  0  0  0  0  0  0
   33.7310  -14.9319   36.2495 C   0  0  0  0  0  0  0  0  0  0  0  0
   33.6180  -13.5793   36.4524 C   0  0  0  0  0  0  0  0  0  0  0  0
   34.7739  -12.8471   36.7425 C   0  0  0  0  0  0  0  0  0  0  0  0
   34.7329  -11.6117   36.9371 O   0  0  0  0  0  0  0  0  0  0  0  0
   32.4034  -12.8781   36.3862 N   0  0  0  0  0  0  0  0  0  0  0  0
   31.6841  -12.2374   37.3979 C   0  0  0  0  0  0  0  0  0  0  0  0
   32.0657  -12.2077   38.5830 O   0  0  0  0  0  0  0  0  0  0  0  0
   30.4413  -11.5599   37.1438 N   0  0  0  0  0  0  0  0  0  0  0  0
   31.9446  -12.8169   35.4120 H   0  0  0  0  0  0  0  0  0  0  0  0
   30.0679  -11.5487   36.1711 H   0  0  0  0  0  0  0  0  0  0  0  0
   29.6946  -10.9062   38.1408 C   0  0  0  0  0  0  0  0  0  0  0  0
   29.9052   -9.5562   38.3767 C   0  0  0  0  0  0  0  0  0  0  0  0
   31.1030   -8.6999   37.4192 Cl  0  0  0  0  0  0  0  0  0  0  0  0
   29.1915   -8.8779   39.3484 C   0  0  0  0  0  0  0  0  0  0  0  0
   28.2818   -9.5552   40.0669 N   0  0  0  0  0  0  0  0  0  0  0  0
   28.0325  -10.8746   39.8816 C   0  0  0  0  0  0  0  0  0  0  0  0
   28.7511  -11.5364   38.9104 C   0  0  0  0  0  0  0  0  0  0  0  0
   28.4250  -13.2435   38.6738 Cl  0  0  0  0  0  0  0  0  0  0  0  0
   35.1803  -16.9737   36.1324 C   0  0  0  0  0  0  0  0  0  0  0  0
   34.0999  -17.7208   35.7158 C   0  0  0  0  0  0  0  0  0  0  0  0
   34.1602  -19.0780   35.4904 C   0  0  0  0  0  0  0  0  0  0  0  0
   35.3738  -19.7071   35.6974 C   0  0  0  0  0  0  0  0  0  0  0  0
   36.4869  -19.0089   36.1138 C   0  0  0  0  0  0  0  0  0  0  0  0
   36.3582  -17.6321   36.3246 C   0  0  0  0  0  0  0  0  0  0  0  0
   37.7533  -19.6999   36.3228 C   0  0  0  0  0  0  0  0  0  0  0  0
   38.1975  -19.9434   37.6083 C   0  0  0  0  0  0  0  0  0  0  0  0
   39.3976  -20.5991   37.8438 C   0  0  0  0  0  0  0  0  0  0  0  0
   40.1879  -21.0298   36.7982 C   0  0  0  0  0  0  0  0  0  0  0  0
   39.7522  -20.7910   35.5025 C   0  0  0  0  0  0  0  0  0  0  0  0
   38.5540  -20.1365   35.2873 C   0  0  0  0  0  0  0  0  0  0  0  0
   40.5719  -21.2383   34.3836 C   0  0  0  0  0  0  0  0  0  0  0  0
   41.3038  -22.3600   34.3182 N   0  0  0  0  0  0  0  0  0  0  0  0
   41.8846  -22.3814   33.1439 N   0  0  0  0  0  0  0  0  0  0  0  0
   41.5548  -21.3129   32.4464 N   0  0  0  0  0  0  0  0  0  0  0  0
   40.7438  -20.6067   33.2122 N   0  0  0  0  0  0  0  0  0  0  0  0
   41.8834  -21.0886   31.4761 H   0  0  0  0  0  0  0  0  0  0  0  0
   38.1778  -13.7294   37.6300 C   0  0  0  0  0  0  0  0  0  0  0  0
   37.1758  -12.7002   37.1219 C   0  0  0  0  0  0  0  0  0  0  0  0
 40 41  1  0  0  0
 41  1  1  0  0  0
  1  2  1  0  0  0
  2  3  2  0  0  0
  3  4  1  0  0  0
  4  5  2  0  0  0
  5  8  1  0  0  0
  8  9  1  0  0  0
  9 10  2  0  0  0
  9 11  1  0  0  0
 11 14  1  0  0  0
 14 15  2  0  0  0
 15 16  1  0  0  0
 15 17  1  0  0  0
 17 18  2  0  0  0
 18 19  1  0  0  0
 19 20  2  0  0  0
 20 21  1  0  0  0
  5  6  1  0  0  0
  6  7  2  0  0  0
  3 22  1  0  0  0
 22 23  2  0  0  0
 23 24  1  0  0  0
 24 25  2  0  0  0
 25 26  1  0  0  0
 26 27  2  0  0  0
 26 28  1  0  0  0
 28 29  2  0  0  0
 29 30  1  0  0  0
 30 31  2  0  0  0
 31 32  1  0  0  0
 32 33  2  0  0  0
 32 34  1  0  0  0
 34 35  1  0  0  0
 35 36  2  0  0  0
 36 37  1  0  0  0
 37 38  1  0  0  0
  6  1  1  0  0  0
 27 22  1  0  0  0
 33 28  1  0  0  0
 38 34  2  0  0  0
 20 14  1  0  0  0
  8 12  1  0  0  0
 11 13  1  0  0  0
 37 39  1  0  0  0
M  END
> <minimizedAffinity>
-9.07029

> <CNNscore>
0.2851114869

> <CNNaffinity>
6.7188324928

> <CNN_VS>
1.9156162739

> <CNNaffinity_variance>
0.1043498740

$$$$
[H]c1nc([H])c(Cl)c(N([H])C(=O)N([H])c2c([H])c(-c3c([H])c([H])c([H])c(-c4c([H])c([H])c([H])c(-c5nnn([H])n5)c4[H])c3[H])nn(C([H])([H])C([H])([H])[H])c2=O)c1Cl


 41 45  0  0  0  0  0  0  0  0999 V2000
   35.3744  -21.3388   40.2700 N   0  0  0  0  0  0  0  0  0  0  0  0
   36.4798  -21.3092   39.5864 N   0  0  0  0  0  0  0  0  0  0  0  0
   36.5389  -21.2778   38.2433 C   0  0  0  0  0  0  0  0  0  0  0  0
   35.3300  -21.2772   37.5414 C   0  0  0  0  0  0  0  0  0  0  0  0
   34.1497  -21.3083   38.2410 C   0  0  0  0  0  0  0  0  0  0  0  0
   34.2005  -21.3395   39.6385 C   0  0  0  0  0  0  0  0  0  0  0  0
   33.1577  -21.3686   40.3296 O   0  0  0  0  0  0  0  0  0  0  0  0
   32.8827  -21.3105   37.6361 N   0  0  0  0  0  0  0  0  0  0  0  0
   32.0133  -22.3747   37.3847 C   0  0  0  0  0  0  0  0  0  0  0  0
   32.2793  -23.5515   37.6932 O   0  0  0  0  0  0  0  0  0  0  0  0
   30.7380  -22.1885   36.7466 N   0  0  0  0  0  0  0  0  0  0  0  0
   32.5116  -20.3514   37.3110 H   0  0  0  0  0  0  0  0  0  0  0  0
   30.4564  -21.2260   36.4638 H   0  0  0  0  0  0  0  0  0  0  0  0
   29.8415  -23.2393   36.4802 C   0  0  0  0  0  0  0  0  0  0  0  0
   29.9998  -23.9966   35.3295 C   0  0  0  0  0  0  0  0  0  0  0  0
   31.3208  -23.6191   34.2352 Cl  0  0  0  0  0  0  0  0  0  0  0  0
   29.1390  -25.0377   35.0318 C   0  0  0  0  0  0  0  0  0  0  0  0
   28.1370  -25.3059   35.8843 N   0  0  0  0  0  0  0  0  0  0  0  0
   27.9324  -24.6007   37.0238 C   0  0  0  0  0  0  0  0  0  0  0  0
   28.7978  -23.5670   37.3065 C   0  0  0  0  0  0  0  0  0  0  0  0
   28.5295  -22.6575   38.7822 Cl  0  0  0  0  0  0  0  0  0  0  0  0
   37.8363  -21.2453   37.5557 C   0  0  0  0  0  0  0  0  0  0  0  0
   38.0241  -22.0826   36.4775 C   0  0  0  0  0  0  0  0  0  0  0  0
   39.1968  -22.1378   35.7575 C   0  0  0  0  0  0  0  0  0  0  0  0
   40.2276  -21.3043   36.1498 C   0  0  0  0  0  0  0  0  0  0  0  0
   40.0946  -20.4468   37.2208 C   0  0  0  0  0  0  0  0  0  0  0  0
   38.8773  -20.4397   37.9097 C   0  0  0  0  0  0  0  0  0  0  0  0
   41.1992  -19.5790   37.6102 C   0  0  0  0  0  0  0  0  0  0  0  0
   41.7492  -19.6939   38.8725 C   0  0  0  0  0  0  0  0  0  0  0  0
   42.8018  -18.8848   39.2762 C   0  0  0  0  0  0  0  0  0  0  0  0
   43.3341  -17.9368   38.4270 C   0  0  0  0  0  0  0  0  0  0  0  0
   42.7901  -17.8120   37.1564 C   0  0  0  0  0  0  0  0  0  0  0  0
   41.7419  -18.6268   36.7720 C   0  0  0  0  0  0  0  0  0  0  0  0
   43.3381  -16.8170   36.2436 C   0  0  0  0  0  0  0  0  0  0  0  0
   44.1387  -15.7884   36.5584 N   0  0  0  0  0  0  0  0  0  0  0  0
   44.3995  -15.1407   35.4497 N   0  0  0  0  0  0  0  0  0  0  0  0
   43.7958  -15.7135   34.4277 N   0  0  0  0  0  0  0  0  0  0  0  0
   43.1402  -16.7491   34.9181 N   0  0  0  0  0  0  0  0  0  0  0  0
   43.8416  -15.3928   33.4302 H   0  0  0  0  0  0  0  0  0  0  0  0
   35.2663  -19.9252   42.1822 C   0  0  0  0  0  0  0  0  0  0  0  0
   35.4405  -21.3713   41.7352 C   0  0  0  0  0  0  0  0  0  0  0  0
 40 41  1  0  0  0
 41  1  1  0  0  0
  1  2  1  0  0  0
  2  3  2  0  0  0
  3  4  1  0  0  0
  4  5  2  0  0  0
  5  8  1  0  0  0
  8  9  1  0  0  0
  9 10  2  0  0  0
  9 11  1  0  0  0
 11 14  1  0  0  0
 14 15  2  0  0  0
 15 16  1  0  0  0
 15 17  1  0  0  0
 17 18  2  0  0  0
 18 19  1  0  0  0
 19 20  2  0  0  0
 20 21  1  0  0  0
  5  6  1  0  0  0
  6  7  2  0  0  0
  3 22  1  0  0  0
 22 23  2  0  0  0
 23 24  1  0  0  0
 24 25  2  0  0  0
 25 26  1  0  0  0
 26 27  2  0  0  0
 26 28  1  0  0  0
 28 29  2  0  0  0
 29 30  1  0  0  0
 30 31  2  0  0  0
 31 32  1  0  0  0
 32 33  2  0  0  0
 32 34  1  0  0  0
 34 35  1  0  0  0
 35 36  2  0  0  0
 36 37  1  0  0  0
 37 38  1  0  0  0
  6  1  1  0  0  0
 27 22  1  0  0  0
 33 28  1  0  0  0
 38 34  2  0  0  0
 20 14  1  0  0  0
  8 12  1  0  0  0
 11 13  1  0  0  0
 37 39  1  0  0  0
M  END
> <minimizedAffinity>
-6.38931

> <CNNscore>
0.2795569301

> <CNNaffinity>
5.7674951553

> <CNN_VS>
1.6123431921

> <CNNaffinity_variance>
0.1933000237

$$$$
[H]c1c([H])c2c(c([H])c1Cl)OC([H])([H])C(=O)N2C1([H])C([H])([H])C([H])([H])N(C(=O)c2c([H])c(OC([H])([H])[H])c(OC([H])([H])[H])c(OC([H])([H])[H])c2[H])C([H])([H])C1([H])[H]


 32 35  0  0  0  0  0  0  0  0999 V2000
   36.2026  -18.0030   36.5098 C   0  0  0  0  0  0  0  0  0  0  0  0
   35.1019  -18.6968   36.4395 O   0  0  0  0  0  0  0  0  0  0  0  0
   37.3534  -18.7646   36.4104 N   0  0  0  0  0  0  0  0  0  0  0  0
   38.7045  -18.3067   36.5001 C   0  0  0  0  0  0  0  0  0  0  0  0
   39.5572  -19.5500   36.8494 C   0  0  0  0  0  0  0  0  0  0  0  0
   39.6014  -20.3367   35.5375 C   0  0  0  0  0  0  0  0  0  0  0  0
   38.1834  -20.7910   35.2190 C   0  0  0  0  0  0  0  0  0  0  0  0
   37.1848  -20.1984   36.1623 C   0  0  0  0  0  0  0  0  0  0  0  0
   40.4569  -21.4622   35.5365 N   0  0  0  0  0  0  0  0  0  0  0  0
   41.4332  -21.6341   34.4863 C   0  0  0  0  0  0  0  0  0  0  0  0
   41.2001  -21.0623   33.4165 O   0  0  0  0  0  0  0  0  0  0  0  0
   42.6583  -22.4716   34.7147 C   0  0  0  0  0  0  0  0  0  0  0  0
   42.1997  -23.6158   35.4141 O   0  0  0  0  0  0  0  0  0  0  0  0
   41.2781  -23.5115   36.4588 C   0  0  0  0  0  0  0  0  0  0  0  0
   41.2894  -24.5130   37.3931 C   0  0  0  0  0  0  0  0  0  0  0  0
   40.3876  -24.4386   38.4414 C   0  0  0  0  0  0  0  0  0  0  0  0
   40.3999  -25.7288   39.6479 Cl  0  0  0  0  0  0  0  0  0  0  0  0
   39.5001  -23.4019   38.5607 C   0  0  0  0  0  0  0  0  0  0  0  0
   39.5064  -22.3977   37.6018 C   0  0  0  0  0  0  0  0  0  0  0  0
   40.3825  -22.4434   36.5584 C   0  0  0  0  0  0  0  0  0  0  0  0
   36.6114  -14.3803   37.4353 C   0  0  0  0  0  0  0  0  0  0  0  0
   36.9159  -15.7398   37.2980 C   0  0  0  0  0  0  0  0  0  0  0  0
   36.0504  -16.5906   36.6775 C   0  0  0  0  0  0  0  0  0  0  0  0
   34.8385  -16.0394   36.1799 C   0  0  0  0  0  0  0  0  0  0  0  0
   34.5926  -14.7083   36.3401 C   0  0  0  0  0  0  0  0  0  0  0  0
   35.4498  -13.8362   36.9623 C   0  0  0  0  0  0  0  0  0  0  0  0
   38.6944  -13.0648   37.4795 C   0  0  0  0  0  0  0  0  0  0  0  0
   37.5357  -13.5716   38.0784 O   0  0  0  0  0  0  0  0  0  0  0  0
   33.3965  -14.1671   35.8480 O   0  0  0  0  0  0  0  0  0  0  0  0
   32.6184  -13.2914   36.6438 C   0  0  0  0  0  0  0  0  0  0  0  0
   35.1285  -12.4928   37.0877 O   0  0  0  0  0  0  0  0  0  0  0  0
   35.5530  -11.5980   36.0927 C   0  0  0  0  0  0  0  0  0  0  0  0
 27 28  1  0  0  0
 28 21  1  0  0  0
 21 22  2  0  0  0
 22 23  1  0  0  0
 23 24  2  0  0  0
 24 25  1  0  0  0
 25 29  1  0  0  0
 29 30  1  0  0  0
 25 26  2  0  0  0
 26 31  1  0  0  0
 31 32  1  0  0  0
 23  1  1  0  0  0
  1  2  2  0  0  0
  1  3  1  0  0  0
  3  4  1  0  0  0
  4  5  1  0  0  0
  5  6  1  0  0  0
  6  7  1  0  0  0
  7  8  1  0  0  0
  6  9  1  0  0  0
  9 10  1  0  0  0
 10 11  2  0  0  0
 10 12  1  0  0  0
 12 13  1  0  0  0
 13 14  1  0  0  0
 14 15  2  0  0  0
 15 16  1  0  0  0
 16 17  1  0  0  0
 16 18  2  0  0  0
 18 19  1  0  0  0
 19 20  2  0  0  0
 26 21  1  0  0  0
  8  3  1  0  0  0
 20  9  1  0  0  0
 20 14  1  0  0  0
M  END
> <minimizedAffinity>
-5.68701

> <CNNscore>
0.3364072740

> <CNNaffinity>
5.5926370621

> <CNN_VS>
1.8814038038

> <CNNaffinity_variance>
0.0843158215

$$$$
[H]c1c([H])c2c(c([H])c1Cl)OC([H])([H])C(=O)N2C1([H])C([H])([H])C([H])([H])N(C(=O)c2c([H])c(OC([H])([H])[H])c(OC([H])([H])[H])c(OC([H])([H])[H])c2[H])C([H])([H])C1([H])[H]


 32 35  0  0  0  0  0  0  0  0999 V2000
   35.0706  -13.0649   37.0885 C   0  0  0  0  0  0  0  0  0  0  0  0
   36.2316  -12.4812   37.1835 O   0  0  0  0  0  0  0  0  0  0  0  0
   35.1442  -14.4351   36.9106 N   0  0  0  0  0  0  0  0  0  0  0  0
   34.0560  -15.3431   36.7251 C   0  0  0  0  0  0  0  0  0  0  0  0
   34.6588  -16.6074   36.0668 C   0  0  0  0  0  0  0  0  0  0  0  0
   35.4135  -17.2852   37.2125 C   0  0  0  0  0  0  0  0  0  0  0  0
   36.5507  -16.3631   37.6309 C   0  0  0  0  0  0  0  0  0  0  0  0
   36.4779  -15.0401   36.9360 C   0  0  0  0  0  0  0  0  0  0  0  0
   35.9417  -18.5626   36.9159 N   0  0  0  0  0  0  0  0  0  0  0  0
   35.5693  -19.7078   37.7130 C   0  0  0  0  0  0  0  0  0  0  0  0
   35.1775  -19.4774   38.8616 O   0  0  0  0  0  0  0  0  0  0  0  0
   35.6651  -21.0946   37.1455 C   0  0  0  0  0  0  0  0  0  0  0  0
   36.8957  -21.1232   36.4431 O   0  0  0  0  0  0  0  0  0  0  0  0
   37.2981  -20.0587   35.6327 C   0  0  0  0  0  0  0  0  0  0  0  0
   38.1698  -20.3518   34.6178 C   0  0  0  0  0  0  0  0  0  0  0  0
   38.5878  -19.3180   33.7966 C   0  0  0  0  0  0  0  0  0  0  0  0
   39.7121  -19.6930   32.4869 Cl  0  0  0  0  0  0  0  0  0  0  0  0
   38.1546  -18.0308   33.9758 C   0  0  0  0  0  0  0  0  0  0  0  0
   37.2709  -17.7567   35.0113 C   0  0  0  0  0  0  0  0  0  0  0  0
   36.8416  -18.7536   35.8360 C   0  0  0  0  0  0  0  0  0  0  0  0
   31.5925  -11.6500   37.3092 C   0  0  0  0  0  0  0  0  0  0  0  0
   32.6215  -12.5987   37.2810 C   0  0  0  0  0  0  0  0  0  0  0  0
   33.9250  -12.2131   37.1793 C   0  0  0  0  0  0  0  0  0  0  0  0
   34.1885  -10.8184   37.1060 C   0  0  0  0  0  0  0  0  0  0  0  0
   33.1487   -9.9377   37.1383 C   0  0  0  0  0  0  0  0  0  0  0  0
   31.8307  -10.3056   37.2391 C   0  0  0  0  0  0  0  0  0  0  0  0
   29.6810  -12.4996   38.6113 C   0  0  0  0  0  0  0  0  0  0  0  0
   30.2893  -12.1113   37.4124 O   0  0  0  0  0  0  0  0  0  0  0  0
   33.4114   -8.5623   37.0660 O   0  0  0  0  0  0  0  0  0  0  0  0
   34.3181   -8.0494   36.1067 C   0  0  0  0  0  0  0  0  0  0  0  0
   30.8266   -9.3491   37.2651 O   0  0  0  0  0  0  0  0  0  0  0  0
   30.1789   -9.0785   38.4810 C   0  0  0  0  0  0  0  0  0  0  0  0
 27 28  1  0  0  0
 28 21  1  0  0  0
 21 22  2  0  0  0
 22 23  1  0  0  0
 23 24  2  0  0  0
 24 25  1  0  0  0
 25 29  1  0  0  0
 29 30  1  0  0  0
 25 26  2  0  0  0
 26 31  1  0  0  0
 31 32  1  0  0  0
 23  1  1  0  0  0
  1  2  2  0  0  0
  1  3  1  0  0  0
  3  4  1  0  0  0
  4  5  1  0  0  0
  5  6  1  0  0  0
  6  7  1  0  0  0
  7  8  1  0  0  0
  6  9  1  0  0  0
  9 10  1  0  0  0
 10 11  2  0  0  0
 10 12  1  0  0  0
 12 13  1  0  0  0
 13 14  1  0  0  0
 14 15  2  0  0  0
 15 16  1  0  0  0
 16 17  1  0  0  0
 16 18  2  0  0  0
 18 19  1  0  0  0
 19 20  2  0  0  0
 26 21  1  0  0  0
  8  3  1  0  0  0
 20  9  1  0  0  0
 20 14  1  0  0  0
M  END
> <minimizedAffinity>
-6.59180

> <CNNscore>
0.3355873525

> <CNNaffinity>
6.1000509262

> <CNN_VS>
2.0470998287

> <CNNaffinity_variance>
0.1731089652

$$$$
[H]c1c([H])c2c(c([H])c1Cl)OC([H])([H])C(=O)N2C1([H])C([H])([H])C([H])([H])N(C(=O)c2c([H])c(OC([H])([H])[H])c(OC([H])([H])[H])c(OC([H])([H])[H])c2[H])C([H])([H])C1([H])[H]


 32 35  0  0  0  0  0  0  0  0999 V2000
   32.6317  -20.9056   34.2237 C   0  0  0  0  0  0  0  0  0  0  0  0
   33.0950  -21.0285   33.0121 O   0  0  0  0  0  0  0  0  0  0  0  0
   33.2732  -19.9362   34.9742 N   0  0  0  0  0  0  0  0  0  0  0  0
   33.0304  -19.5994   36.3419 C   0  0  0  0  0  0  0  0  0  0  0  0
   34.3033  -18.8723   36.8378 C   0  0  0  0  0  0  0  0  0  0  0  0
   34.2123  -17.4952   36.1768 C   0  0  0  0  0  0  0  0  0  0  0  0
   34.3187  -17.6936   34.6708 C   0  0  0  0  0  0  0  0  0  0  0  0
   34.3024  -19.1426   34.2986 C   0  0  0  0  0  0  0  0  0  0  0  0
   35.1906  -16.5614   36.5886 N   0  0  0  0  0  0  0  0  0  0  0  0
   36.5244  -17.0033   36.9222 C   0  0  0  0  0  0  0  0  0  0  0  0
   36.6454  -18.1835   37.2664 O   0  0  0  0  0  0  0  0  0  0  0  0
   37.6837  -16.0522   36.8450 C   0  0  0  0  0  0  0  0  0  0  0  0
   37.2065  -14.8403   37.4039 O   0  0  0  0  0  0  0  0  0  0  0  0
   35.9366  -14.3456   37.0968 C   0  0  0  0  0  0  0  0  0  0  0  0
   35.7552  -12.9937   37.2207 C   0  0  0  0  0  0  0  0  0  0  0  0
   34.5072  -12.4720   36.9237 C   0  0  0  0  0  0  0  0  0  0  0  0
   34.2704  -10.7288   37.0826 Cl  0  0  0  0  0  0  0  0  0  0  0  0
   33.4688  -13.2669   36.5157 C   0  0  0  0  0  0  0  0  0  0  0  0
   33.6755  -14.6349   36.3971 C   0  0  0  0  0  0  0  0  0  0  0  0
   34.8930  -15.1776   36.6824 C   0  0  0  0  0  0  0  0  0  0  0  0
   29.4722  -22.4190   35.5928 C   0  0  0  0  0  0  0  0  0  0  0  0
   30.4239  -21.4459   35.2658 C   0  0  0  0  0  0  0  0  0  0  0  0
   31.5549  -21.7769   34.5806 C   0  0  0  0  0  0  0  0  0  0  0  0
   31.7206  -23.1406   34.2158 C   0  0  0  0  0  0  0  0  0  0  0  0
   30.7622  -24.0470   34.5591 C   0  0  0  0  0  0  0  0  0  0  0  0
   29.6182  -23.7342   35.2490 C   0  0  0  0  0  0  0  0  0  0  0  0
   28.3372  -21.6778   37.6504 C   0  0  0  0  0  0  0  0  0  0  0  0
   28.3458  -22.0138   36.2920 O   0  0  0  0  0  0  0  0  0  0  0  0
   30.9280  -25.3915   34.1977 O   0  0  0  0  0  0  0  0  0  0  0  0
   30.6138  -25.8319   32.8890 C   0  0  0  0  0  0  0  0  0  0  0  0
   28.6881  -24.7140   35.5629 O   0  0  0  0  0  0  0  0  0  0  0  0
   28.7725  -25.3551   36.8091 C   0  0  0  0  0  0  0  0  0  0  0  0
 27 28  1  0  0  0
 28 21  1  0  0  0
 21 22  2  0  0  0
 22 23  1  0  0  0
 23 24  2  0  0  0
 24 25  1  0  0  0
 25 29  1  0  0  0
 29 30  1  0  0  0
 25 26  2  0  0  0
 26 31  1  0  0  0
 31 32  1  0  0  0
 23  1  1  0  0  0
  1  2  2  0  0  0
  1  3  1  0  0  0
  3  4  1  0  0  0
  4  5  1  0  0  0
  5  6  1  0  0  0
  6  7  1  0  0  0
  7  8  1  0  0  0
  6  9  1  0  0  0
  9 10  1  0  0  0
 10 11  2  0  0  0
 10 12  1  0  0  0
 12 13  1  0  0  0
 13 14  1  0  0  0
 14 15  2  0  0  0
 15 16  1  0  0  0
 16 17  1  0  0  0
 16 18  2  0  0  0
 18 19  1  0  0  0
 19 20  2  0  0  0
 26 21  1  0  0  0
  8  3  1  0  0  0
 20  9  1  0  0  0
 20 14  1  0  0  0
M  END
> <minimizedAffinity>
-5.94155

> <CNNscore>
0.2969331741

> <CNNaffinity>
5.3747534752

> <CNN_VS>
1.5959426165

> <CNNaffinity_variance>
0.0482606813

$$$$
[H]c1c([H])c2c(c([H])c1Cl)OC([H])([H])C(=O)N2C1([H])C([H])([H])C([H])([H])N(C(=O)c2c([H])c(OC([H])([H])[H])c(OC([H])([H])[H])c(OC([H])([H])[H])c2[H])C([H])([H])C1([H])[H]


 32 35  0  0  0  0  0  0  0  0999 V2000
   35.0491  -17.2368   35.7057 C   0  0  0  0  0  0  0  0  0  0  0  0
   34.7165  -17.5853   34.4951 O   0  0  0  0  0  0  0  0  0  0  0  0
   35.4770  -18.2894   36.4952 N   0  0  0  0  0  0  0  0  0  0  0  0
   35.8601  -18.2387   37.8714 C   0  0  0  0  0  0  0  0  0  0  0  0
   35.7404  -19.6868   38.4042 C   0  0  0  0  0  0  0  0  0  0  0  0
   36.9484  -20.3977   37.7901 C   0  0  0  0  0  0  0  0  0  0  0  0
   36.7594  -20.4161   36.2793 C   0  0  0  0  0  0  0  0  0  0  0  0
   35.5758  -19.6042   35.8573 C   0  0  0  0  0  0  0  0  0  0  0  0
   37.1665  -21.7190   38.2432 N   0  0  0  0  0  0  0  0  0  0  0  0
   36.2492  -22.7740   37.8809 C   0  0  0  0  0  0  0  0  0  0  0  0
   35.1017  -22.4291   37.5807 O   0  0  0  0  0  0  0  0  0  0  0  0
   36.6982  -24.2067   37.8796 C   0  0  0  0  0  0  0  0  0  0  0  0
   37.4757  -24.3524   39.0555 O   0  0  0  0  0  0  0  0  0  0  0  0
   38.4011  -23.3803   39.4433 C   0  0  0  0  0  0  0  0  0  0  0  0
   39.4422  -23.7988   40.2288 C   0  0  0  0  0  0  0  0  0  0  0  0
   40.3767  -22.8589   40.6302 C   0  0  0  0  0  0  0  0  0  0  0  0
   41.7204  -23.3957   41.6433 Cl  0  0  0  0  0  0  0  0  0  0  0  0
   40.2825  -21.5422   40.2639 C   0  0  0  0  0  0  0  0  0  0  0  0
   39.2185  -21.1404   39.4672 C   0  0  0  0  0  0  0  0  0  0  0  0
   38.2830  -22.0426   39.0564 C   0  0  0  0  0  0  0  0  0  0  0  0
   33.8005  -13.7425   36.3213 C   0  0  0  0  0  0  0  0  0  0  0  0
   33.7712  -15.1142   36.0432 C   0  0  0  0  0  0  0  0  0  0  0  0
   34.9199  -15.8478   36.0221 C   0  0  0  0  0  0  0  0  0  0  0  0
   36.1355  -15.1635   36.2946 C   0  0  0  0  0  0  0  0  0  0  0  0
   36.1068  -13.8269   36.5600 C   0  0  0  0  0  0  0  0  0  0  0  0
   34.9620  -13.0711   36.5848 C   0  0  0  0  0  0  0  0  0  0  0  0
   31.9830  -12.5418   37.4728 C   0  0  0  0  0  0  0  0  0  0  0  0
   32.5958  -13.0567   36.3250 O   0  0  0  0  0  0  0  0  0  0  0  0
   37.3074  -13.1544   36.8287 O   0  0  0  0  0  0  0  0  0  0  0  0
   38.1778  -13.6096   37.8488 C   0  0  0  0  0  0  0  0  0  0  0  0
   35.0136  -11.7131   36.8625 O   0  0  0  0  0  0  0  0  0  0  0  0
   35.3877  -10.8256   35.8411 C   0  0  0  0  0  0  0  0  0  0  0  0
 27 28  1  0  0  0
 28 21  1  0  0  0
 21 22  2  0  0  0
 22 23  1  0  0  0
 23 24  2  0  0  0
 24 25  1  0  0  0
 25 29  1  0  0  0
 29 30  1  0  0  0
 25 26  2  0  0  0
 26 31  1  0  0  0
 31 32  1  0  0  0
 23  1  1  0  0  0
  1  2  2  0  0  0
  1  3  1  0  0  0
  3  4  1  0  0  0
  4  5  1  0  0  0
  5  6  1  0  0  0
  6  7  1  0  0  0
  7  8  1  0  0  0
  6  9  1  0  0  0
  9 10  1  0  0  0
 10 11  2  0  0  0
 10 12  1  0  0  0
 12 13  1  0  0  0
 13 14  1  0  0  0
 14 15  2  0  0  0
 15 16  1  0  0  0
 16 17  1  0  0  0
 16 18  2  0  0  0
 18 19  1  0  0  0
 19 20  2  0  0  0
 26 21  1  0  0  0
  8  3  1  0  0  0
 20  9  1  0  0  0
 20 14  1  0  0  0
M  END
> <minimizedAffinity>
-6.01304

> <CNNscore>
0.2908313870

> <CNNaffinity>
5.4040017128

> <CNN_VS>
1.5716533661

> <CNNaffinity_variance>
0.0739245787

$$$$
[H]c1c([H])c2c(c([H])c1Cl)OC([H])([H])C(=O)N2C1([H])C([H])([H])C([H])([H])N(C(=O)c2c([H])c(OC([H])([H])[H])c(OC([H])([H])[H])c(OC([H])([H])[H])c2[H])C([H])([H])C1([H])[H]


 32 35  0  0  0  0  0  0  0  0999 V2000
   35.0041  -22.9553   37.1810 C   0  0  0  0  0  0  0  0  0  0  0  0
   35.1577  -24.2102   36.8659 O   0  0  0  0  0  0  0  0  0  0  0  0
   36.1453  -22.3606   37.6894 N   0  0  0  0  0  0  0  0  0  0  0  0
   36.2829  -21.0207   38.1679 C   0  0  0  0  0  0  0  0  0  0  0  0
   37.5342  -21.0162   39.0786 C   0  0  0  0  0  0  0  0  0  0  0  0
   38.6996  -21.0950   38.0900 C   0  0  0  0  0  0  0  0  0  0  0  0
   38.6176  -22.4394   37.3797 C   0  0  0  0  0  0  0  0  0  0  0  0
   37.3619  -23.1754   37.7262 C   0  0  0  0  0  0  0  0  0  0  0  0
   39.9857  -20.9528   38.6596 N   0  0  0  0  0  0  0  0  0  0  0  0
   40.3824  -21.7765   39.7775 C   0  0  0  0  0  0  0  0  0  0  0  0
   39.4723  -22.2422   40.4708 O   0  0  0  0  0  0  0  0  0  0  0  0
   41.8351  -22.0341   40.0563 C   0  0  0  0  0  0  0  0  0  0  0  0
   42.4758  -20.7840   39.8685 O   0  0  0  0  0  0  0  0  0  0  0  0
   42.1566  -19.9554   38.7899 C   0  0  0  0  0  0  0  0  0  0  0  0
   43.1249  -19.0782   38.3788 C   0  0  0  0  0  0  0  0  0  0  0  0
   42.8392  -18.2429   37.3119 C   0  0  0  0  0  0  0  0  0  0  0  0
   44.0861  -17.1106   36.7795 Cl  0  0  0  0  0  0  0  0  0  0  0  0
   41.6291  -18.2756   36.6707 C   0  0  0  0  0  0  0  0  0  0  0  0
   40.6622  -19.1729   37.1046 C   0  0  0  0  0  0  0  0  0  0  0  0
   40.9142  -20.0079   38.1522 C   0  0  0  0  0  0  0  0  0  0  0  0
   32.0533  -20.9632   35.9676 C   0  0  0  0  0  0  0  0  0  0  0  0
   33.3626  -21.4533   36.0400 C   0  0  0  0  0  0  0  0  0  0  0  0
   33.7043  -22.4015   36.9578 C   0  0  0  0  0  0  0  0  0  0  0  0
   32.6803  -22.8662   37.8271 C   0  0  0  0  0  0  0  0  0  0  0  0
   31.4218  -22.3553   37.7129 C   0  0  0  0  0  0  0  0  0  0  0  0
   31.0584  -21.4004   36.7972 C   0  0  0  0  0  0  0  0  0  0  0  0
   32.3792  -19.9375   33.7511 C   0  0  0  0  0  0  0  0  0  0  0  0
   31.7750  -19.9985   35.0117 O   0  0  0  0  0  0  0  0  0  0  0  0
   30.4135  -22.8156   38.5716 O   0  0  0  0  0  0  0  0  0  0  0  0
   29.8566  -24.1070   38.4052 C   0  0  0  0  0  0  0  0  0  0  0  0
   29.7553  -20.9285   36.7426 O   0  0  0  0  0  0  0  0  0  0  0  0
   28.8625  -21.5060   35.8259 C   0  0  0  0  0  0  0  0  0  0  0  0
 27 28  1  0  0  0
 28 21  1  0  0  0
 21 22  2  0  0  0
 22 23  1  0  0  0
 23 24  2  0  0  0
 24 25  1  0  0  0
 25 29  1  0  0  0
 29 30  1  0  0  0
 25 26  2  0  0  0
 26 31  1  0  0  0
 31 32  1  0  0  0
 23  1  1  0  0  0
  1  2  2  0  0  0
  1  3  1  0  0  0
  3  4  1  0  0  0
  4  5  1  0  0  0
  5  6  1  0  0  0
  6  7  1  0  0  0
  7  8  1  0  0  0
  6  9  1  0  0  0
  9 10  1  0  0  0
 10 11  2  0  0  0
 10 12  1  0  0  0
 12 13  1  0  0  0
 13 14  1  0  0  0
 14 15  2  0  0  0
 15 16  1  0  0  0
 16 17  1  0  0  0
 16 18  2  0  0  0
 18 19  1  0  0  0
 19 20  2  0  0  0
 26 21  1  0  0  0
  8  3  1  0  0  0
 20  9  1  0  0  0
 20 14  1  0  0  0
M  END
> <minimizedAffinity>
-4.78102

> <CNNscore>
0.2902512848

> <CNNaffinity>
4.6362056732

> <CNN_VS>
1.3456646204

> <CNNaffinity_variance>
0.3236478865

$$$$
[H]c1c([H])c2c(c([H])c1Cl)OC([H])([H])C(=O)N2C1([H])C([H])([H])C([H])([H])N(C(=O)c2c([H])c(OC([H])([H])[H])c(OC([H])([H])[H])c(OC([H])([H])[H])c2[H])C([H])([H])C1([H])[H]


 32 35  0  0  0  0  0  0  0  0999 V2000
   34.8154  -16.8481   35.7879 C   0  0  0  0  0  0  0  0  0  0  0  0
   33.6949  -17.2564   35.2630 O   0  0  0  0  0  0  0  0  0  0  0  0
   35.7536  -17.8507   35.9580 N   0  0  0  0  0  0  0  0  0  0  0  0
   37.0501  -17.7314   36.5479 C   0  0  0  0  0  0  0  0  0  0  0  0
   37.4633  -19.1619   36.9700 C   0  0  0  0  0  0  0  0  0  0  0  0
   37.8069  -19.8437   35.6438 C   0  0  0  0  0  0  0  0  0  0  0  0
   36.5298  -19.9278   34.8188 C   0  0  0  0  0  0  0  0  0  0  0  0
   35.4026  -19.1835   35.4621 C   0  0  0  0  0  0  0  0  0  0  0  0
   38.3683  -21.1363   35.7566 N   0  0  0  0  0  0  0  0  0  0  0  0
   37.8157  -22.0916   36.6881 C   0  0  0  0  0  0  0  0  0  0  0  0
   37.1880  -21.6292   37.6463 O   0  0  0  0  0  0  0  0  0  0  0  0
   38.0120  -23.5648   36.4748 C   0  0  0  0  0  0  0  0  0  0  0  0
   39.3649  -23.7044   36.0763 O   0  0  0  0  0  0  0  0  0  0  0  0
   39.9484  -22.8296   35.1565 C   0  0  0  0  0  0  0  0  0  0  0  0
   41.0149  -23.3077   34.4422 C   0  0  0  0  0  0  0  0  0  0  0  0
   41.6156  -22.4647   33.5222 C   0  0  0  0  0  0  0  0  0  0  0  0
   42.9911  -23.0785   32.5996 Cl  0  0  0  0  0  0  0  0  0  0  0  0
   41.1725  -21.1850   33.3158 C   0  0  0  0  0  0  0  0  0  0  0  0
   40.0897  -20.7215   34.0512 C   0  0  0  0  0  0  0  0  0  0  0  0
   39.4777  -21.5280   34.9640 C   0  0  0  0  0  0  0  0  0  0  0  0
   35.9360  -13.3979   36.7818 C   0  0  0  0  0  0  0  0  0  0  0  0
   36.0137  -14.7553   36.4485 C   0  0  0  0  0  0  0  0  0  0  0  0
   34.8965  -15.4548   36.1013 C   0  0  0  0  0  0  0  0  0  0  0  0
   33.6626  -14.7495   36.0914 C   0  0  0  0  0  0  0  0  0  0  0  0
   33.6439  -13.4277   36.4239 C   0  0  0  0  0  0  0  0  0  0  0  0
   34.7564  -12.7067   36.7771 C   0  0  0  0  0  0  0  0  0  0  0  0
   38.2775  -13.3945   37.5491 C   0  0  0  0  0  0  0  0  0  0  0  0
   37.1107  -12.7476   37.1268 O   0  0  0  0  0  0  0  0  0  0  0  0
   32.4253  -12.7343   36.4131 O   0  0  0  0  0  0  0  0  0  0  0  0
   31.7585  -12.4263   37.6238 C   0  0  0  0  0  0  0  0  0  0  0  0
   34.6570  -11.3624   37.1038 O   0  0  0  0  0  0  0  0  0  0  0  0
   35.0615  -10.4035   36.1615 C   0  0  0  0  0  0  0  0  0  0  0  0
 27 28  1  0  0  0
 28 21  1  0  0  0
 21 22  2  0  0  0
 22 23  1  0  0  0
 23 24  2  0  0  0
 24 25  1  0  0  0
 25 29  1  0  0  0
 29 30  1  0  0  0
 25 26  2  0  0  0
 26 31  1  0  0  0
 31 32  1  0  0  0
 23  1  1  0  0  0
  1  2  2  0  0  0
  1  3  1  0  0  0
  3  4  1  0  0  0
  4  5  1  0  0  0
  5  6  1  0  0  0
  6  7  1  0  0  0
  7  8  1  0  0  0
  6  9  1  0  0  0
  9 10  1  0  0  0
 10 11  2  0  0  0
 10 12  1  0  0  0
 12 13  1  0  0  0
 13 14  1  0  0  0
 14 15  2  0  0  0
 15 16  1  0  0  0
 16 17  1  0  0  0
 16 18  2  0  0  0
 18 19  1  0  0  0
 19 20  2  0  0  0
 26 21  1  0  0  0
  8  3  1  0  0  0
 20  9  1  0  0  0
 20 14  1  0  0  0
M  END
> <minimizedAffinity>
-6.47277

> <CNNscore>
0.2860177159

> <CNNaffinity>
5.6208043098

> <CNN_VS>
1.6076495647

> <CNNaffinity_variance>
0.0955230594

$$$$
[H]c1c([H])c2c(c([H])c1Cl)OC([H])([H])C(=O)N2C1([H])C([H])([H])C([H])([H])N(C(=O)c2c([H])c(OC([H])([H])[H])c(OC([H])([H])[H])c(OC([H])([H])[H])c2[H])C([H])([H])C1([H])[H]


 32 35  0  0  0  0  0  0  0  0999 V2000
   34.7319  -16.9372   35.7967 C   0  0  0  0  0  0  0  0  0  0  0  0
   34.0385  -17.2444   34.7371 O   0  0  0  0  0  0  0  0  0  0  0  0
   35.2564  -18.0318   36.4609 N   0  0  0  0  0  0  0  0  0  0  0  0
   36.0145  -18.0268   37.6727 C   0  0  0  0  0  0  0  0  0  0  0  0
   35.9043  -19.4568   38.2542 C   0  0  0  0  0  0  0  0  0  0  0  0
   36.8125  -20.2868   37.3442 C   0  0  0  0  0  0  0  0  0  0  0  0
   36.2049  -20.2793   35.9480 C   0  0  0  0  0  0  0  0  0  0  0  0
   35.0385  -19.3471   35.8544 C   0  0  0  0  0  0  0  0  0  0  0  0
   37.0150  -21.6254   37.7513 N   0  0  0  0  0  0  0  0  0  0  0  0
   35.9317  -22.5783   37.6862 C   0  0  0  0  0  0  0  0  0  0  0  0
   34.7867  -22.1154   37.7099 O   0  0  0  0  0  0  0  0  0  0  0  0
   36.2160  -24.0498   37.5953 C   0  0  0  0  0  0  0  0  0  0  0  0
   37.2733  -24.2801   38.5105 O   0  0  0  0  0  0  0  0  0  0  0  0
   38.3632  -23.4106   38.5999 C   0  0  0  0  0  0  0  0  0  0  0  0
   39.5352  -23.9379   39.0735 C   0  0  0  0  0  0  0  0  0  0  0  0
   40.6343  -23.1014   39.1742 C   0  0  0  0  0  0  0  0  0  0  0  0
   42.1471  -23.7786   39.7847 Cl  0  0  0  0  0  0  0  0  0  0  0  0
   40.5739  -21.7805   38.8160 C   0  0  0  0  0  0  0  0  0  0  0  0
   39.3752  -21.2674   38.3384 C   0  0  0  0  0  0  0  0  0  0  0  0
   38.2763  -22.0663   38.2280 C   0  0  0  0  0  0  0  0  0  0  0  0
   35.9058  -13.5072   36.7990 C   0  0  0  0  0  0  0  0  0  0  0  0
   35.9602  -14.8690   36.4795 C   0  0  0  0  0  0  0  0  0  0  0  0
   34.8377  -15.5436   36.1014 C   0  0  0  0  0  0  0  0  0  0  0  0
   33.6228  -14.8079   36.0452 C   0  0  0  0  0  0  0  0  0  0  0  0
   33.6265  -13.4833   36.3663 C   0  0  0  0  0  0  0  0  0  0  0  0
   34.7447  -12.7870   36.7500 C   0  0  0  0  0  0  0  0  0  0  0  0
   38.2183  -13.5548   37.6483 C   0  0  0  0  0  0  0  0  0  0  0  0
   37.0845  -12.8833   37.1773 O   0  0  0  0  0  0  0  0  0  0  0  0
   32.4268  -12.7599   36.3098 O   0  0  0  0  0  0  0  0  0  0  0  0
   31.7187  -12.4413   37.4941 C   0  0  0  0  0  0  0  0  0  0  0  0
   34.6685  -11.4378   37.0625 O   0  0  0  0  0  0  0  0  0  0  0  0
   35.1135  -10.4970   36.1202 C   0  0  0  0  0  0  0  0  0  0  0  0
 27 28  1  0  0  0
 28 21  1  0  0  0
 21 22  2  0  0  0
 22 23  1  0  0  0
 23 24  2  0  0  0
 24 25  1  0  0  0
 25 29  1  0  0  0
 29 30  1  0  0  0
 25 26  2  0  0  0
 26 31  1  0  0  0
 31 32  1  0  0  0
 23  1  1  0  0  0
  1  2  2  0  0  0
  1  3  1  0  0  0
  3  4  1  0  0  0
  4  5  1  0  0  0
  5  6  1  0  0  0
  6  7  1  0  0  0
  7  8  1  0  0  0
  6  9  1  0  0  0
  9 10  1  0  0  0
 10 11  2  0  0  0
 10 12  1  0  0  0
 12 13  1  0  0  0
 13 14  1  0  0  0
 14 15  2  0  0  0
 15 16  1  0  0  0
 16 17  1  0  0  0
 16 18  2  0  0  0
 18 19  1  0  0  0
 19 20  2  0  0  0
 26 21  1  0  0  0
  8  3  1  0  0  0
 20  9  1  0  0  0
 20 14  1  0  0  0
M  END
> <minimizedAffinity>
-5.80184

> <CNNscore>
0.2742083967

> <CNNaffinity>
5.4675354958

> <CNN_VS>
1.4992440939

> <CNNaffinity_variance>
0.0399886668

$$$$
[H]c1c([H])c2c(c([H])c1Cl)OC([H])([H])C(=O)N2C1([H])C([H])([H])C([H])([H])N(C(=O)c2c([H])c(OC([H])([H])[H])c(OC([H])([H])[H])c(OC([H])([H])[H])c2[H])C([H])([H])C1([H])[H]


 32 35  0  0  0  0  0  0  0  0999 V2000
   34.8280  -12.7633   37.0898 C   0  0  0  0  0  0  0  0  0  0  0  0
   35.9196  -12.0622   37.2102 O   0  0  0  0  0  0  0  0  0  0  0  0
   35.0471  -14.0957   36.7879 N   0  0  0  0  0  0  0  0  0  0  0  0
   34.0608  -15.1017   36.5466 C   0  0  0  0  0  0  0  0  0  0  0  0
   34.7781  -16.2276   35.7637 C   0  0  0  0  0  0  0  0  0  0  0  0
   35.6405  -16.9122   36.8264 C   0  0  0  0  0  0  0  0  0  0  0  0
   36.6817  -15.9069   37.2997 C   0  0  0  0  0  0  0  0  0  0  0  0
   36.4398  -14.5456   36.7283 C   0  0  0  0  0  0  0  0  0  0  0  0
   36.2970  -18.0910   36.4041 N   0  0  0  0  0  0  0  0  0  0  0  0
   37.0749  -18.0955   35.1873 C   0  0  0  0  0  0  0  0  0  0  0  0
   36.7866  -17.2398   34.3443 O   0  0  0  0  0  0  0  0  0  0  0  0
   38.1708  -19.1021   34.9875 C   0  0  0  0  0  0  0  0  0  0  0  0
   37.6398  -20.3272   35.4624 O   0  0  0  0  0  0  0  0  0  0  0  0
   36.9038  -20.3924   36.6481 C   0  0  0  0  0  0  0  0  0  0  0  0
   36.8878  -21.5979   37.2982 C   0  0  0  0  0  0  0  0  0  0  0  0
   36.1670  -21.6952   38.4766 C   0  0  0  0  0  0  0  0  0  0  0  0
   36.1445  -23.2486   39.3171 Cl  0  0  0  0  0  0  0  0  0  0  0  0
   35.4817  -20.6288   38.9961 C   0  0  0  0  0  0  0  0  0  0  0  0
   35.5119  -19.4162   38.3201 C   0  0  0  0  0  0  0  0  0  0  0  0
   36.2129  -19.2898   37.1579 C   0  0  0  0  0  0  0  0  0  0  0  0
   31.2346  -11.7844   37.6163 C   0  0  0  0  0  0  0  0  0  0  0  0
   32.3660  -12.5998   37.4951 C   0  0  0  0  0  0  0  0  0  0  0  0
   33.5987  -12.0579   37.2831 C   0  0  0  0  0  0  0  0  0  0  0  0
   33.6816  -10.6418   37.1937 C   0  0  0  0  0  0  0  0  0  0  0  0
   32.5483   -9.8952   37.3196 C   0  0  0  0  0  0  0  0  0  0  0  0
   31.2991  -10.4213   37.5320 C   0  0  0  0  0  0  0  0  0  0  0  0
   29.5754  -12.8846   39.0681 C   0  0  0  0  0  0  0  0  0  0  0  0
   30.0116  -12.4014   37.8294 O   0  0  0  0  0  0  0  0  0  0  0  0
   32.6330   -8.4984   37.2313 O   0  0  0  0  0  0  0  0  0  0  0  0
   33.5148   -7.8850   36.3085 C   0  0  0  0  0  0  0  0  0  0  0  0
   30.1912   -9.5951   37.6491 O   0  0  0  0  0  0  0  0  0  0  0  0
   29.6385   -9.3776   38.9211 C   0  0  0  0  0  0  0  0  0  0  0  0
 27 28  1  0  0  0
 28 21  1  0  0  0
 21 22  2  0  0  0
 22 23  1  0  0  0
 23 24  2  0  0  0
 24 25  1  0  0  0
 25 29  1  0  0  0
 29 30  1  0  0  0
 25 26  2  0  0  0
 26 31  1  0  0  0
 31 32  1  0  0  0
 23  1  1  0  0  0
  1  2  2  0  0  0
  1  3  1  0  0  0
  3  4  1  0  0  0
  4  5  1  0  0  0
  5  6  1  0  0  0
  6  7  1  0  0  0
  7  8  1  0  0  0
  6  9  1  0  0  0
  9 10  1  0  0  0
 10 11  2  0  0  0
 10 12  1  0  0  0
 12 13  1  0  0  0
 13 14  1  0  0  0
 14 15  2  0  0  0
 15 16  1  0  0  0
 16 17  1  0  0  0
 16 18  2  0  0  0
 18 19  1  0  0  0
 19 20  2  0  0  0
 26 21  1  0  0  0
  8  3  1  0  0  0
 20  9  1  0  0  0
 20 14  1  0  0  0
M  END
> <minimizedAffinity>
-7.47763

> <CNNscore>
0.2689770162

> <CNNaffinity>
5.9286432266

> <CNN_VS>
1.5946687460

> <CNNaffinity_variance>
0.1563138366

$$$$
[H]c1c([H])c2c(c([H])c1Cl)OC([H])([H])C(=O)N2C1([H])C([H])([H])C([H])([H])N(C(=O)c2c([H])c(OC([H])([H])[H])c(OC([H])([H])[H])c(OC([H])([H])[H])c2[H])C([H])([H])C1([H])[H]


 32 35  0  0  0  0  0  0  0  0999 V2000
   39.7713  -20.4154   38.5943 C   0  0  0  0  0  0  0  0  0  0  0  0
   39.9833  -20.8423   39.8070 O   0  0  0  0  0  0  0  0  0  0  0  0
   38.5103  -20.7112   38.1077 N   0  0  0  0  0  0  0  0  0  0  0  0
   37.9960  -20.4231   36.8055 C   0  0  0  0  0  0  0  0  0  0  0  0
   36.8016  -21.3841   36.5931 C   0  0  0  0  0  0  0  0  0  0  0  0
   35.7023  -20.7939   37.4791 C   0  0  0  0  0  0  0  0  0  0  0  0
   36.1634  -20.9005   38.9264 C   0  0  0  0  0  0  0  0  0  0  0  0
   37.5796  -21.3725   39.0252 C   0  0  0  0  0  0  0  0  0  0  0  0
   34.4330  -21.4037   37.3540 N   0  0  0  0  0  0  0  0  0  0  0  0
   34.2065  -22.7291   37.8810 C   0  0  0  0  0  0  0  0  0  0  0  0
   35.2021  -23.4481   38.0141 O   0  0  0  0  0  0  0  0  0  0  0  0
   32.8198  -23.1800   38.2388 C   0  0  0  0  0  0  0  0  0  0  0  0
   31.9953  -22.7150   37.1839 O   0  0  0  0  0  0  0  0  0  0  0  0
   32.1461  -21.4322   36.6514 C   0  0  0  0  0  0  0  0  0  0  0  0
   31.0437  -20.8785   36.0562 C   0  0  0  0  0  0  0  0  0  0  0  0
   31.1608  -19.6077   35.5185 C   0  0  0  0  0  0  0  0  0  0  0  0
   29.7408  -18.8910   34.7502 Cl  0  0  0  0  0  0  0  0  0  0  0  0
   32.3360  -18.9057   35.5690 C   0  0  0  0  0  0  0  0  0  0  0  0
   33.4408  -19.4868   36.1773 C   0  0  0  0  0  0  0  0  0  0  0  0
   33.3562  -20.7363   36.7156 C   0  0  0  0  0  0  0  0  0  0  0  0
   42.0317  -18.5860   36.2086 C   0  0  0  0  0  0  0  0  0  0  0  0
   40.8760  -19.1944   36.7126 C   0  0  0  0  0  0  0  0  0  0  0  0
   40.8556  -19.7233   37.9687 C   0  0  0  0  0  0  0  0  0  0  0  0
   42.0484  -19.6279   38.7357 C   0  0  0  0  0  0  0  0  0  0  0  0
   43.1451  -19.0245   38.1963 C   0  0  0  0  0  0  0  0  0  0  0  0
   43.1861  -18.4874   36.9345 C   0  0  0  0  0  0  0  0  0  0  0  0
   41.9298  -18.8478   33.7607 C   0  0  0  0  0  0  0  0  0  0  0  0
   41.9837  -18.0701   34.9228 O   0  0  0  0  0  0  0  0  0  0  0  0
   44.3204  -18.9315   38.9552 O   0  0  0  0  0  0  0  0  0  0  0  0
   44.4568  -19.6514   40.1671 C   0  0  0  0  0  0  0  0  0  0  0  0
   44.3418  -17.8892   36.4546 O   0  0  0  0  0  0  0  0  0  0  0  0
   44.3994  -16.4885   36.3787 C   0  0  0  0  0  0  0  0  0  0  0  0
 27 28  1  0  0  0
 28 21  1  0  0  0
 21 22  2  0  0  0
 22 23  1  0  0  0
 23 24  2  0  0  0
 24 25  1  0  0  0
 25 29  1  0  0  0
 29 30  1  0  0  0
 25 26  2  0  0  0
 26 31  1  0  0  0
 31 32  1  0  0  0
 23  1  1  0  0  0
  1  2  2  0  0  0
  1  3  1  0  0  0
  3  4  1  0  0  0
  4  5  1  0  0  0
  5  6  1  0  0  0
  6  7  1  0  0  0
  7  8  1  0  0  0
  6  9  1  0  0  0
  9 10  1  0  0  0
 10 11  2  0  0  0
 10 12  1  0  0  0
 12 13  1  0  0  0
 13 14  1  0  0  0
 14 15  2  0  0  0
 15 16  1  0  0  0
 16 17  1  0  0  0
 16 18  2  0  0  0
 18 19  1  0  0  0
 19 20  2  0  0  0
 26 21  1  0  0  0
  8  3  1  0  0  0
 20  9  1  0  0  0
 20 14  1  0  0  0
M  END
> <minimizedAffinity>
-5.34592

> <CNNscore>
0.2534986734

> <CNNaffinity>
4.5069937706

> <CNN_VS>
1.1425169706

> <CNNaffinity_variance>
0.5468395948

$$$$
[H]c1sc(N2C([H])([H])C([H])([H])[C@@]([H])(N([H])C(=O)c3c([H])c([H])c(F)c([H])c3[H])C2([H])[H])nc1-c1c([H])c([H])c([H])c([H])c1[H]


 27 30  0  0  0  0  0  0  0  0999 V2000
   37.5261  -22.9212   38.7991 C   0  0  0  0  0  0  0  0  0  0  0  0
   37.7497  -24.3026   38.2677 C   0  0  0  0  0  0  0  0  0  0  0  0
   36.8452  -24.4220   37.0644 C   0  0  0  0  0  0  0  0  0  0  0  0
   35.9109  -23.3439   37.2553 N   0  0  0  0  0  0  0  0  0  0  0  0
   36.6628  -22.2174   37.7425 C   0  0  0  0  0  0  0  0  0  0  0  0
   34.4848  -23.3050   37.0272 C   0  0  0  0  0  0  0  0  0  0  0  0
   33.7685  -22.3065   36.5642 N   0  0  0  0  0  0  0  0  0  0  0  0
   32.4727  -22.4372   36.4136 C   0  0  0  0  0  0  0  0  0  0  0  0
   31.9366  -23.6567   36.7643 C   0  0  0  0  0  0  0  0  0  0  0  0
   33.3111  -24.5178   37.2786 S   0  0  0  0  0  0  0  0  0  0  0  0
   31.6328  -21.3192   35.8936 C   0  0  0  0  0  0  0  0  0  0  0  0
   32.1759  -20.2177   35.2750 C   0  0  0  0  0  0  0  0  0  0  0  0
   31.3931  -19.1836   34.7929 C   0  0  0  0  0  0  0  0  0  0  0  0
   30.0218  -19.2494   34.9318 C   0  0  0  0  0  0  0  0  0  0  0  0
   29.4603  -20.3349   35.5432 C   0  0  0  0  0  0  0  0  0  0  0  0
   30.2672  -21.3675   36.0228 C   0  0  0  0  0  0  0  0  0  0  0  0
   38.9610  -21.4455   40.1274 C   0  0  0  0  0  0  0  0  0  0  0  0
   38.1443  -21.4862   41.1059 O   0  0  0  0  0  0  0  0  0  0  0  0
   38.7319  -22.1347   38.9301 N   0  0  0  0  0  0  0  0  0  0  0  0
   39.3879  -22.1011   38.1485 H   0  0  0  0  0  0  0  0  0  0  0  0
   43.6291  -18.3535   40.6335 F   0  0  0  0  0  0  0  0  0  0  0  0
   42.4973  -19.0997   40.5422 C   0  0  0  0  0  0  0  0  0  0  0  0
   41.7571  -19.4339   41.6529 C   0  0  0  0  0  0  0  0  0  0  0  0
   40.6047  -20.1994   41.5182 C   0  0  0  0  0  0  0  0  0  0  0  0
   40.1779  -20.6375   40.2929 C   0  0  0  0  0  0  0  0  0  0  0  0
   40.9310  -20.2963   39.1724 C   0  0  0  0  0  0  0  0  0  0  0  0
   42.0543  -19.5490   39.3125 C   0  0  0  0  0  0  0  0  0  0  0  0
 21 22  1  0  0  0
 22 23  2  0  0  0
 23 24  1  0  0  0
 24 25  2  0  0  0
 25 26  1  0  0  0
 26 27  2  0  0  0
 25 17  1  0  0  0
 17 18  2  0  0  0
 17 19  1  0  0  0
 19  1  1  0  0  0
  1  2  1  0  0  0
  2  3  1  0  0  0
  3  4  1  0  0  0
  4  5  1  0  0  0
  4  6  1  0  0  0
  6  7  2  0  0  0
  7  8  1  0  0  0
  8  9  2  0  0  0
  9 10  1  0  0  0
  8 11  1  0  0  0
 11 12  2  0  0  0
 12 13  1  0  0  0
 13 14  2  0  0  0
 14 15  1  0  0  0
 15 16  2  0  0  0
 27 22  1  0  0  0
  5  1  1  0  0  0
 10  6  1  0  0  0
 16 11  1  0  0  0
 19 20  1  0  0  0
M  END
> <minimizedAffinity>
-4.87240

> <CNNscore>
0.5601969957

> <CNNaffinity>
4.1985878944

> <CNN_VS>
2.3520362377

> <CNNaffinity_variance>
0.1281401813

$$$$
[H]c1sc(N2C([H])([H])C([H])([H])[C@@]([H])(N([H])C(=O)c3c([H])c([H])c(F)c([H])c3[H])C2([H])[H])nc1-c1c([H])c([H])c([H])c([H])c1[H]


 27 30  0  0  0  0  0  0  0  0999 V2000
   35.8534  -20.2104   36.7244 C   0  0  0  0  0  0  0  0  0  0  0  0
   36.0566  -18.8687   36.0926 C   0  0  0  0  0  0  0  0  0  0  0  0
   34.7072  -18.1926   36.1413 C   0  0  0  0  0  0  0  0  0  0  0  0
   33.8046  -19.2907   36.3677 N   0  0  0  0  0  0  0  0  0  0  0  0
   34.4382  -20.1667   37.3180 C   0  0  0  0  0  0  0  0  0  0  0  0
   32.5000  -19.5468   35.8022 C   0  0  0  0  0  0  0  0  0  0  0  0
   31.5680  -20.3532   36.2557 N   0  0  0  0  0  0  0  0  0  0  0  0
   30.4281  -20.4698   35.6186 C   0  0  0  0  0  0  0  0  0  0  0  0
   30.2849  -19.7105   34.4783 C   0  0  0  0  0  0  0  0  0  0  0  0
   31.7759  -18.8940   34.4019 S   0  0  0  0  0  0  0  0  0  0  0  0
   29.3526  -21.3806   36.1078 C   0  0  0  0  0  0  0  0  0  0  0  0
   29.1237  -22.6155   35.5476 C   0  0  0  0  0  0  0  0  0  0  0  0
   28.1258  -23.4577   36.0054 C   0  0  0  0  0  0  0  0  0  0  0  0
   27.3288  -23.0559   37.0576 C   0  0  0  0  0  0  0  0  0  0  0  0
   27.5385  -21.8327   37.6297 C   0  0  0  0  0  0  0  0  0  0  0  0
   28.5501  -20.9977   37.1533 C   0  0  0  0  0  0  0  0  0  0  0  0
   37.5723  -21.6188   37.7554 C   0  0  0  0  0  0  0  0  0  0  0  0
   37.5609  -22.4119   36.7569 O   0  0  0  0  0  0  0  0  0  0  0  0
   36.7486  -20.4884   37.8249 N   0  0  0  0  0  0  0  0  0  0  0  0
   36.7603  -19.8546   38.6252 H   0  0  0  0  0  0  0  0  0  0  0  0
   41.0498  -22.9233   41.9760 F   0  0  0  0  0  0  0  0  0  0  0  0
   40.2227  -22.5800   40.9541 C   0  0  0  0  0  0  0  0  0  0  0  0
   40.3030  -21.3529   40.3369 C   0  0  0  0  0  0  0  0  0  0  0  0
   39.4387  -21.0388   39.2947 C   0  0  0  0  0  0  0  0  0  0  0  0
   38.4944  -21.9292   38.8575 C   0  0  0  0  0  0  0  0  0  0  0  0
   38.4177  -23.1694   39.4860 C   0  0  0  0  0  0  0  0  0  0  0  0
   39.2650  -23.4680   40.5022 C   0  0  0  0  0  0  0  0  0  0  0  0
 21 22  1  0  0  0
 22 23  2  0  0  0
 23 24  1  0  0  0
 24 25  2  0  0  0
 25 26  1  0  0  0
 26 27  2  0  0  0
 25 17  1  0  0  0
 17 18  2  0  0  0
 17 19  1  0  0  0
 19  1  1  0  0  0
  1  2  1  0  0  0
  2  3  1  0  0  0
  3  4  1  0  0  0
  4  5  1  0  0  0
  4  6  1  0  0  0
  6  7  2  0  0  0
  7  8  1  0  0  0
  8  9  2  0  0  0
  9 10  1  0  0  0
  8 11  1  0  0  0
 11 12  2  0  0  0
 12 13  1  0  0  0
 13 14  2  0  0  0
 14 15  1  0  0  0
 15 16  2  0  0  0
 27 22  1  0  0  0
  5  1  1  0  0  0
 10  6  1  0  0  0
 16 11  1  0  0  0
 19 20  1  0  0  0
M  END
> <minimizedAffinity>
-4.69746

> <CNNscore>
0.5463322401

> <CNNaffinity>
4.4578623772

> <CNN_VS>
2.4354739189

> <CNNaffinity_variance>
0.1489517987

$$$$
[H]c1sc(N2C([H])([H])C([H])([H])[C@@]([H])(N([H])C(=O)c3c([H])c([H])c(F)c([H])c3[H])C2([H])[H])nc1-c1c([H])c([H])c([H])c([H])c1[H]


 27 30  0  0  0  0  0  0  0  0999 V2000
   37.9826  -19.4246   35.9028 C   0  0  0  0  0  0  0  0  0  0  0  0
   38.1412  -19.1568   34.4386 C   0  0  0  0  0  0  0  0  0  0  0  0
   36.9675  -18.2854   34.0596 C   0  0  0  0  0  0  0  0  0  0  0  0
   36.0534  -18.4824   35.1537 N   0  0  0  0  0  0  0  0  0  0  0  0
   36.8394  -18.5071   36.3592 C   0  0  0  0  0  0  0  0  0  0  0  0
   34.6165  -18.6327   35.1423 C   0  0  0  0  0  0  0  0  0  0  0  0
   33.9213  -19.7466   35.1658 N   0  0  0  0  0  0  0  0  0  0  0  0
   32.6108  -19.7077   35.1529 C   0  0  0  0  0  0  0  0  0  0  0  0
   32.0369  -18.4561   35.1143 C   0  0  0  0  0  0  0  0  0  0  0  0
   33.3997  -17.4373   35.0994 S   0  0  0  0  0  0  0  0  0  0  0  0
   31.7948  -20.9565   35.1751 C   0  0  0  0  0  0  0  0  0  0  0  0
   32.2585  -22.1470   34.6664 C   0  0  0  0  0  0  0  0  0  0  0  0
   31.4988  -23.3032   34.6903 C   0  0  0  0  0  0  0  0  0  0  0  0
   30.2336  -23.2722   35.2400 C   0  0  0  0  0  0  0  0  0  0  0  0
   29.7524  -22.1000   35.7515 C   0  0  0  0  0  0  0  0  0  0  0  0
   30.5342  -20.9446   35.7178 C   0  0  0  0  0  0  0  0  0  0  0  0
   39.8550  -20.0831   37.3385 C   0  0  0  0  0  0  0  0  0  0  0  0
   39.5304  -21.3128   37.2452 O   0  0  0  0  0  0  0  0  0  0  0  0
   39.1351  -19.0666   36.6985 N   0  0  0  0  0  0  0  0  0  0  0  0
   39.3977  -18.0830   36.7742 H   0  0  0  0  0  0  0  0  0  0  0  0
   44.4054  -18.7531   40.3606 F   0  0  0  0  0  0  0  0  0  0  0  0
   43.2939  -19.0893   39.6550 C   0  0  0  0  0  0  0  0  0  0  0  0
   42.2636  -19.8039   40.2216 C   0  0  0  0  0  0  0  0  0  0  0  0
   41.1428  -20.1289   39.4666 C   0  0  0  0  0  0  0  0  0  0  0  0
   41.0324  -19.7526   38.1544 C   0  0  0  0  0  0  0  0  0  0  0  0
   42.0782  -19.0297   37.5863 C   0  0  0  0  0  0  0  0  0  0  0  0
   43.1684  -18.7166   38.3301 C   0  0  0  0  0  0  0  0  0  0  0  0
 21 22  1  0  0  0
 22 23  2  0  0  0
 23 24  1  0  0  0
 24 25  2  0  0  0
 25 26  1  0  0  0
 26 27  2  0  0  0
 25 17  1  0  0  0
 17 18  2  0  0  0
 17 19  1  0  0  0
 19  1  1  0  0  0
  1  2  1  0  0  0
  2  3  1  0  0  0
  3  4  1  0  0  0
  4  5  1  0  0  0
  4  6  1  0  0  0
  6  7  2  0  0  0
  7  8  1  0  0  0
  8  9  2  0  0  0
  9 10  1  0  0  0
  8 11  1  0  0  0
 11 12  2  0  0  0
 12 13  1  0  0  0
 13 14  2  0  0  0
 14 15  1  0  0  0
 15 16  2  0  0  0
 27 22  1  0  0  0
  5  1  1  0  0  0
 10  6  1  0  0  0
 16 11  1  0  0  0
 19 20  1  0  0  0
M  END
> <minimizedAffinity>
-5.82494

> <CNNscore>
0.4705877602

> <CNNaffinity>
4.5018110275

> <CNN_VS>
2.1184971333

> <CNNaffinity_variance>
0.3506157100

$$$$
[H]c1sc(N2C([H])([H])C([H])([H])[C@@]([H])(N([H])C(=O)c3c([H])c([H])c(F)c([H])c3[H])C2([H])[H])nc1-c1c([H])c([H])c([H])c([H])c1[H]


 27 30  0  0  0  0  0  0  0  0999 V2000
   37.4503  -22.2525   38.1328 C   0  0  0  0  0  0  0  0  0  0  0  0
   37.3599  -23.4933   38.9652 C   0  0  0  0  0  0  0  0  0  0  0  0
   36.4553  -24.4277   38.1977 C   0  0  0  0  0  0  0  0  0  0  0  0
   35.7861  -23.5454   37.2783 N   0  0  0  0  0  0  0  0  0  0  0  0
   36.7701  -22.6083   36.8032 C   0  0  0  0  0  0  0  0  0  0  0  0
   34.4058  -23.5282   36.8521 C   0  0  0  0  0  0  0  0  0  0  0  0
   33.6975  -22.4973   36.4517 N   0  0  0  0  0  0  0  0  0  0  0  0
   32.4462  -22.6547   36.0935 C   0  0  0  0  0  0  0  0  0  0  0  0
   31.9465  -23.9363   36.1655 C   0  0  0  0  0  0  0  0  0  0  0  0
   33.2892  -24.8131   36.7344 S   0  0  0  0  0  0  0  0  0  0  0  0
   31.6160  -21.5018   35.6380 C   0  0  0  0  0  0  0  0  0  0  0  0
   30.2815  -21.3882   35.9496 C   0  0  0  0  0  0  0  0  0  0  0  0
   29.5155  -20.3165   35.5262 C   0  0  0  0  0  0  0  0  0  0  0  0
   30.0994  -19.3236   34.7663 C   0  0  0  0  0  0  0  0  0  0  0  0
   31.4244  -19.4159   34.4449 C   0  0  0  0  0  0  0  0  0  0  0  0
   32.1798  -20.5050   34.8815 C   0  0  0  0  0  0  0  0  0  0  0  0
   39.0423  -20.5284   37.4303 C   0  0  0  0  0  0  0  0  0  0  0  0
   38.1132  -19.6574   37.3654 O   0  0  0  0  0  0  0  0  0  0  0  0
   38.8013  -21.8557   37.8061 N   0  0  0  0  0  0  0  0  0  0  0  0
   39.5473  -22.5508   37.8580 H   0  0  0  0  0  0  0  0  0  0  0  0
   44.2895  -18.9839   36.1305 F   0  0  0  0  0  0  0  0  0  0  0  0
   43.0131  -19.3271   36.4451 C   0  0  0  0  0  0  0  0  0  0  0  0
   42.0279  -18.3813   36.6128 C   0  0  0  0  0  0  0  0  0  0  0  0
   40.7335  -18.7724   36.9348 C   0  0  0  0  0  0  0  0  0  0  0  0
   40.4051  -20.0925   37.0926 C   0  0  0  0  0  0  0  0  0  0  0  0
   41.4063  -21.0453   36.9219 C   0  0  0  0  0  0  0  0  0  0  0  0
   42.6668  -20.6553   36.6077 C   0  0  0  0  0  0  0  0  0  0  0  0
 21 22  1  0  0  0
 22 23  2  0  0  0
 23 24  1  0  0  0
 24 25  2  0  0  0
 25 26  1  0  0  0
 26 27  2  0  0  0
 25 17  1  0  0  0
 17 18  2  0  0  0
 17 19  1  0  0  0
 19  1  1  0  0  0
  1  2  1  0  0  0
  2  3  1  0  0  0
  3  4  1  0  0  0
  4  5  1  0  0  0
  4  6  1  0  0  0
  6  7  2  0  0  0
  7  8  1  0  0  0
  8  9  2  0  0  0
  9 10  1  0  0  0
  8 11  1  0  0  0
 11 12  2  0  0  0
 12 13  1  0  0  0
 13 14  2  0  0  0
 14 15  1  0  0  0
 15 16  2  0  0  0
 27 22  1  0  0  0
  5  1  1  0  0  0
 10  6  1  0  0  0
 16 11  1  0  0  0
 19 20  1  0  0  0
M  END
> <minimizedAffinity>
-4.35016

> <CNNscore>
0.4671052694

> <CNNaffinity>
4.5085687637

> <CNN_VS>
2.1059763432

> <CNNaffinity_variance>
0.1560449749

$$$$
[H]c1sc(N2C([H])([H])C([H])([H])[C@@]([H])(N([H])C(=O)c3c([H])c([H])c(F)c([H])c3[H])C2([H])[H])nc1-c1c([H])c([H])c([H])c([H])c1[H]


 27 30  0  0  0  0  0  0  0  0999 V2000
   33.3889  -18.8458   34.6736 C   0  0  0  0  0  0  0  0  0  0  0  0
   34.5837  -18.9208   33.7748 C   0  0  0  0  0  0  0  0  0  0  0  0
   35.7514  -18.4701   34.6196 C   0  0  0  0  0  0  0  0  0  0  0  0
   35.1127  -17.7913   35.7163 N   0  0  0  0  0  0  0  0  0  0  0  0
   33.9541  -18.5671   36.0735 C   0  0  0  0  0  0  0  0  0  0  0  0
   35.4879  -16.5712   36.3930 C   0  0  0  0  0  0  0  0  0  0  0  0
   34.7702  -15.4830   36.5521 N   0  0  0  0  0  0  0  0  0  0  0  0
   35.2634  -14.4552   37.1997 C   0  0  0  0  0  0  0  0  0  0  0  0
   36.5451  -14.5960   37.6843 C   0  0  0  0  0  0  0  0  0  0  0  0
   36.9466  -16.1718   37.1831 S   0  0  0  0  0  0  0  0  0  0  0  0
   34.4731  -13.2046   37.3926 C   0  0  0  0  0  0  0  0  0  0  0  0
   34.9018  -11.9845   36.9250 C   0  0  0  0  0  0  0  0  0  0  0  0
   34.1649  -10.8272   37.1050 C   0  0  0  0  0  0  0  0  0  0  0  0
   32.9595  -10.8877   37.7737 C   0  0  0  0  0  0  0  0  0  0  0  0
   32.5139  -12.0898   38.2469 C   0  0  0  0  0  0  0  0  0  0  0  0
   33.2719  -13.2457   38.0553 C   0  0  0  0  0  0  0  0  0  0  0  0
   31.3212  -20.0358   35.2297 C   0  0  0  0  0  0  0  0  0  0  0  0
   30.7498  -18.9451   35.5614 O   0  0  0  0  0  0  0  0  0  0  0  0
   32.6443  -20.0808   34.7730 N   0  0  0  0  0  0  0  0  0  0  0  0
   33.0990  -20.9553   34.5073 H   0  0  0  0  0  0  0  0  0  0  0  0
   28.4258  -24.8378   35.6357 F   0  0  0  0  0  0  0  0  0  0  0  0
   29.0995  -23.6614   35.5444 C   0  0  0  0  0  0  0  0  0  0  0  0
   28.4822  -22.4525   35.7696 C   0  0  0  0  0  0  0  0  0  0  0  0
   29.2059  -21.2703   35.6662 C   0  0  0  0  0  0  0  0  0  0  0  0
   30.5363  -21.2738   35.3416 C   0  0  0  0  0  0  0  0  0  0  0  0
   31.1557  -22.5002   35.1147 C   0  0  0  0  0  0  0  0  0  0  0  0
   30.4424  -23.6492   35.2176 C   0  0  0  0  0  0  0  0  0  0  0  0
 21 22  1  0  0  0
 22 23  2  0  0  0
 23 24  1  0  0  0
 24 25  2  0  0  0
 25 26  1  0  0  0
 26 27  2  0  0  0
 25 17  1  0  0  0
 17 18  2  0  0  0
 17 19  1  0  0  0
 19  1  1  0  0  0
  1  2  1  0  0  0
  2  3  1  0  0  0
  3  4  1  0  0  0
  4  5  1  0  0  0
  4  6  1  0  0  0
  6  7  2  0  0  0
  7  8  1  0  0  0
  8  9  2  0  0  0
  9 10  1  0  0  0
  8 11  1  0  0  0
 11 12  2  0  0  0
 12 13  1  0  0  0
 13 14  2  0  0  0
 14 15  1  0  0  0
 15 16  2  0  0  0
 27 22  1  0  0  0
  5  1  1  0  0  0
 10  6  1  0  0  0
 16 11  1  0  0  0
 19 20  1  0  0  0
M  END
> <minimizedAffinity>
-7.86338

> <CNNscore>
0.4383168221

> <CNNaffinity>
5.1707673073

> <CNN_VS>
2.2664341927

> <CNNaffinity_variance>
0.3179601133

$$$$
[H]c1sc(N2C([H])([H])C([H])([H])[C@@]([H])(N([H])C(=O)c3c([H])c([H])c(F)c([H])c3[H])C2([H])[H])nc1-c1c([H])c([H])c([H])c([H])c1[H]


 27 30  0  0  0  0  0  0  0  0999 V2000
   36.5794  -18.7694   35.3058 C   0  0  0  0  0  0  0  0  0  0  0  0
   36.9803  -18.1407   34.0078 C   0  0  0  0  0  0  0  0  0  0  0  0
   38.3376  -18.7177   33.6836 C   0  0  0  0  0  0  0  0  0  0  0  0
   38.7743  -19.2449   34.9497 N   0  0  0  0  0  0  0  0  0  0  0  0
   37.6284  -19.8594   35.5671 C   0  0  0  0  0  0  0  0  0  0  0  0
   40.0825  -19.2147   35.5621 C   0  0  0  0  0  0  0  0  0  0  0  0
   40.3757  -19.2491   36.8417 N   0  0  0  0  0  0  0  0  0  0  0  0
   41.6262  -19.2157   37.2341 C   0  0  0  0  0  0  0  0  0  0  0  0
   42.5769  -19.1444   36.2399 C   0  0  0  0  0  0  0  0  0  0  0  0
   41.6222  -19.1305   34.8314 S   0  0  0  0  0  0  0  0  0  0  0  0
   41.9893  -19.2496   38.6807 C   0  0  0  0  0  0  0  0  0  0  0  0
   41.2351  -19.9233   39.6125 C   0  0  0  0  0  0  0  0  0  0  0  0
   41.5763  -19.9533   40.9531 C   0  0  0  0  0  0  0  0  0  0  0  0
   42.7080  -19.2892   41.3800 C   0  0  0  0  0  0  0  0  0  0  0  0
   43.4726  -18.6131   40.4713 C   0  0  0  0  0  0  0  0  0  0  0  0
   43.1114  -18.5948   39.1235 C   0  0  0  0  0  0  0  0  0  0  0  0
   34.1450  -18.7016   35.5710 C   0  0  0  0  0  0  0  0  0  0  0  0
   34.1849  -17.4643   35.8768 O   0  0  0  0  0  0  0  0  0  0  0  0
   35.2979  -19.4372   35.2694 N   0  0  0  0  0  0  0  0  0  0  0  0
   35.2630  -20.4276   35.0240 H   0  0  0  0  0  0  0  0  0  0  0  0
   29.0665  -21.1046   35.3682 F   0  0  0  0  0  0  0  0  0  0  0  0
   30.3024  -20.5447   35.4388 C   0  0  0  0  0  0  0  0  0  0  0  0
   31.2776  -21.0419   36.2725 C   0  0  0  0  0  0  0  0  0  0  0  0
   32.5301  -20.4408   36.3166 C   0  0  0  0  0  0  0  0  0  0  0  0
   32.8264  -19.3509   35.5422 C   0  0  0  0  0  0  0  0  0  0  0  0
   31.8356  -18.8520   34.7004 C   0  0  0  0  0  0  0  0  0  0  0  0
   30.6160  -19.4444   34.6634 C   0  0  0  0  0  0  0  0  0  0  0  0
 21 22  1  0  0  0
 22 23  2  0  0  0
 23 24  1  0  0  0
 24 25  2  0  0  0
 25 26  1  0  0  0
 26 27  2  0  0  0
 25 17  1  0  0  0
 17 18  2  0  0  0
 17 19  1  0  0  0
 19  1  1  0  0  0
  1  2  1  0  0  0
  2  3  1  0  0  0
  3  4  1  0  0  0
  4  5  1  0  0  0
  4  6  1  0  0  0
  6  7  2  0  0  0
  7  8  1  0  0  0
  8  9  2  0  0  0
  9 10  1  0  0  0
  8 11  1  0  0  0
 11 12  2  0  0  0
 12 13  1  0  0  0
 13 14  2  0  0  0
 14 15  1  0  0  0
 15 16  2  0  0  0
 27 22  1  0  0  0
  5  1  1  0  0  0
 10  6  1  0  0  0
 16 11  1  0  0  0
 19 20  1  0  0  0
M  END
> <minimizedAffinity>
-6.73948

> <CNNscore>
0.4305562973

> <CNNaffinity>
4.5509176254

> <CNN_VS>
1.9594262838

> <CNNaffinity_variance>
0.3259021640

$$$$
[H]c1sc(N2C([H])([H])C([H])([H])[C@@]([H])(N([H])C(=O)c3c([H])c([H])c(F)c([H])c3[H])C2([H])[H])nc1-c1c([H])c([H])c([H])c([H])c1[H]


 27 30  0  0  0  0  0  0  0  0999 V2000
   36.4648  -17.0476   36.4941 C   0  0  0  0  0  0  0  0  0  0  0  0
   35.1377  -17.7110   36.2959 C   0  0  0  0  0  0  0  0  0  0  0  0
   34.2037  -16.6147   35.8421 C   0  0  0  0  0  0  0  0  0  0  0  0
   34.9037  -15.4165   36.2240 N   0  0  0  0  0  0  0  0  0  0  0  0
   36.2960  -15.6305   35.9281 C   0  0  0  0  0  0  0  0  0  0  0  0
   34.3950  -14.1908   36.7952 C   0  0  0  0  0  0  0  0  0  0  0  0
   34.6401  -12.9590   36.4115 N   0  0  0  0  0  0  0  0  0  0  0  0
   34.0915  -11.9491   37.0424 C   0  0  0  0  0  0  0  0  0  0  0  0
   33.2675  -12.2642   38.1003 C   0  0  0  0  0  0  0  0  0  0  0  0
   33.3375  -13.9643   38.1150 S   0  0  0  0  0  0  0  0  0  0  0  0
   34.3544  -10.5391   36.6317 C   0  0  0  0  0  0  0  0  0  0  0  0
   35.4006  -10.1962   35.8078 C   0  0  0  0  0  0  0  0  0  0  0  0
   35.6400   -8.8873   35.4282 C   0  0  0  0  0  0  0  0  0  0  0  0
   34.8083   -7.8856   35.8852 C   0  0  0  0  0  0  0  0  0  0  0  0
   33.7622   -8.2035   36.7050 C   0  0  0  0  0  0  0  0  0  0  0  0
   33.5376   -9.5297   37.0765 C   0  0  0  0  0  0  0  0  0  0  0  0
   38.0776  -18.8694   36.2095 C   0  0  0  0  0  0  0  0  0  0  0  0
   37.6404  -19.4569   37.2534 O   0  0  0  0  0  0  0  0  0  0  0  0
   37.5474  -17.6558   35.7541 N   0  0  0  0  0  0  0  0  0  0  0  0
   37.8988  -17.1880   34.9175 H   0  0  0  0  0  0  0  0  0  0  0  0
   42.3056  -21.4142   33.5159 F   0  0  0  0  0  0  0  0  0  0  0  0
   41.2790  -20.7814   34.1418 C   0  0  0  0  0  0  0  0  0  0  0  0
   40.5484  -19.7947   33.5205 C   0  0  0  0  0  0  0  0  0  0  0  0
   39.5052  -19.1706   34.1945 C   0  0  0  0  0  0  0  0  0  0  0  0
   39.1784  -19.5144   35.4792 C   0  0  0  0  0  0  0  0  0  0  0  0
   39.9214  -20.5134   36.1030 C   0  0  0  0  0  0  0  0  0  0  0  0
   40.9377  -21.1176   35.4382 C   0  0  0  0  0  0  0  0  0  0  0  0
 21 22  1  0  0  0
 22 23  2  0  0  0
 23 24  1  0  0  0
 24 25  2  0  0  0
 25 26  1  0  0  0
 26 27  2  0  0  0
 25 17  1  0  0  0
 17 18  2  0  0  0
 17 19  1  0  0  0
 19  1  1  0  0  0
  1  2  1  0  0  0
  2  3  1  0  0  0
  3  4  1  0  0  0
  4  5  1  0  0  0
  4  6  1  0  0  0
  6  7  2  0  0  0
  7  8  1  0  0  0
  8  9  2  0  0  0
  9 10  1  0  0  0
  8 11  1  0  0  0
 11 12  2  0  0  0
 12 13  1  0  0  0
 13 14  2  0  0  0
 14 15  1  0  0  0
 15 16  2  0  0  0
 27 22  1  0  0  0
  5  1  1  0  0  0
 10  6  1  0  0  0
 16 11  1  0  0  0
 19 20  1  0  0  0
M  END
> <minimizedAffinity>
-6.16850

> <CNNscore>
0.3594031334

> <CNNaffinity>
5.0450582504

> <CNN_VS>
1.8132097721

> <CNNaffinity_variance>
0.2686177194

$$$$
[H]c1sc(N2C([H])([H])C([H])([H])[C@@]([H])(N([H])C(=O)c3c([H])c([H])c(F)c([H])c3[H])C2([H])[H])nc1-c1c([H])c([H])c([H])c([H])c1[H]


 27 30  0  0  0  0  0  0  0  0999 V2000
   35.7794  -15.4867   37.0844 C   0  0  0  0  0  0  0  0  0  0  0  0
   37.1321  -16.0482   36.7751 C   0  0  0  0  0  0  0  0  0  0  0  0
   36.8778  -17.2486   35.8949 C   0  0  0  0  0  0  0  0  0  0  0  0
   35.4844  -17.5267   36.1240 N   0  0  0  0  0  0  0  0  0  0  0  0
   34.8064  -16.2582   36.1817 C   0  0  0  0  0  0  0  0  0  0  0  0
   34.8072  -18.7939   36.2758 C   0  0  0  0  0  0  0  0  0  0  0  0
   33.5494  -19.0724   36.0212 N   0  0  0  0  0  0  0  0  0  0  0  0
   33.0895  -20.2852   36.2128 C   0  0  0  0  0  0  0  0  0  0  0  0
   33.9915  -21.2134   36.6843 C   0  0  0  0  0  0  0  0  0  0  0  0
   35.4164  -20.2929   36.8176 S   0  0  0  0  0  0  0  0  0  0  0  0
   31.6647  -20.6301   35.9360 C   0  0  0  0  0  0  0  0  0  0  0  0
   30.7408  -19.6864   35.5529 C   0  0  0  0  0  0  0  0  0  0  0  0
   29.4205  -20.0109   35.2958 C   0  0  0  0  0  0  0  0  0  0  0  0
   29.0065  -21.3209   35.4248 C   0  0  0  0  0  0  0  0  0  0  0  0
   29.9078  -22.2754   35.8043 C   0  0  0  0  0  0  0  0  0  0  0  0
   31.2350  -21.9278   36.0592 C   0  0  0  0  0  0  0  0  0  0  0  0
   34.6983  -13.3209   37.4603 C   0  0  0  0  0  0  0  0  0  0  0  0
   33.9818  -13.8094   38.3953 O   0  0  0  0  0  0  0  0  0  0  0  0
   35.6271  -14.0893   36.7475 N   0  0  0  0  0  0  0  0  0  0  0  0
   36.2001  -13.6954   35.9999 H   0  0  0  0  0  0  0  0  0  0  0  0
   34.1051   -7.8846   36.1555 F   0  0  0  0  0  0  0  0  0  0  0  0
   34.2256   -9.1955   36.4919 C   0  0  0  0  0  0  0  0  0  0  0  0
   33.4201   -9.7772   37.4437 C   0  0  0  0  0  0  0  0  0  0  0  0
   33.5744  -11.1218   37.7603 C   0  0  0  0  0  0  0  0  0  0  0  0
   34.5199  -11.8966   37.1428 C   0  0  0  0  0  0  0  0  0  0  0  0
   35.3323  -11.3025   36.1805 C   0  0  0  0  0  0  0  0  0  0  0  0
   35.1752   -9.9898   35.8773 C   0  0  0  0  0  0  0  0  0  0  0  0
 21 22  1  0  0  0
 22 23  2  0  0  0
 23 24  1  0  0  0
 24 25  2  0  0  0
 25 26  1  0  0  0
 26 27  2  0  0  0
 25 17  1  0  0  0
 17 18  2  0  0  0
 17 19  1  0  0  0
 19  1  1  0  0  0
  1  2  1  0  0  0
  2  3  1  0  0  0
  3  4  1  0  0  0
  4  5  1  0  0  0
  4  6  1  0  0  0
  6  7  2  0  0  0
  7  8  1  0  0  0
  8  9  2  0  0  0
  9 10  1  0  0  0
  8 11  1  0  0  0
 11 12  2  0  0  0
 12 13  1  0  0  0
 13 14  2  0  0  0
 14 15  1  0  0  0
 15 16  2  0  0  0
 27 22  1  0  0  0
  5  1  1  0  0  0
 10  6  1  0  0  0
 16 11  1  0  0  0
 19 20  1  0  0  0
M  END
> <minimizedAffinity>
-6.98819

> <CNNscore>
0.3428367674

> <CNNaffinity>
5.0288414955

> <CNN_VS>
1.7240717411

> <CNNaffinity_variance>
0.0978612676

$$$$
[H]c1sc(N2C([H])([H])C([H])([H])[C@@]([H])(N([H])C(=O)c3c([H])c([H])c(F)c([H])c3[H])C2([H])[H])nc1-c1c([H])c([H])c([H])c([H])c1[H]


 27 30  0  0  0  0  0  0  0  0999 V2000
   37.2772  -18.3607   35.1948 C   0  0  0  0  0  0  0  0  0  0  0  0
   36.1983  -19.3909   35.3188 C   0  0  0  0  0  0  0  0  0  0  0  0
   36.6434  -20.3075   36.4332 C   0  0  0  0  0  0  0  0  0  0  0  0
   38.0490  -20.0193   36.5455 N   0  0  0  0  0  0  0  0  0  0  0  0
   38.1992  -18.5951   36.3998 C   0  0  0  0  0  0  0  0  0  0  0  0
   39.1618  -20.9144   36.7644 C   0  0  0  0  0  0  0  0  0  0  0  0
   39.3268  -21.7721   37.7450 N   0  0  0  0  0  0  0  0  0  0  0  0
   40.4035  -22.5184   37.7957 C   0  0  0  0  0  0  0  0  0  0  0  0
   41.3171  -22.3428   36.7799 C   0  0  0  0  0  0  0  0  0  0  0  0
   40.5767  -21.1356   35.8366 S   0  0  0  0  0  0  0  0  0  0  0  0
   40.6200  -23.4985   38.8994 C   0  0  0  0  0  0  0  0  0  0  0  0
   41.6600  -24.3982   38.8903 C   0  0  0  0  0  0  0  0  0  0  0  0
   41.8579  -25.3047   39.9169 C   0  0  0  0  0  0  0  0  0  0  0  0
   40.9899  -25.3149   40.9895 C   0  0  0  0  0  0  0  0  0  0  0  0
   39.9494  -24.4295   41.0195 C   0  0  0  0  0  0  0  0  0  0  0  0
   39.7668  -23.5232   39.9743 C   0  0  0  0  0  0  0  0  0  0  0  0
   36.1089  -16.6103   36.4486 C   0  0  0  0  0  0  0  0  0  0  0  0
   35.8694  -17.4174   37.4064 O   0  0  0  0  0  0  0  0  0  0  0  0
   36.8089  -16.9971   35.2990 N   0  0  0  0  0  0  0  0  0  0  0  0
   37.0000  -16.3486   34.5340 H   0  0  0  0  0  0  0  0  0  0  0  0
   34.3590  -11.2950   36.9899 F   0  0  0  0  0  0  0  0  0  0  0  0
   34.7525  -12.5884   36.8538 C   0  0  0  0  0  0  0  0  0  0  0  0
   33.8566  -13.5929   36.5681 C   0  0  0  0  0  0  0  0  0  0  0  0
   34.2983  -14.9043   36.4368 C   0  0  0  0  0  0  0  0  0  0  0  0
   35.6199  -15.2308   36.5860 C   0  0  0  0  0  0  0  0  0  0  0  0
   36.5219  -14.2101   36.8752 C   0  0  0  0  0  0  0  0  0  0  0  0
   36.0827  -12.9330   37.0016 C   0  0  0  0  0  0  0  0  0  0  0  0
 21 22  1  0  0  0
 22 23  2  0  0  0
 23 24  1  0  0  0
 24 25  2  0  0  0
 25 26  1  0  0  0
 26 27  2  0  0  0
 25 17  1  0  0  0
 17 18  2  0  0  0
 17 19  1  0  0  0
 19  1  1  0  0  0
  1  2  1  0  0  0
  2  3  1  0  0  0
  3  4  1  0  0  0
  4  5  1  0  0  0
  4  6  1  0  0  0
  6  7  2  0  0  0
  7  8  1  0  0  0
  8  9  2  0  0  0
  9 10  1  0  0  0
  8 11  1  0  0  0
 11 12  2  0  0  0
 12 13  1  0  0  0
 13 14  2  0  0  0
 14 15  1  0  0  0
 15 16  2  0  0  0
 27 22  1  0  0  0
  5  1  1  0  0  0
 10  6  1  0  0  0
 16 11  1  0  0  0
 19 20  1  0  0  0
M  END
> <minimizedAffinity>
-5.55547

> <CNNscore>
0.3403621912

> <CNNaffinity>
4.6277351379

> <CNN_VS>
1.5751060247

> <CNNaffinity_variance>
0.2567600310

$$$$
[H]O[C@]1([H])C([H])([H])C([H])([H])[C@@]([H])(n2c([H])c(-c3c([H])c([H])c(S(=O)(=O)N4C([H])([H])C([H])([H])N(C([H])([H])[H])C([H])([H])C4([H])[H])c([H])c3[H])c3c([H])nc(N([H])C([H])([H])C([H])([H])C([H])([H])C([H])([H])[H])nc32)C([H])([H])C1([H])[H]


 39 43  0  0  0  0  0  0  0  0999 V2000
   36.1710  -19.1606   36.4175 C   0  0  0  0  0  0  0  0  0  0  0  0
   37.3514  -19.2761   37.0570 N   0  0  0  0  0  0  0  0  0  0  0  0
   37.6152  -20.2074   37.9657 C   0  0  0  0  0  0  0  0  0  0  0  0
   36.6212  -21.1335   38.2924 C   0  0  0  0  0  0  0  0  0  0  0  0
   36.5253  -22.1883   39.1411 C   0  0  0  0  0  0  0  0  0  0  0  0
   35.2679  -22.6949   38.9929 C   0  0  0  0  0  0  0  0  0  0  0  0
   34.5670  -21.9998   38.0831 N   0  0  0  0  0  0  0  0  0  0  0  0
   35.4098  -21.0207   37.6410 C   0  0  0  0  0  0  0  0  0  0  0  0
   35.2129  -20.0514   36.7311 N   0  0  0  0  0  0  0  0  0  0  0  0
   33.2013  -22.2005   37.6265 C   0  0  0  0  0  0  0  0  0  0  0  0
   33.1627  -22.8203   36.2553 C   0  0  0  0  0  0  0  0  0  0  0  0
   32.4282  -24.1304   36.2175 C   0  0  0  0  0  0  0  0  0  0  0  0
   31.0739  -24.0799   36.8541 C   0  0  0  0  0  0  0  0  0  0  0  0
   30.1141  -23.5008   36.0261 O   0  0  0  0  0  0  0  0  0  0  0  0
   31.0858  -23.3908   38.1955 C   0  0  0  0  0  0  0  0  0  0  0  0
   32.5197  -23.1563   38.5914 C   0  0  0  0  0  0  0  0  0  0  0  0
   29.6604  -24.1922   35.4918 H   0  0  0  0  0  0  0  0  0  0  0  0
   37.5540  -22.6934   40.0372 C   0  0  0  0  0  0  0  0  0  0  0  0
   37.8496  -24.0399   40.1420 C   0  0  0  0  0  0  0  0  0  0  0  0
   38.8315  -24.4936   40.9982 C   0  0  0  0  0  0  0  0  0  0  0  0
   39.5695  -23.6423   41.7925 C   0  0  0  0  0  0  0  0  0  0  0  0
   39.2821  -22.2976   41.6952 C   0  0  0  0  0  0  0  0  0  0  0  0
   38.3027  -21.8417   40.8416 C   0  0  0  0  0  0  0  0  0  0  0  0
   40.8159  -24.2170   42.8786 S   0  0  0  0  0  0  0  0  0  0  0  0
   41.0376  -23.1674   43.9170 O   0  0  0  0  0  0  0  0  0  0  0  0
   40.2952  -25.4839   43.5111 O   0  0  0  0  0  0  0  0  0  0  0  0
   42.2199  -24.5834   41.9894 N   0  0  0  0  0  0  0  0  0  0  0  0
   43.4090  -24.7083   42.7572 C   0  0  0  0  0  0  0  0  0  0  0  0
   43.9279  -23.3952   43.1942 C   0  0  0  0  0  0  0  0  0  0  0  0
   43.8570  -22.3258   42.2962 N   0  0  0  0  0  0  0  0  0  0  0  0
   44.0269  -21.0214   42.8296 C   0  0  0  0  0  0  0  0  0  0  0  0
   43.0862  -22.4430   41.1358 C   0  0  0  0  0  0  0  0  0  0  0  0
   42.4650  -23.7558   40.8551 C   0  0  0  0  0  0  0  0  0  0  0  0
   35.9509  -18.1363   35.4499 N   0  0  0  0  0  0  0  0  0  0  0  0
   36.3743  -18.2664   34.5101 H   0  0  0  0  0  0  0  0  0  0  0  0
   35.1826  -16.9570   35.7198 C   0  0  0  0  0  0  0  0  0  0  0  0
   35.9771  -15.7435   36.0718 C   0  0  0  0  0  0  0  0  0  0  0  0
   37.3687  -14.6454   37.8334 C   0  0  0  0  0  0  0  0  0  0  0  0
   36.3277  -15.6846   37.5437 C   0  0  0  0  0  0  0  0  0  0  0  0
 38 39  1  0  0  0
 39 37  1  0  0  0
 37 36  1  0  0  0
 36 34  1  0  0  0
 34  1  1  0  0  0
  1  2  2  0  0  0
  2  3  1  0  0  0
  3  4  2  0  0  0
  4  5  1  0  0  0
  5  6  2  0  0  0
  6  7  1  0  0  0
  7 10  1  0  0  0
 10 11  1  0  0  0
 11 12  1  0  0  0
 12 13  1  0  0  0
 13 14  1  0  0  0
 13 15  1  0  0  0
 15 16  1  0  0  0
  7  8  1  0  0  0
  8  9  2  0  0  0
  5 18  1  0  0  0
 18 19  2  0  0  0
 19 20  1  0  0  0
 20 21  2  0  0  0
 21 22  1  0  0  0
 22 23  2  0  0  0
 21 24  1  0  0  0
 24 25  2  0  0  0
 24 26  2  0  0  0
 24 27  1  0  0  0
 27 28  1  0  0  0
 28 29  1  0  0  0
 29 30  1  0  0  0
 30 31  1  0  0  0
 30 32  1  0  0  0
 32 33  1  0  0  0
  9  1  1  0  0  0
 23 18  1  0  0  0
 33 27  1  0  0  0
  8  4  1  0  0  0
 16 10  1  0  0  0
 34 35  1  0  0  0
 14 17  1  0  0  0
M  END
> <minimizedAffinity>
-3.80307

> <CNNscore>
0.4851110280

> <CNNaffinity>
5.6102409363

> <CNN_VS>
2.7215898037

> <CNNaffinity_variance>
0.0165638290

$$$$
[H]O[C@]1([H])C([H])([H])C([H])([H])[C@@]([H])(n2c([H])c(-c3c([H])c([H])c(S(=O)(=O)N4C([H])([H])C([H])([H])N(C([H])([H])[H])C([H])([H])C4([H])[H])c([H])c3[H])c3c([H])nc(N([H])C([H])([H])C([H])([H])C([H])([H])C([H])([H])[H])nc32)C([H])([H])C1([H])[H]


 39 43  0  0  0  0  0  0  0  0999 V2000
   37.8659  -18.7957   35.5775 C   0  0  0  0  0  0  0  0  0  0  0  0
   36.6167  -19.0504   36.0138 N   0  0  0  0  0  0  0  0  0  0  0  0
   36.3406  -19.7633   37.0992 C   0  0  0  0  0  0  0  0  0  0  0  0
   37.3960  -20.2901   37.8482 C   0  0  0  0  0  0  0  0  0  0  0  0
   37.5009  -21.0410   38.9739 C   0  0  0  0  0  0  0  0  0  0  0  0
   38.8335  -21.2265   39.1961 C   0  0  0  0  0  0  0  0  0  0  0  0
   39.5733  -20.6212   38.2534 N   0  0  0  0  0  0  0  0  0  0  0  0
   38.6780  -20.0329   37.4067 C   0  0  0  0  0  0  0  0  0  0  0  0
   38.8831  -19.3023   36.2975 N   0  0  0  0  0  0  0  0  0  0  0  0
   41.0195  -20.5693   38.1134 C   0  0  0  0  0  0  0  0  0  0  0  0
   41.5435  -19.1716   38.3075 C   0  0  0  0  0  0  0  0  0  0  0  0
   42.5356  -19.0612   39.4304 C   0  0  0  0  0  0  0  0  0  0  0  0
   43.6362  -20.0740   39.3631 C   0  0  0  0  0  0  0  0  0  0  0  0
   44.6219  -19.7332   38.4388 O   0  0  0  0  0  0  0  0  0  0  0  0
   43.1296  -21.4681   39.0909 C   0  0  0  0  0  0  0  0  0  0  0  0
   41.6271  -21.4507   39.1918 C   0  0  0  0  0  0  0  0  0  0  0  0
   45.3389  -19.2195   38.8762 H   0  0  0  0  0  0  0  0  0  0  0  0
   36.4146  -21.5529   39.7949 C   0  0  0  0  0  0  0  0  0  0  0  0
   35.6182  -20.7286   40.5682 C   0  0  0  0  0  0  0  0  0  0  0  0
   34.5925  -21.2386   41.3369 C   0  0  0  0  0  0  0  0  0  0  0  0
   34.3020  -22.5854   41.3807 C   0  0  0  0  0  0  0  0  0  0  0  0
   35.0905  -23.4156   40.6131 C   0  0  0  0  0  0  0  0  0  0  0  0
   36.1150  -22.9097   39.8448 C   0  0  0  0  0  0  0  0  0  0  0  0
   33.0004  -23.2332   42.3553 S   0  0  0  0  0  0  0  0  0  0  0  0
   33.0836  -24.7228   42.2981 O   0  0  0  0  0  0  0  0  0  0  0  0
   33.2249  -22.7455   43.7652 O   0  0  0  0  0  0  0  0  0  0  0  0
   31.5132  -22.6256   41.7937 N   0  0  0  0  0  0  0  0  0  0  0  0
   30.5549  -22.3388   42.8029 C   0  0  0  0  0  0  0  0  0  0  0  0
   29.9414  -23.5668   43.3506 C   0  0  0  0  0  0  0  0  0  0  0  0
   29.6442  -24.6073   42.4650 N   0  0  0  0  0  0  0  0  0  0  0  0
   29.3891  -25.8841   43.0301 C   0  0  0  0  0  0  0  0  0  0  0  0
   30.1528  -24.5781   41.1632 C   0  0  0  0  0  0  0  0  0  0  0  0
   30.8989  -23.3709   40.7455 C   0  0  0  0  0  0  0  0  0  0  0  0
   38.0955  -18.0214   34.4021 N   0  0  0  0  0  0  0  0  0  0  0  0
   37.5175  -17.1682   34.2702 H   0  0  0  0  0  0  0  0  0  0  0  0
   39.0746  -18.3690   33.4149 C   0  0  0  0  0  0  0  0  0  0  0  0
   39.2260  -19.8305   33.1521 C   0  0  0  0  0  0  0  0  0  0  0  0
   41.6181  -19.1765   33.4616 C   0  0  0  0  0  0  0  0  0  0  0  0
   40.6469  -20.3135   33.3534 C   0  0  0  0  0  0  0  0  0  0  0  0
 38 39  1  0  0  0
 39 37  1  0  0  0
 37 36  1  0  0  0
 36 34  1  0  0  0
 34  1  1  0  0  0
  1  2  2  0  0  0
  2  3  1  0  0  0
  3  4  2  0  0  0
  4  5  1  0  0  0
  5  6  2  0  0  0
  6  7  1  0  0  0
  7 10  1  0  0  0
 10 11  1  0  0  0
 11 12  1  0  0  0
 12 13  1  0  0  0
 13 14  1  0  0  0
 13 15  1  0  0  0
 15 16  1  0  0  0
  7  8  1  0  0  0
  8  9  2  0  0  0
  5 18  1  0  0  0
 18 19  2  0  0  0
 19 20  1  0  0  0
 20 21  2  0  0  0
 21 22  1  0  0  0
 22 23  2  0  0  0
 21 24  1  0  0  0
 24 25  2  0  0  0
 24 26  2  0  0  0
 24 27  1  0  0  0
 27 28  1  0  0  0
 28 29  1  0  0  0
 29 30  1  0  0  0
 30 31  1  0  0  0
 30 32  1  0  0  0
 32 33  1  0  0  0
  9  1  1  0  0  0
 23 18  1  0  0  0
 33 27  1  0  0  0
  8  4  1  0  0  0
 16 10  1  0  0  0
 34 35  1  0  0  0
 14 17  1  0  0  0
M  END
> <minimizedAffinity>
-4.28438

> <CNNscore>
0.4792073667

> <CNNaffinity>
5.8593702316

> <CNN_VS>
2.8078534603

> <CNNaffinity_variance>
0.1306835711

$$$$
[H]O[C@]1([H])C([H])([H])C([H])([H])[C@@]([H])(n2c([H])c(-c3c([H])c([H])c(S(=O)(=O)N4C([H])([H])C([H])([H])N(C([H])([H])[H])C([H])([H])C4([H])[H])c([H])c3[H])c3c([H])nc(N([H])C([H])([H])C([H])([H])C([H])([H])C([H])([H])[H])nc32)C([H])([H])C1([H])[H]


 39 43  0  0  0  0  0  0  0  0999 V2000
   40.9626  -23.2788   33.5387 C   0  0  0  0  0  0  0  0  0  0  0  0
   40.0750  -23.8460   34.3790 N   0  0  0  0  0  0  0  0  0  0  0  0
   39.7735  -23.3614   35.5777 C   0  0  0  0  0  0  0  0  0  0  0  0
   40.4044  -22.1929   36.0124 C   0  0  0  0  0  0  0  0  0  0  0  0
   40.3555  -21.4285   37.1328 C   0  0  0  0  0  0  0  0  0  0  0  0
   41.2294  -20.3994   36.9411 C   0  0  0  0  0  0  0  0  0  0  0  0
   41.8278  -20.4855   35.7424 N   0  0  0  0  0  0  0  0  0  0  0  0
   41.3146  -21.6069   35.1564 C   0  0  0  0  0  0  0  0  0  0  0  0
   41.5709  -22.1538   33.9558 N   0  0  0  0  0  0  0  0  0  0  0  0
   42.8167  -19.6037   35.1440 C   0  0  0  0  0  0  0  0  0  0  0  0
   42.1709  -18.5600   34.2724 C   0  0  0  0  0  0  0  0  0  0  0  0
   42.4771  -17.1543   34.7053 C   0  0  0  0  0  0  0  0  0  0  0  0
   43.9364  -16.8930   34.9142 C   0  0  0  0  0  0  0  0  0  0  0  0
   44.6208  -16.6894   33.7174 O   0  0  0  0  0  0  0  0  0  0  0  0
   44.6123  -17.9730   35.7211 C   0  0  0  0  0  0  0  0  0  0  0  0
   43.5480  -18.8879   36.2673 C   0  0  0  0  0  0  0  0  0  0  0  0
   44.6449  -15.7306   33.4953 H   0  0  0  0  0  0  0  0  0  0  0  0
   39.5350  -21.6490   38.3137 C   0  0  0  0  0  0  0  0  0  0  0  0
   38.2120  -21.2532   38.3813 C   0  0  0  0  0  0  0  0  0  0  0  0
   37.4543  -21.4757   39.5124 C   0  0  0  0  0  0  0  0  0  0  0  0
   37.9637  -22.0990   40.6315 C   0  0  0  0  0  0  0  0  0  0  0  0
   39.2821  -22.4973   40.5738 C   0  0  0  0  0  0  0  0  0  0  0  0
   40.0410  -22.2767   39.4464 C   0  0  0  0  0  0  0  0  0  0  0  0
   37.0028  -22.3823   42.0668 S   0  0  0  0  0  0  0  0  0  0  0  0
   37.8037  -21.9428   43.2477 O   0  0  0  0  0  0  0  0  0  0  0  0
   35.7566  -21.5427   41.9318 O   0  0  0  0  0  0  0  0  0  0  0  0
   36.5555  -24.0228   42.1367 N   0  0  0  0  0  0  0  0  0  0  0  0
   35.8748  -24.5155   40.9908 C   0  0  0  0  0  0  0  0  0  0  0  0
   34.4732  -24.0496   40.9350 C   0  0  0  0  0  0  0  0  0  0  0  0
   33.7502  -23.9887   42.1303 N   0  0  0  0  0  0  0  0  0  0  0  0
   32.5523  -23.2274   42.1231 C   0  0  0  0  0  0  0  0  0  0  0  0
   34.4170  -24.1139   43.3527 C   0  0  0  0  0  0  0  0  0  0  0  0
   35.8630  -24.4234   43.3163 C   0  0  0  0  0  0  0  0  0  0  0  0
   41.2421  -23.8500   32.2622 N   0  0  0  0  0  0  0  0  0  0  0  0
   41.6977  -23.2410   31.5544 H   0  0  0  0  0  0  0  0  0  0  0  0
   40.9246  -25.2064   31.9254 C   0  0  0  0  0  0  0  0  0  0  0  0
   41.6258  -25.7473   30.7239 C   0  0  0  0  0  0  0  0  0  0  0  0
   43.6075  -25.2140   29.2978 C   0  0  0  0  0  0  0  0  0  0  0  0
   42.3714  -24.6772   29.9547 C   0  0  0  0  0  0  0  0  0  0  0  0
 38 39  1  0  0  0
 39 37  1  0  0  0
 37 36  1  0  0  0
 36 34  1  0  0  0
 34  1  1  0  0  0
  1  2  2  0  0  0
  2  3  1  0  0  0
  3  4  2  0  0  0
  4  5  1  0  0  0
  5  6  2  0  0  0
  6  7  1  0  0  0
  7 10  1  0  0  0
 10 11  1  0  0  0
 11 12  1  0  0  0
 12 13  1  0  0  0
 13 14  1  0  0  0
 13 15  1  0  0  0
 15 16  1  0  0  0
  7  8  1  0  0  0
  8  9  2  0  0  0
  5 18  1  0  0  0
 18 19  2  0  0  0
 19 20  1  0  0  0
 20 21  2  0  0  0
 21 22  1  0  0  0
 22 23  2  0  0  0
 21 24  1  0  0  0
 24 25  2  0  0  0
 24 26  2  0  0  0
 24 27  1  0  0  0
 27 28  1  0  0  0
 28 29  1  0  0  0
 29 30  1  0  0  0
 30 31  1  0  0  0
 30 32  1  0  0  0
 32 33  1  0  0  0
  9  1  1  0  0  0
 23 18  1  0  0  0
 33 27  1  0  0  0
  8  4  1  0  0  0
 16 10  1  0  0  0
 34 35  1  0  0  0
 14 17  1  0  0  0
M  END
> <minimizedAffinity>
-3.30059

> <CNNscore>
0.4700303078

> <CNNaffinity>
6.1336956024

> <CNN_VS>
2.8830227852

> <CNNaffinity_variance>
0.6907320619

$$$$
[H]O[C@]1([H])C([H])([H])C([H])([H])[C@@]([H])(n2c([H])c(-c3c([H])c([H])c(S(=O)(=O)N4C([H])([H])C([H])([H])N(C([H])([H])[H])C([H])([H])C4([H])[H])c([H])c3[H])c3c([H])nc(N([H])C([H])([H])C([H])([H])C([H])([H])C([H])([H])[H])nc32)C([H])([H])C1([H])[H]


 39 43  0  0  0  0  0  0  0  0999 V2000
   39.8298  -23.4341   34.1673 C   0  0  0  0  0  0  0  0  0  0  0  0
   38.8976  -23.8181   35.0613 N   0  0  0  0  0  0  0  0  0  0  0  0
   38.7375  -23.2572   36.2539 C   0  0  0  0  0  0  0  0  0  0  0  0
   39.5768  -22.2028   36.6230 C   0  0  0  0  0  0  0  0  0  0  0  0
   39.7094  -21.4117   37.7178 C   0  0  0  0  0  0  0  0  0  0  0  0
   40.7360  -20.5531   37.4564 C   0  0  0  0  0  0  0  0  0  0  0  0
   41.2562  -20.7724   36.2383 N   0  0  0  0  0  0  0  0  0  0  0  0
   40.5338  -21.8046   35.7118 C   0  0  0  0  0  0  0  0  0  0  0  0
   40.6388  -22.4191   34.5212 N   0  0  0  0  0  0  0  0  0  0  0  0
   42.3526  -20.0894   35.5711 C   0  0  0  0  0  0  0  0  0  0  0  0
   41.8617  -19.2421   34.4279 C   0  0  0  0  0  0  0  0  0  0  0  0
   42.2151  -17.7890   34.5728 C   0  0  0  0  0  0  0  0  0  0  0  0
   43.6617  -17.5486   34.8750 C   0  0  0  0  0  0  0  0  0  0  0  0
   44.4690  -17.6475   33.7434 O   0  0  0  0  0  0  0  0  0  0  0  0
   44.1863  -18.4471   35.9666 C   0  0  0  0  0  0  0  0  0  0  0  0
   43.0179  -19.1709   36.5823 C   0  0  0  0  0  0  0  0  0  0  0  0
   44.5760  -16.7648   33.3206 H   0  0  0  0  0  0  0  0  0  0  0  0
   38.9176  -21.4567   38.9373 C   0  0  0  0  0  0  0  0  0  0  0  0
   39.4556  -21.8230   40.1571 C   0  0  0  0  0  0  0  0  0  0  0  0
   38.6838  -21.8559   41.3000 C   0  0  0  0  0  0  0  0  0  0  0  0
   37.3445  -21.5295   41.2961 C   0  0  0  0  0  0  0  0  0  0  0  0
   36.7987  -21.1629   40.0845 C   0  0  0  0  0  0  0  0  0  0  0  0
   37.5664  -21.1291   38.9421 C   0  0  0  0  0  0  0  0  0  0  0  0
   36.3646  -21.5704   42.7459 S   0  0  0  0  0  0  0  0  0  0  0  0
   37.0613  -22.4339   43.7449 O   0  0  0  0  0  0  0  0  0  0  0  0
   36.2691  -20.1515   43.2497 O   0  0  0  0  0  0  0  0  0  0  0  0
   34.8019  -22.1231   42.3602 N   0  0  0  0  0  0  0  0  0  0  0  0
   34.1449  -21.4094   41.3220 C   0  0  0  0  0  0  0  0  0  0  0  0
   33.6564  -20.0910   41.7779 C   0  0  0  0  0  0  0  0  0  0  0  0
   33.1102  -19.9977   43.0616 N   0  0  0  0  0  0  0  0  0  0  0  0
   32.9710  -18.6968   43.6119 C   0  0  0  0  0  0  0  0  0  0  0  0
   33.2670  -21.0557   43.9619 C   0  0  0  0  0  0  0  0  0  0  0  0
   33.9163  -22.2884   43.4648 C   0  0  0  0  0  0  0  0  0  0  0  0
   39.9501  -24.0786   32.9009 N   0  0  0  0  0  0  0  0  0  0  0  0
   39.6736  -23.5360   32.0592 H   0  0  0  0  0  0  0  0  0  0  0  0
   40.4290  -25.4208   32.7483 C   0  0  0  0  0  0  0  0  0  0  0  0
   41.8662  -25.5467   32.3656 C   0  0  0  0  0  0  0  0  0  0  0  0
   43.4737  -23.6349   32.2857 C   0  0  0  0  0  0  0  0  0  0  0  0
   42.3650  -24.3538   31.5776 C   0  0  0  0  0  0  0  0  0  0  0  0
 38 39  1  0  0  0
 39 37  1  0  0  0
 37 36  1  0  0  0
 36 34  1  0  0  0
 34  1  1  0  0  0
  1  2  2  0  0  0
  2  3  1  0  0  0
  3  4  2  0  0  0
  4  5  1  0  0  0
  5  6  2  0  0  0
  6  7  1  0  0  0
  7 10  1  0  0  0
 10 11  1  0  0  0
 11 12  1  0  0  0
 12 13  1  0  0  0
 13 14  1  0  0  0
 13 15  1  0  0  0
 15 16  1  0  0  0
  7  8  1  0  0  0
  8  9  2  0  0  0
  5 18  1  0  0  0
 18 19  2  0  0  0
 19 20  1  0  0  0
 20 21  2  0  0  0
 21 22  1  0  0  0
 22 23  2  0  0  0
 21 24  1  0  0  0
 24 25  2  0  0  0
 24 26  2  0  0  0
 24 27  1  0  0  0
 27 28  1  0  0  0
 28 29  1  0  0  0
 29 30  1  0  0  0
 30 31  1  0  0  0
 30 32  1  0  0  0
 32 33  1  0  0  0
  9  1  1  0  0  0
 23 18  1  0  0  0
 33 27  1  0  0  0
  8  4  1  0  0  0
 16 10  1  0  0  0
 34 35  1  0  0  0
 14 17  1  0  0  0
M  END
> <minimizedAffinity>
-4.04822

> <CNNscore>
0.4034859538

> <CNNaffinity>
5.5866527557

> <CNN_VS>
2.2541358471

> <CNNaffinity_variance>
0.0423909202

$$$$
[H]O[C@]1([H])C([H])([H])C([H])([H])[C@@]([H])(n2c([H])c(-c3c([H])c([H])c(S(=O)(=O)N4C([H])([H])C([H])([H])N(C([H])([H])[H])C([H])([H])C4([H])[H])c([H])c3[H])c3c([H])nc(N([H])C([H])([H])C([H])([H])C([H])([H])C([H])([H])[H])nc32)C([H])([H])C1([H])[H]


 39 43  0  0  0  0  0  0  0  0999 V2000
   35.1524  -10.2735   35.9666 C   0  0  0  0  0  0  0  0  0  0  0  0
   36.0043  -11.1537   35.4051 N   0  0  0  0  0  0  0  0  0  0  0  0
   35.9906  -12.4587   35.6491 C   0  0  0  0  0  0  0  0  0  0  0  0
   35.0426  -12.9698   36.5392 C   0  0  0  0  0  0  0  0  0  0  0  0
   34.7339  -14.2011   37.0195 C   0  0  0  0  0  0  0  0  0  0  0  0
   33.6850  -14.0344   37.8747 C   0  0  0  0  0  0  0  0  0  0  0  0
   33.3201  -12.7448   37.9523 N   0  0  0  0  0  0  0  0  0  0  0  0
   34.1671  -12.0735   37.1178 C   0  0  0  0  0  0  0  0  0  0  0  0
   34.2391  -10.7640   36.8239 N   0  0  0  0  0  0  0  0  0  0  0  0
   32.2595  -12.1359   38.7385 C   0  0  0  0  0  0  0  0  0  0  0  0
   31.0788  -11.7663   37.8811 C   0  0  0  0  0  0  0  0  0  0  0  0
   29.8030  -12.4341   38.3095 C   0  0  0  0  0  0  0  0  0  0  0  0
   29.5089  -12.2895   39.7705 C   0  0  0  0  0  0  0  0  0  0  0  0
   28.9795  -11.0404   40.0892 O   0  0  0  0  0  0  0  0  0  0  0  0
   30.7073  -12.5818   40.6380 C   0  0  0  0  0  0  0  0  0  0  0  0
   31.7921  -13.1547   39.7644 C   0  0  0  0  0  0  0  0  0  0  0  0
   27.9958  -11.0670   40.0576 H   0  0  0  0  0  0  0  0  0  0  0  0
   35.3834  -15.4613   36.6933 C   0  0  0  0  0  0  0  0  0  0  0  0
   36.5948  -15.8353   37.2449 C   0  0  0  0  0  0  0  0  0  0  0  0
   37.1894  -17.0370   36.9207 C   0  0  0  0  0  0  0  0  0  0  0  0
   36.6191  -17.9284   36.0372 C   0  0  0  0  0  0  0  0  0  0  0  0
   35.4111  -17.5645   35.4818 C   0  0  0  0  0  0  0  0  0  0  0  0
   34.8151  -16.3658   35.8033 C   0  0  0  0  0  0  0  0  0  0  0  0
   37.3726  -19.4537   35.6258 S   0  0  0  0  0  0  0  0  0  0  0  0
   36.6664  -20.5312   36.3804 O   0  0  0  0  0  0  0  0  0  0  0  0
   37.1924  -19.6442   34.1401 O   0  0  0  0  0  0  0  0  0  0  0  0
   39.0371  -19.3771   35.9723 N   0  0  0  0  0  0  0  0  0  0  0  0
   39.8978  -19.7027   34.8896 C   0  0  0  0  0  0  0  0  0  0  0  0
   39.9344  -21.1568   34.6276 C   0  0  0  0  0  0  0  0  0  0  0  0
   39.9307  -22.0249   35.7238 N   0  0  0  0  0  0  0  0  0  0  0  0
   39.6174  -23.3857   35.4696 C   0  0  0  0  0  0  0  0  0  0  0  0
   39.6381  -21.5323   36.9990 C   0  0  0  0  0  0  0  0  0  0  0  0
   39.4555  -20.0716   37.1445 C   0  0  0  0  0  0  0  0  0  0  0  0
   35.2194   -8.8819   35.6619 N   0  0  0  0  0  0  0  0  0  0  0  0
   35.8669   -8.5882   34.9043 H   0  0  0  0  0  0  0  0  0  0  0  0
   34.4423   -7.8923   36.3480 C   0  0  0  0  0  0  0  0  0  0  0  0
   32.9838   -7.8926   36.0309 C   0  0  0  0  0  0  0  0  0  0  0  0
   31.0189   -9.1110   36.9798 C   0  0  0  0  0  0  0  0  0  0  0  0
   32.1229   -8.1342   37.2530 C   0  0  0  0  0  0  0  0  0  0  0  0
 38 39  1  0  0  0
 39 37  1  0  0  0
 37 36  1  0  0  0
 36 34  1  0  0  0
 34  1  1  0  0  0
  1  2  2  0  0  0
  2  3  1  0  0  0
  3  4  2  0  0  0
  4  5  1  0  0  0
  5  6  2  0  0  0
  6  7  1  0  0  0
  7 10  1  0  0  0
 10 11  1  0  0  0
 11 12  1  0  0  0
 12 13  1  0  0  0
 13 14  1  0  0  0
 13 15  1  0  0  0
 15 16  1  0  0  0
  7  8  1  0  0  0
  8  9  2  0  0  0
  5 18  1  0  0  0
 18 19  2  0  0  0
 19 20  1  0  0  0
 20 21  2  0  0  0
 21 22  1  0  0  0
 22 23  2  0  0  0
 21 24  1  0  0  0
 24 25  2  0  0  0
 24 26  2  0  0  0
 24 27  1  0  0  0
 27 28  1  0  0  0
 28 29  1  0  0  0
 29 30  1  0  0  0
 30 31  1  0  0  0
 30 32  1  0  0  0
 32 33  1  0  0  0
  9  1  1  0  0  0
 23 18  1  0  0  0
 33 27  1  0  0  0
  8  4  1  0  0  0
 16 10  1  0  0  0
 34 35  1  0  0  0
 14 17  1  0  0  0
M  END
> <minimizedAffinity>
-6.99300

> <CNNscore>
0.3689995408

> <CNNaffinity>
7.1874299049

> <CNN_VS>
2.6521582603

> <CNNaffinity_variance>
0.1906768829

$$$$
[H]O[C@]1([H])C([H])([H])C([H])([H])[C@@]([H])(n2c([H])c(-c3c([H])c([H])c(S(=O)(=O)N4C([H])([H])C([H])([H])N(C([H])([H])[H])C([H])([H])C4([H])[H])c([H])c3[H])c3c([H])nc(N([H])C([H])([H])C([H])([H])C([H])([H])C([H])([H])[H])nc32)C([H])([H])C1([H])[H]


 39 43  0  0  0  0  0  0  0  0999 V2000
   35.8900  -24.4564   38.9103 C   0  0  0  0  0  0  0  0  0  0  0  0
   35.1372  -23.3443   39.0217 N   0  0  0  0  0  0  0  0  0  0  0  0
   35.3970  -22.2060   38.3899 C   0  0  0  0  0  0  0  0  0  0  0  0
   36.5146  -22.1369   37.5540 C   0  0  0  0  0  0  0  0  0  0  0  0
   37.0791  -21.1809   36.7733 C   0  0  0  0  0  0  0  0  0  0  0  0
   38.1788  -21.7462   36.1984 C   0  0  0  0  0  0  0  0  0  0  0  0
   38.3295  -23.0224   36.5865 N   0  0  0  0  0  0  0  0  0  0  0  0
   37.2898  -23.2725   37.4356 C   0  0  0  0  0  0  0  0  0  0  0  0
   36.9663  -24.3915   38.1060 N   0  0  0  0  0  0  0  0  0  0  0  0
   39.3587  -23.9800   36.2154 C   0  0  0  0  0  0  0  0  0  0  0  0
   39.8541  -23.7433   34.8139 C   0  0  0  0  0  0  0  0  0  0  0  0
   41.3300  -23.4706   34.7451 C   0  0  0  0  0  0  0  0  0  0  0  0
   42.1628  -24.4766   35.4774 C   0  0  0  0  0  0  0  0  0  0  0  0
   42.3322  -25.6576   34.7573 O   0  0  0  0  0  0  0  0  0  0  0  0
   41.6313  -24.7809   36.8555 C   0  0  0  0  0  0  0  0  0  0  0  0
   40.5322  -23.7985   37.1635 C   0  0  0  0  0  0  0  0  0  0  0  0
   43.1518  -25.6128   34.2136 H   0  0  0  0  0  0  0  0  0  0  0  0
   36.6129  -19.8170   36.5762 C   0  0  0  0  0  0  0  0  0  0  0  0
   36.3124  -19.3100   35.3255 C   0  0  0  0  0  0  0  0  0  0  0  0
   35.8699  -18.0133   35.1652 C   0  0  0  0  0  0  0  0  0  0  0  0
   35.7022  -17.1535   36.2295 C   0  0  0  0  0  0  0  0  0  0  0  0
   35.9994  -17.6497   37.4808 C   0  0  0  0  0  0  0  0  0  0  0  0
   36.4412  -18.9434   37.6441 C   0  0  0  0  0  0  0  0  0  0  0  0
   35.1403  -15.5083   36.0271 S   0  0  0  0  0  0  0  0  0  0  0  0
   35.9523  -14.8773   34.9446 O   0  0  0  0  0  0  0  0  0  0  0  0
   33.6896  -15.5882   35.6206 O   0  0  0  0  0  0  0  0  0  0  0  0
   35.2506  -14.6832   37.5115 N   0  0  0  0  0  0  0  0  0  0  0  0
   34.1719  -13.8041   37.7987 C   0  0  0  0  0  0  0  0  0  0  0  0
   34.2447  -12.5588   37.0060 C   0  0  0  0  0  0  0  0  0  0  0  0
   35.5011  -11.9814   36.7985 N   0  0  0  0  0  0  0  0  0  0  0  0
   35.6038  -11.0090   35.7697 C   0  0  0  0  0  0  0  0  0  0  0  0
   36.6573  -12.7034   37.1089 C   0  0  0  0  0  0  0  0  0  0  0  0
   36.4886  -14.0216   37.7587 C   0  0  0  0  0  0  0  0  0  0  0  0
   35.5560  -25.6495   39.6167 N   0  0  0  0  0  0  0  0  0  0  0  0
   35.0129  -26.3726   39.1054 H   0  0  0  0  0  0  0  0  0  0  0  0
   35.9343  -25.8842   40.9790 C   0  0  0  0  0  0  0  0  0  0  0  0
   36.8527  -24.8676   41.5712 C   0  0  0  0  0  0  0  0  0  0  0  0
   36.7312  -22.5808   42.5719 C   0  0  0  0  0  0  0  0  0  0  0  0
   36.1565  -23.9654   42.5683 C   0  0  0  0  0  0  0  0  0  0  0  0
 38 39  1  0  0  0
 39 37  1  0  0  0
 37 36  1  0  0  0
 36 34  1  0  0  0
 34  1  1  0  0  0
  1  2  2  0  0  0
  2  3  1  0  0  0
  3  4  2  0  0  0
  4  5  1  0  0  0
  5  6  2  0  0  0
  6  7  1  0  0  0
  7 10  1  0  0  0
 10 11  1  0  0  0
 11 12  1  0  0  0
 12 13  1  0  0  0
 13 14  1  0  0  0
 13 15  1  0  0  0
 15 16  1  0  0  0
  7  8  1  0  0  0
  8  9  2  0  0  0
  5 18  1  0  0  0
 18 19  2  0  0  0
 19 20  1  0  0  0
 20 21  2  0  0  0
 21 22  1  0  0  0
 22 23  2  0  0  0
 21 24  1  0  0  0
 24 25  2  0  0  0
 24 26  2  0  0  0
 24 27  1  0  0  0
 27 28  1  0  0  0
 28 29  1  0  0  0
 29 30  1  0  0  0
 30 31  1  0  0  0
 30 32  1  0  0  0
 32 33  1  0  0  0
  9  1  1  0  0  0
 23 18  1  0  0  0
 33 27  1  0  0  0
  8  4  1  0  0  0
 16 10  1  0  0  0
 34 35  1  0  0  0
 14 17  1  0  0  0
M  END
> <minimizedAffinity>
-3.52544

> <CNNscore>
0.3620801568

> <CNNaffinity>
6.1395235062

> <CNN_VS>
2.2229995728

> <CNNaffinity_variance>
0.6509956121

$$$$
[H]O[C@]1([H])C([H])([H])C([H])([H])[C@@]([H])(n2c([H])c(-c3c([H])c([H])c(S(=O)(=O)N4C([H])([H])C([H])([H])N(C([H])([H])[H])C([H])([H])C4([H])[H])c([H])c3[H])c3c([H])nc(N([H])C([H])([H])C([H])([H])C([H])([H])C([H])([H])[H])nc32)C([H])([H])C1([H])[H]


 39 43  0  0  0  0  0  0  0  0999 V2000
   40.0984  -23.3006   34.3016 C   0  0  0  0  0  0  0  0  0  0  0  0
   38.8444  -23.6981   34.5936 N   0  0  0  0  0  0  0  0  0  0  0  0
   38.1713  -23.3018   35.6670 C   0  0  0  0  0  0  0  0  0  0  0  0
   38.7832  -22.4187   36.5604 C   0  0  0  0  0  0  0  0  0  0  0  0
   38.4232  -21.8165   37.7223 C   0  0  0  0  0  0  0  0  0  0  0  0
   39.4856  -21.0560   38.1128 C   0  0  0  0  0  0  0  0  0  0  0  0
   40.5021  -21.1555   37.2416 N   0  0  0  0  0  0  0  0  0  0  0  0
   40.0676  -22.0077   36.2672 C   0  0  0  0  0  0  0  0  0  0  0  0
   40.6890  -22.4505   35.1608 N   0  0  0  0  0  0  0  0  0  0  0  0
   41.8077  -20.5167   37.2765 C   0  0  0  0  0  0  0  0  0  0  0  0
   41.9376  -19.4663   36.2061 C   0  0  0  0  0  0  0  0  0  0  0  0
   42.2368  -18.0986   36.7512 C   0  0  0  0  0  0  0  0  0  0  0  0
   43.3839  -18.0715   37.7130 C   0  0  0  0  0  0  0  0  0  0  0  0
   44.6210  -18.1030   37.0721 O   0  0  0  0  0  0  0  0  0  0  0  0
   43.3059  -19.1689   38.7444 C   0  0  0  0  0  0  0  0  0  0  0  0
   41.9592  -19.8323   38.6246 C   0  0  0  0  0  0  0  0  0  0  0  0
   44.9454  -17.1880   36.9082 H   0  0  0  0  0  0  0  0  0  0  0  0
   37.1555  -21.9449   38.4242 C   0  0  0  0  0  0  0  0  0  0  0  0
   36.0249  -21.2444   38.0464 C   0  0  0  0  0  0  0  0  0  0  0  0
   34.8336  -21.3852   38.7275 C   0  0  0  0  0  0  0  0  0  0  0  0
   34.6988  -22.2230   39.8139 C   0  0  0  0  0  0  0  0  0  0  0  0
   35.8206  -22.9258   40.1984 C   0  0  0  0  0  0  0  0  0  0  0  0
   37.0110  -22.7875   39.5206 C   0  0  0  0  0  0  0  0  0  0  0  0
   33.1875  -22.4027   40.6782 S   0  0  0  0  0  0  0  0  0  0  0  0
   32.0892  -22.4761   39.6694 O   0  0  0  0  0  0  0  0  0  0  0  0
   33.2782  -23.6929   41.4549 O   0  0  0  0  0  0  0  0  0  0  0  0
   33.0025  -21.1135   41.7738 N   0  0  0  0  0  0  0  0  0  0  0  0
   34.0282  -20.1310   41.7334 C   0  0  0  0  0  0  0  0  0  0  0  0
   35.2749  -20.6037   42.3712 C   0  0  0  0  0  0  0  0  0  0  0  0
   35.1705  -21.3703   43.5359 N   0  0  0  0  0  0  0  0  0  0  0  0
   36.3212  -22.0986   43.9357 C   0  0  0  0  0  0  0  0  0  0  0  0
   33.9280  -21.8821   43.9216 C   0  0  0  0  0  0  0  0  0  0  0  0
   32.7460  -21.4852   43.1256 C   0  0  0  0  0  0  0  0  0  0  0  0
   40.7674  -23.7637   33.1303 N   0  0  0  0  0  0  0  0  0  0  0  0
   40.7287  -23.1592   32.2862 H   0  0  0  0  0  0  0  0  0  0  0  0
   41.4775  -25.0073   33.0747 C   0  0  0  0  0  0  0  0  0  0  0  0
   41.8675  -25.4598   31.7069 C   0  0  0  0  0  0  0  0  0  0  0  0
   43.0209  -24.6266   29.6524 C   0  0  0  0  0  0  0  0  0  0  0  0
   43.0423  -24.6833   31.1504 C   0  0  0  0  0  0  0  0  0  0  0  0
 38 39  1  0  0  0
 39 37  1  0  0  0
 37 36  1  0  0  0
 36 34  1  0  0  0
 34  1  1  0  0  0
  1  2  2  0  0  0
  2  3  1  0  0  0
  3  4  2  0  0  0
  4  5  1  0  0  0
  5  6  2  0  0  0
  6  7  1  0  0  0
  7 10  1  0  0  0
 10 11  1  0  0  0
 11 12  1  0  0  0
 12 13  1  0  0  0
 13 14  1  0  0  0
 13 15  1  0  0  0
 15 16  1  0  0  0
  7  8  1  0  0  0
  8  9  2  0  0  0
  5 18  1  0  0  0
 18 19  2  0  0  0
 19 20  1  0  0  0
 20 21  2  0  0  0
 21 22  1  0  0  0
 22 23  2  0  0  0
 21 24  1  0  0  0
 24 25  2  0  0  0
 24 26  2  0  0  0
 24 27  1  0  0  0
 27 28  1  0  0  0
 28 29  1  0  0  0
 29 30  1  0  0  0
 30 31  1  0  0  0
 30 32  1  0  0  0
 32 33  1  0  0  0
  9  1  1  0  0  0
 23 18  1  0  0  0
 33 27  1  0  0  0
  8  4  1  0  0  0
 16 10  1  0  0  0
 34 35  1  0  0  0
 14 17  1  0  0  0
M  END
> <minimizedAffinity>
-3.76606

> <CNNscore>
0.3562395573

> <CNNaffinity>
5.6329245567

> <CNN_VS>
2.0066704750

> <CNNaffinity_variance>
0.3512211144

$$$$
[H]O[C@]1([H])C([H])([H])C([H])([H])[C@@]([H])(n2c([H])c(-c3c([H])c([H])c(S(=O)(=O)N4C([H])([H])C([H])([H])N(C([H])([H])[H])C([H])([H])C4([H])[H])c([H])c3[H])c3c([H])nc(N([H])C([H])([H])C([H])([H])C([H])([H])C([H])([H])[H])nc32)C([H])([H])C1([H])[H]


 39 43  0  0  0  0  0  0  0  0999 V2000
   35.2024  -10.2929   35.8931 C   0  0  0  0  0  0  0  0  0  0  0  0
   36.0688  -11.1935   35.3891 N   0  0  0  0  0  0  0  0  0  0  0  0
   36.0499  -12.4876   35.6850 C   0  0  0  0  0  0  0  0  0  0  0  0
   35.0801  -12.9642   36.5709 C   0  0  0  0  0  0  0  0  0  0  0  0
   34.7603  -14.1757   37.0924 C   0  0  0  0  0  0  0  0  0  0  0  0
   33.6901  -13.9766   37.9137 C   0  0  0  0  0  0  0  0  0  0  0  0
   33.3225  -12.6855   37.9301 N   0  0  0  0  0  0  0  0  0  0  0  0
   34.1897  -12.0468   37.0907 C   0  0  0  0  0  0  0  0  0  0  0  0
   34.2682  -10.7501   36.7463 N   0  0  0  0  0  0  0  0  0  0  0  0
   32.2420  -12.0473   38.6643 C   0  0  0  0  0  0  0  0  0  0  0  0
   31.0995  -11.6785   37.7564 C   0  0  0  0  0  0  0  0  0  0  0  0
   29.7993  -12.3208   38.1491 C   0  0  0  0  0  0  0  0  0  0  0  0
   29.4530  -12.1439   39.5950 C   0  0  0  0  0  0  0  0  0  0  0  0
   28.9298  -10.8819   39.8700 O   0  0  0  0  0  0  0  0  0  0  0  0
   30.6140  -12.4353   40.5123 C   0  0  0  0  0  0  0  0  0  0  0  0
   31.7223  -13.0396   39.6910 C   0  0  0  0  0  0  0  0  0  0  0  0
   27.9477  -10.8958   39.8020 H   0  0  0  0  0  0  0  0  0  0  0  0
   35.4187  -15.4468   36.8336 C   0  0  0  0  0  0  0  0  0  0  0  0
   36.6389  -15.7771   37.3937 C   0  0  0  0  0  0  0  0  0  0  0  0
   37.2419  -16.9903   37.1341 C   0  0  0  0  0  0  0  0  0  0  0  0
   36.6716  -17.9368   36.3099 C   0  0  0  0  0  0  0  0  0  0  0  0
   35.4549  -17.6169   35.7465 C   0  0  0  0  0  0  0  0  0  0  0  0
   34.8505  -16.4068   36.0037 C   0  0  0  0  0  0  0  0  0  0  0  0
   37.4357  -19.4767   35.9805 S   0  0  0  0  0  0  0  0  0  0  0  0
   36.8073  -20.0456   34.7514 O   0  0  0  0  0  0  0  0  0  0  0  0
   38.8994  -19.1973   35.7444 O   0  0  0  0  0  0  0  0  0  0  0  0
   37.2816  -20.4899   37.3392 N   0  0  0  0  0  0  0  0  0  0  0  0
   36.7978  -21.7982   37.0687 C   0  0  0  0  0  0  0  0  0  0  0  0
   35.3457  -21.8071   36.7935 C   0  0  0  0  0  0  0  0  0  0  0  0
   34.5252  -20.9672   37.5527 N   0  0  0  0  0  0  0  0  0  0  0  0
   33.2165  -20.7243   37.0602 C   0  0  0  0  0  0  0  0  0  0  0  0
   35.0983  -19.9742   38.3527 C   0  0  0  0  0  0  0  0  0  0  0  0
   36.5741  -19.9350   38.4451 C   0  0  0  0  0  0  0  0  0  0  0  0
   35.2761   -8.9145   35.5345 N   0  0  0  0  0  0  0  0  0  0  0  0
   35.8763   -8.6618   34.7250 H   0  0  0  0  0  0  0  0  0  0  0  0
   34.5670   -7.8848   36.2349 C   0  0  0  0  0  0  0  0  0  0  0  0
   33.0863   -7.8876   36.0473 C   0  0  0  0  0  0  0  0  0  0  0  0
   31.0079   -8.8990   36.9977 C   0  0  0  0  0  0  0  0  0  0  0  0
   32.3415   -8.2862   37.3039 C   0  0  0  0  0  0  0  0  0  0  0  0
 38 39  1  0  0  0
 39 37  1  0  0  0
 37 36  1  0  0  0
 36 34  1  0  0  0
 34  1  1  0  0  0
  1  2  2  0  0  0
  2  3  1  0  0  0
  3  4  2  0  0  0
  4  5  1  0  0  0
  5  6  2  0  0  0
  6  7  1  0  0  0
  7 10  1  0  0  0
 10 11  1  0  0  0
 11 12  1  0  0  0
 12 13  1  0  0  0
 13 14  1  0  0  0
 13 15  1  0  0  0
 15 16  1  0  0  0
  7  8  1  0  0  0
  8  9  2  0  0  0
  5 18  1  0  0  0
 18 19  2  0  0  0
 19 20  1  0  0  0
 20 21  2  0  0  0
 21 22  1  0  0  0
 22 23  2  0  0  0
 21 24  1  0  0  0
 24 25  2  0  0  0
 24 26  2  0  0  0
 24 27  1  0  0  0
 27 28  1  0  0  0
 28 29  1  0  0  0
 29 30  1  0  0  0
 30 31  1  0  0  0
 30 32  1  0  0  0
 32 33  1  0  0  0
  9  1  1  0  0  0
 23 18  1  0  0  0
 33 27  1  0  0  0
  8  4  1  0  0  0
 16 10  1  0  0  0
 34 35  1  0  0  0
 14 17  1  0  0  0
M  END
> <minimizedAffinity>
-6.58202

> <CNNscore>
0.3377371430

> <CNNaffinity>
7.1298894882

> <CNN_VS>
2.4080286026

> <CNNaffinity_variance>
0.1129288077

$$$$
[H]O[C@]1([H])C([H])([H])C([H])([H])[C@@]([H])(n2c([H])c(-c3c([H])c([H])c(S(=O)(=O)N4C([H])([H])C([H])([H])N(C([H])([H])[H])C([H])([H])C4([H])[H])c([H])c3[H])c3c([H])nc(N([H])C([H])([H])C([H])([H])C([H])([H])C([H])([H])[H])nc32)C([H])([H])C1([H])[H]


 39 43  0  0  0  0  0  0  0  0999 V2000
   39.7842  -23.5796   33.9888 C   0  0  0  0  0  0  0  0  0  0  0  0
   38.6587  -23.8609   34.6743 N   0  0  0  0  0  0  0  0  0  0  0  0
   38.2543  -23.1882   35.7451 C   0  0  0  0  0  0  0  0  0  0  0  0
   39.0291  -22.1201   36.2046 C   0  0  0  0  0  0  0  0  0  0  0  0
   38.9408  -21.2329   37.2279 C   0  0  0  0  0  0  0  0  0  0  0  0
   40.0333  -20.4220   37.1362 C   0  0  0  0  0  0  0  0  0  0  0  0
   40.8074  -20.7638   36.0940 N   0  0  0  0  0  0  0  0  0  0  0  0
   40.1831  -21.8268   35.5068 C   0  0  0  0  0  0  0  0  0  0  0  0
   40.5313  -22.5515   34.4300 N   0  0  0  0  0  0  0  0  0  0  0  0
   42.0530  -20.1669   35.6402 C   0  0  0  0  0  0  0  0  0  0  0  0
   41.8817  -19.4696   34.3171 C   0  0  0  0  0  0  0  0  0  0  0  0
   42.2303  -18.0091   34.3674 C   0  0  0  0  0  0  0  0  0  0  0  0
   43.5650  -17.7296   34.9857 C   0  0  0  0  0  0  0  0  0  0  0  0
   44.6218  -17.9670   34.1088 O   0  0  0  0  0  0  0  0  0  0  0  0
   43.7801  -18.4840   36.2737 C   0  0  0  0  0  0  0  0  0  0  0  0
   42.4762  -19.1280   36.6652 C   0  0  0  0  0  0  0  0  0  0  0  0
   44.8544  -17.1437   33.6217 H   0  0  0  0  0  0  0  0  0  0  0  0
   37.8916  -21.1490   38.2320 C   0  0  0  0  0  0  0  0  0  0  0  0
   37.9624  -21.8246   39.4362 C   0  0  0  0  0  0  0  0  0  0  0  0
   36.9546  -21.7271   40.3731 C   0  0  0  0  0  0  0  0  0  0  0  0
   35.8283  -20.9590   40.1687 C   0  0  0  0  0  0  0  0  0  0  0  0
   35.7483  -20.2815   38.9709 C   0  0  0  0  0  0  0  0  0  0  0  0
   36.7525  -20.3768   38.0337 C   0  0  0  0  0  0  0  0  0  0  0  0
   34.5494  -20.8341   41.3572 S   0  0  0  0  0  0  0  0  0  0  0  0
   35.0788  -21.3491   42.6548 O   0  0  0  0  0  0  0  0  0  0  0  0
   34.2005  -19.3709   41.4725 O   0  0  0  0  0  0  0  0  0  0  0  0
   33.1803  -21.6842   40.8103 N   0  0  0  0  0  0  0  0  0  0  0  0
   32.5588  -22.5198   41.7770 C   0  0  0  0  0  0  0  0  0  0  0  0
   33.3317  -23.7557   42.0213 C   0  0  0  0  0  0  0  0  0  0  0  0
   33.9345  -24.3840   40.9273 N   0  0  0  0  0  0  0  0  0  0  0  0
   34.9406  -25.3451   41.2074 C   0  0  0  0  0  0  0  0  0  0  0  0
   34.0156  -23.7171   39.7012 C   0  0  0  0  0  0  0  0  0  0  0  0
   33.3470  -22.4023   39.5904 C   0  0  0  0  0  0  0  0  0  0  0  0
   40.1633  -24.3416   32.8445 N   0  0  0  0  0  0  0  0  0  0  0  0
   39.4468  -24.4855   32.1060 H   0  0  0  0  0  0  0  0  0  0  0  0
   41.4703  -24.9056   32.6778 C   0  0  0  0  0  0  0  0  0  0  0  0
   42.3125  -24.2660   31.6245 C   0  0  0  0  0  0  0  0  0  0  0  0
   41.1574  -24.6413   29.4404 C   0  0  0  0  0  0  0  0  0  0  0  0
   42.3023  -25.0392   30.3227 C   0  0  0  0  0  0  0  0  0  0  0  0
 38 39  1  0  0  0
 39 37  1  0  0  0
 37 36  1  0  0  0
 36 34  1  0  0  0
 34  1  1  0  0  0
  1  2  2  0  0  0
  2  3  1  0  0  0
  3  4  2  0  0  0
  4  5  1  0  0  0
  5  6  2  0  0  0
  6  7  1  0  0  0
  7 10  1  0  0  0
 10 11  1  0  0  0
 11 12  1  0  0  0
 12 13  1  0  0  0
 13 14  1  0  0  0
 13 15  1  0  0  0
 15 16  1  0  0  0
  7  8  1  0  0  0
  8  9  2  0  0  0
  5 18  1  0  0  0
 18 19  2  0  0  0
 19 20  1  0  0  0
 20 21  2  0  0  0
 21 22  1  0  0  0
 22 23  2  0  0  0
 21 24  1  0  0  0
 24 25  2  0  0  0
 24 26  2  0  0  0
 24 27  1  0  0  0
 27 28  1  0  0  0
 28 29  1  0  0  0
 29 30  1  0  0  0
 30 31  1  0  0  0
 30 32  1  0  0  0
 32 33  1  0  0  0
  9  1  1  0  0  0
 23 18  1  0  0  0
 33 27  1  0  0  0
  8  4  1  0  0  0
 16 10  1  0  0  0
 34 35  1  0  0  0
 14 17  1  0  0  0
M  END
> <minimizedAffinity>
-4.56967

> <CNNscore>
0.2937988937

> <CNNaffinity>
5.4583644867

> <CNN_VS>
1.6036614180

> <CNNaffinity_variance>
0.0225969423

$$$$
[H]c1nc([H])c(Cl)c(N([H])C(=O)c2c([H])c([H])c(OC([H])([H])[H])n3nc(C(F)(F)F)c([H])c23)c1Cl


 27 29  0  0  0  0  0  0  0  0999 V2000
   40.1084  -20.4643   35.2372 C   0  0  0  0  0  0  0  0  0  0  0  0
   39.6251  -19.3711   34.5328 C   0  0  0  0  0  0  0  0  0  0  0  0
   38.6571  -18.5568   35.0395 C   0  0  0  0  0  0  0  0  0  0  0  0
   38.1339  -18.8205   36.3052 C   0  0  0  0  0  0  0  0  0  0  0  0
   38.6113  -19.8890   37.0002 C   0  0  0  0  0  0  0  0  0  0  0  0
   38.3143  -20.4660   38.2300 C   0  0  0  0  0  0  0  0  0  0  0  0
   39.0832  -21.5806   38.4204 C   0  0  0  0  0  0  0  0  0  0  0  0
   39.8438  -21.6639   37.2960 N   0  0  0  0  0  0  0  0  0  0  0  0
   39.5810  -20.6885   36.4637 N   0  0  0  0  0  0  0  0  0  0  0  0
   37.0058  -18.0011   36.7664 C   0  0  0  0  0  0  0  0  0  0  0  0
   36.2107  -18.3727   37.6435 O   0  0  0  0  0  0  0  0  0  0  0  0
   36.8626  -16.7410   36.1386 N   0  0  0  0  0  0  0  0  0  0  0  0
   37.6445  -16.5453   35.3854 H   0  0  0  0  0  0  0  0  0  0  0  0
   35.9177  -15.7427   36.3303 C   0  0  0  0  0  0  0  0  0  0  0  0
   36.1788  -14.5939   37.0675 C   0  0  0  0  0  0  0  0  0  0  0  0
   37.8072  -14.3165   37.7067 Cl  0  0  0  0  0  0  0  0  0  0  0  0
   35.1877  -13.6594   37.3228 C   0  0  0  0  0  0  0  0  0  0  0  0
   33.9860  -13.9267   36.8166 N   0  0  0  0  0  0  0  0  0  0  0  0
   33.6804  -14.9993   36.1056 C   0  0  0  0  0  0  0  0  0  0  0  0
   34.6267  -15.9530   35.8323 C   0  0  0  0  0  0  0  0  0  0  0  0
   34.2574  -17.3992   34.9038 Cl  0  0  0  0  0  0  0  0  0  0  0  0
   39.1229  -22.5368   39.5566 C   0  0  0  0  0  0  0  0  0  0  0  0
   40.1308  -23.4536   39.3004 F   0  0  0  0  0  0  0  0  0  0  0  0
   37.9034  -23.1241   39.6950 F   0  0  0  0  0  0  0  0  0  0  0  0
   39.5171  -21.9039   40.7437 F   0  0  0  0  0  0  0  0  0  0  0  0
   42.4846  -21.0146   34.8659 C   0  0  0  0  0  0  0  0  0  0  0  0
   41.0971  -21.3073   34.7309 O   0  0  0  0  0  0  0  0  0  0  0  0
 26 27  1  0  0  0
 27  1  1  0  0  0
  1  2  2  0  0  0
  2  3  1  0  0  0
  3  4  2  0  0  0
  4 10  1  0  0  0
 10 11  2  0  0  0
 10 12  1  0  0  0
 12 14  1  0  0  0
 14 15  2  0  0  0
 15 16  1  0  0  0
 15 17  1  0  0  0
 17 18  2  0  0  0
 18 19  1  0  0  0
 19 20  2  0  0  0
 20 21  1  0  0  0
  4  5  1  0  0  0
  5  6  2  0  0  0
  6  7  1  0  0  0
  7  8  2  0  0  0
  8  9  1  0  0  0
  7 22  1  0  0  0
 22 23  1  0  0  0
 22 24  1  0  0  0
 22 25  1  0  0  0
  9  1  1  0  0  0
 20 14  1  0  0  0
  9  5  1  0  0  0
 12 13  1  0  0  0
M  END
> <minimizedAffinity>
-5.42106

> <CNNscore>
0.4513430595

> <CNNaffinity>
5.4763107300

> <CNN_VS>
2.4716949463

> <CNNaffinity_variance>
0.1120502502

$$$$
[H]c1nc([H])c(Cl)c(N([H])C(=O)c2c([H])c([H])c(OC([H])([H])[H])n3nc(C(F)(F)F)c([H])c23)c1Cl


 27 29  0  0  0  0  0  0  0  0999 V2000
   33.9956   -9.2848   36.8101 C   0  0  0  0  0  0  0  0  0  0  0  0
   32.8145   -8.6220   37.1110 C   0  0  0  0  0  0  0  0  0  0  0  0
   31.7088   -9.2834   37.5548 C   0  0  0  0  0  0  0  0  0  0  0  0
   31.7586  -10.6675   37.7183 C   0  0  0  0  0  0  0  0  0  0  0  0
   32.9184  -11.3186   37.4295 C   0  0  0  0  0  0  0  0  0  0  0  0
   33.3180  -12.6505   37.4334 C   0  0  0  0  0  0  0  0  0  0  0  0
   34.6107  -12.7511   36.9990 C   0  0  0  0  0  0  0  0  0  0  0  0
   34.9815  -11.4688   36.7379 N   0  0  0  0  0  0  0  0  0  0  0  0
   34.0097  -10.6272   36.9839 N   0  0  0  0  0  0  0  0  0  0  0  0
   30.5148  -11.3621   38.0753 C   0  0  0  0  0  0  0  0  0  0  0  0
   29.8089  -11.9590   37.2475 O   0  0  0  0  0  0  0  0  0  0  0  0
   30.1486  -11.3067   39.4410 N   0  0  0  0  0  0  0  0  0  0  0  0
   30.8734  -10.7486   40.0575 H   0  0  0  0  0  0  0  0  0  0  0  0
   29.0504  -11.8412   40.1002 C   0  0  0  0  0  0  0  0  0  0  0  0
   28.0331  -11.0529   40.6247 C   0  0  0  0  0  0  0  0  0  0  0  0
   28.0592   -9.3018   40.3599 Cl  0  0  0  0  0  0  0  0  0  0  0  0
   26.9978  -11.6066   41.3610 C   0  0  0  0  0  0  0  0  0  0  0  0
   27.0365  -12.9269   41.5255 N   0  0  0  0  0  0  0  0  0  0  0  0
   27.9752  -13.7268   41.0475 C   0  0  0  0  0  0  0  0  0  0  0  0
   29.0212  -13.2235   40.3179 C   0  0  0  0  0  0  0  0  0  0  0  0
   30.2959  -14.2506   39.6777 Cl  0  0  0  0  0  0  0  0  0  0  0  0
   35.4707  -13.9482   36.8135 C   0  0  0  0  0  0  0  0  0  0  0  0
   36.4773  -13.8951   37.7653 F   0  0  0  0  0  0  0  0  0  0  0  0
   35.9529  -13.9645   35.5414 F   0  0  0  0  0  0  0  0  0  0  0  0
   34.7732  -15.1287   37.1051 F   0  0  0  0  0  0  0  0  0  0  0  0
   35.1744   -7.9688   35.0881 C   0  0  0  0  0  0  0  0  0  0  0  0
   35.1341   -8.6216   36.3534 O   0  0  0  0  0  0  0  0  0  0  0  0
 26 27  1  0  0  0
 27  1  1  0  0  0
  1  2  2  0  0  0
  2  3  1  0  0  0
  3  4  2  0  0  0
  4 10  1  0  0  0
 10 11  2  0  0  0
 10 12  1  0  0  0
 12 14  1  0  0  0
 14 15  2  0  0  0
 15 16  1  0  0  0
 15 17  1  0  0  0
 17 18  2  0  0  0
 18 19  1  0  0  0
 19 20  2  0  0  0
 20 21  1  0  0  0
  4  5  1  0  0  0
  5  6  2  0  0  0
  6  7  1  0  0  0
  7  8  2  0  0  0
  8  9  1  0  0  0
  7 22  1  0  0  0
 22 23  1  0  0  0
 22 24  1  0  0  0
 22 25  1  0  0  0
  9  1  1  0  0  0
 20 14  1  0  0  0
  9  5  1  0  0  0
 12 13  1  0  0  0
M  END
> <minimizedAffinity>
-7.39231

> <CNNscore>
0.4469763935

> <CNNaffinity>
6.5813331604

> <CNN_VS>
2.9417004585

> <CNNaffinity_variance>
0.3120419979

$$$$
[H]c1nc([H])c(Cl)c(N([H])C(=O)c2c([H])c([H])c(OC([H])([H])[H])n3nc(C(F)(F)F)c([H])c23)c1Cl


 27 29  0  0  0  0  0  0  0  0999 V2000
   39.3105  -20.2433   34.2555 C   0  0  0  0  0  0  0  0  0  0  0  0
   38.1524  -19.7159   33.7028 C   0  0  0  0  0  0  0  0  0  0  0  0
   37.3712  -18.8263   34.3776 C   0  0  0  0  0  0  0  0  0  0  0  0
   37.7418  -18.4255   35.6610 C   0  0  0  0  0  0  0  0  0  0  0  0
   38.8809  -18.9373   36.2022 C   0  0  0  0  0  0  0  0  0  0  0  0
   39.5249  -18.8057   37.4277 C   0  0  0  0  0  0  0  0  0  0  0  0
   40.6374  -19.6001   37.4578 C   0  0  0  0  0  0  0  0  0  0  0  0
   40.6549  -20.2055   36.2400 N   0  0  0  0  0  0  0  0  0  0  0  0
   39.6421  -19.8297   35.5010 N   0  0  0  0  0  0  0  0  0  0  0  0
   36.8133  -17.5664   36.4071 C   0  0  0  0  0  0  0  0  0  0  0  0
   36.2715  -17.9131   37.4683 O   0  0  0  0  0  0  0  0  0  0  0  0
   36.5543  -16.2977   35.8364 N   0  0  0  0  0  0  0  0  0  0  0  0
   37.1102  -16.1271   34.8989 H   0  0  0  0  0  0  0  0  0  0  0  0
   35.7360  -15.2651   36.2728 C   0  0  0  0  0  0  0  0  0  0  0  0
   36.2152  -14.1872   37.0075 C   0  0  0  0  0  0  0  0  0  0  0  0
   37.9529  -14.0452   37.3196 Cl  0  0  0  0  0  0  0  0  0  0  0  0
   35.3599  -13.2202   37.5117 C   0  0  0  0  0  0  0  0  0  0  0  0
   34.0665  -13.3849   37.2440 N   0  0  0  0  0  0  0  0  0  0  0  0
   33.5542  -14.3864   36.5483 C   0  0  0  0  0  0  0  0  0  0  0  0
   34.3607  -15.3688   36.0346 C   0  0  0  0  0  0  0  0  0  0  0  0
   33.7178  -16.7234   35.1174 Cl  0  0  0  0  0  0  0  0  0  0  0  0
   41.6337  -19.8163   38.5385 C   0  0  0  0  0  0  0  0  0  0  0  0
   42.2774  -18.6096   38.7654 F   0  0  0  0  0  0  0  0  0  0  0  0
   42.4912  -20.8063   38.1701 F   0  0  0  0  0  0  0  0  0  0  0  0
   41.0089  -20.1159   39.7571 F   0  0  0  0  0  0  0  0  0  0  0  0
   41.2487  -20.7454   32.8138 C   0  0  0  0  0  0  0  0  0  0  0  0
   40.1186  -21.1556   33.5778 O   0  0  0  0  0  0  0  0  0  0  0  0
 26 27  1  0  0  0
 27  1  1  0  0  0
  1  2  2  0  0  0
  2  3  1  0  0  0
  3  4  2  0  0  0
  4 10  1  0  0  0
 10 11  2  0  0  0
 10 12  1  0  0  0
 12 14  1  0  0  0
 14 15  2  0  0  0
 15 16  1  0  0  0
 15 17  1  0  0  0
 17 18  2  0  0  0
 18 19  1  0  0  0
 19 20  2  0  0  0
 20 21  1  0  0  0
  4  5  1  0  0  0
  5  6  2  0  0  0
  6  7  1  0  0  0
  7  8  2  0  0  0
  8  9  1  0  0  0
  7 22  1  0  0  0
 22 23  1  0  0  0
 22 24  1  0  0  0
 22 25  1  0  0  0
  9  1  1  0  0  0
 20 14  1  0  0  0
  9  5  1  0  0  0
 12 13  1  0  0  0
M  END
> <minimizedAffinity>
-6.17235

> <CNNscore>
0.3783311546

> <CNNaffinity>
5.5016903877

> <CNN_VS>
2.0814609528

> <CNNaffinity_variance>
0.0896798596

$$$$
[H]c1nc([H])c(Cl)c(N([H])C(=O)c2c([H])c([H])c(OC([H])([H])[H])n3nc(C(F)(F)F)c([H])c23)c1Cl


 27 29  0  0  0  0  0  0  0  0999 V2000
   39.3996  -20.3182   34.7846 C   0  0  0  0  0  0  0  0  0  0  0  0
   38.8842  -19.2020   34.1416 C   0  0  0  0  0  0  0  0  0  0  0  0
   38.0514  -18.3267   34.7717 C   0  0  0  0  0  0  0  0  0  0  0  0
   37.7049  -18.5496   36.1042 C   0  0  0  0  0  0  0  0  0  0  0  0
   38.2146  -19.6407   36.7383 C   0  0  0  0  0  0  0  0  0  0  0  0
   38.0676  -20.1905   38.0072 C   0  0  0  0  0  0  0  0  0  0  0  0
   38.7883  -21.3487   38.1002 C   0  0  0  0  0  0  0  0  0  0  0  0
   39.3692  -21.4858   36.8781 N   0  0  0  0  0  0  0  0  0  0  0  0
   39.0457  -20.5016   36.0782 N   0  0  0  0  0  0  0  0  0  0  0  0
   36.7077  -17.6596   36.7127 C   0  0  0  0  0  0  0  0  0  0  0  0
   36.0454  -17.9674   37.7158 O   0  0  0  0  0  0  0  0  0  0  0  0
   36.5293  -16.4083   36.0766 N   0  0  0  0  0  0  0  0  0  0  0  0
   37.1896  -16.2726   35.2033 H   0  0  0  0  0  0  0  0  0  0  0  0
   35.6785  -15.3558   36.3845 C   0  0  0  0  0  0  0  0  0  0  0  0
   34.3422  -15.3350   36.0037 C   0  0  0  0  0  0  0  0  0  0  0  0
   33.6437  -16.7431   35.1873 Cl  0  0  0  0  0  0  0  0  0  0  0  0
   33.5412  -14.2292   36.2413 C   0  0  0  0  0  0  0  0  0  0  0  0
   34.1256  -13.2038   36.8566 N   0  0  0  0  0  0  0  0  0  0  0  0
   35.3895  -13.1684   37.2450 C   0  0  0  0  0  0  0  0  0  0  0  0
   36.2207  -14.2365   37.0266 C   0  0  0  0  0  0  0  0  0  0  0  0
   37.9095  -14.2235   37.5142 Cl  0  0  0  0  0  0  0  0  0  0  0  0
   38.9375  -22.2982   39.2331 C   0  0  0  0  0  0  0  0  0  0  0  0
   38.1054  -23.3798   38.9884 F   0  0  0  0  0  0  0  0  0  0  0  0
   38.6397  -21.6612   40.3978 F   0  0  0  0  0  0  0  0  0  0  0  0
   40.2263  -22.8482   39.2727 F   0  0  0  0  0  0  0  0  0  0  0  0
   41.6139  -20.9150   33.8749 C   0  0  0  0  0  0  0  0  0  0  0  0
   40.2512  -21.2233   34.1521 O   0  0  0  0  0  0  0  0  0  0  0  0
 26 27  1  0  0  0
 27  1  1  0  0  0
  1  2  2  0  0  0
  2  3  1  0  0  0
  3  4  2  0  0  0
  4 10  1  0  0  0
 10 11  2  0  0  0
 10 12  1  0  0  0
 12 14  1  0  0  0
 14 15  2  0  0  0
 15 16  1  0  0  0
 15 17  1  0  0  0
 17 18  2  0  0  0
 18 19  1  0  0  0
 19 20  2  0  0  0
 20 21  1  0  0  0
  4  5  1  0  0  0
  5  6  2  0  0  0
  6  7  1  0  0  0
  7  8  2  0  0  0
  8  9  1  0  0  0
  7 22  1  0  0  0
 22 23  1  0  0  0
 22 24  1  0  0  0
 22 25  1  0  0  0
  9  1  1  0  0  0
 20 14  1  0  0  0
  9  5  1  0  0  0
 12 13  1  0  0  0
M  END
> <minimizedAffinity>
-5.82591

> <CNNscore>
0.3538735211

> <CNNaffinity>
5.4433903694

> <CNN_VS>
1.9262716770

> <CNNaffinity_variance>
0.0983323455

$$$$
[H]c1nc([H])c(Cl)c(N([H])C(=O)c2c([H])c([H])c(OC([H])([H])[H])n3nc(C(F)(F)F)c([H])c23)c1Cl


 27 29  0  0  0  0  0  0  0  0999 V2000
   40.1068  -19.8599   33.8434 C   0  0  0  0  0  0  0  0  0  0  0  0
   38.8746  -19.5302   33.2976 C   0  0  0  0  0  0  0  0  0  0  0  0
   37.9300  -18.8505   34.0066 C   0  0  0  0  0  0  0  0  0  0  0  0
   38.2033  -18.4674   35.3194 C   0  0  0  0  0  0  0  0  0  0  0  0
   39.4139  -18.7847   35.8543 C   0  0  0  0  0  0  0  0  0  0  0  0
   40.0079  -18.6093   37.0994 C   0  0  0  0  0  0  0  0  0  0  0  0
   41.2521  -19.1765   37.1069 C   0  0  0  0  0  0  0  0  0  0  0  0
   41.3982  -19.6900   35.8560 N   0  0  0  0  0  0  0  0  0  0  0  0
   40.3397  -19.4693   35.1184 N   0  0  0  0  0  0  0  0  0  0  0  0
   37.1193  -17.8502   36.0946 C   0  0  0  0  0  0  0  0  0  0  0  0
   36.5191  -18.4369   37.0086 O   0  0  0  0  0  0  0  0  0  0  0  0
   36.7795  -16.5254   35.7315 N   0  0  0  0  0  0  0  0  0  0  0  0
   37.4008  -16.1330   34.9088 H   0  0  0  0  0  0  0  0  0  0  0  0
   35.8153  -15.6706   36.2472 C   0  0  0  0  0  0  0  0  0  0  0  0
   34.4673  -15.7796   35.9273 C   0  0  0  0  0  0  0  0  0  0  0  0
   33.9158  -17.1206   34.9100 Cl  0  0  0  0  0  0  0  0  0  0  0  0
   33.5408  -14.8542   36.3808 C   0  0  0  0  0  0  0  0  0  0  0  0
   34.0185  -13.8702   37.1392 N   0  0  0  0  0  0  0  0  0  0  0  0
   35.2877  -13.7179   37.4789 C   0  0  0  0  0  0  0  0  0  0  0  0
   36.2403  -14.6054   37.0495 C   0  0  0  0  0  0  0  0  0  0  0  0
   37.9389  -14.4303   37.4667 Cl  0  0  0  0  0  0  0  0  0  0  0  0
   42.2601  -19.2654   38.1946 C   0  0  0  0  0  0  0  0  0  0  0  0
   41.5818  -19.5137   39.3780 F   0  0  0  0  0  0  0  0  0  0  0  0
   42.9816  -18.1127   38.2363 F   0  0  0  0  0  0  0  0  0  0  0  0
   43.0951  -20.3790   38.0278 F   0  0  0  0  0  0  0  0  0  0  0  0
   41.2194  -21.9716   33.2191 C   0  0  0  0  0  0  0  0  0  0  0  0
   41.0822  -20.5565   33.1307 O   0  0  0  0  0  0  0  0  0  0  0  0
 26 27  1  0  0  0
 27  1  1  0  0  0
  1  2  2  0  0  0
  2  3  1  0  0  0
  3  4  2  0  0  0
  4 10  1  0  0  0
 10 11  2  0  0  0
 10 12  1  0  0  0
 12 14  1  0  0  0
 14 15  2  0  0  0
 15 16  1  0  0  0
 15 17  1  0  0  0
 17 18  2  0  0  0
 18 19  1  0  0  0
 19 20  2  0  0  0
 20 21  1  0  0  0
  4  5  1  0  0  0
  5  6  2  0  0  0
  6  7  1  0  0  0
  7  8  2  0  0  0
  8  9  1  0  0  0
  7 22  1  0  0  0
 22 23  1  0  0  0
 22 24  1  0  0  0
 22 25  1  0  0  0
  9  1  1  0  0  0
 20 14  1  0  0  0
  9  5  1  0  0  0
 12 13  1  0  0  0
M  END
> <minimizedAffinity>
-6.10102

> <CNNscore>
0.3343024552

> <CNNaffinity>
5.4076981544

> <CNN_VS>
1.8078067303

> <CNNaffinity_variance>
0.0612198040

$$$$
[H]c1nc([H])c(Cl)c(N([H])C(=O)c2c([H])c([H])c(OC([H])([H])[H])n3nc(C(F)(F)F)c([H])c23)c1Cl


 27 29  0  0  0  0  0  0  0  0999 V2000
   31.4473  -20.2978   35.2838 C   0  0  0  0  0  0  0  0  0  0  0  0
   31.5495  -19.2906   34.3352 C   0  0  0  0  0  0  0  0  0  0  0  0
   32.6097  -18.4352   34.3024 C   0  0  0  0  0  0  0  0  0  0  0  0
   33.6291  -18.5717   35.2443 C   0  0  0  0  0  0  0  0  0  0  0  0
   33.5335  -19.5632   36.1718 C   0  0  0  0  0  0  0  0  0  0  0  0
   34.3086  -19.9671   37.2534 C   0  0  0  0  0  0  0  0  0  0  0  0
   33.7087  -21.0174   37.8911 C   0  0  0  0  0  0  0  0  0  0  0  0
   32.5703  -21.2399   37.1809 N   0  0  0  0  0  0  0  0  0  0  0  0
   32.4562  -20.4039   36.1802 N   0  0  0  0  0  0  0  0  0  0  0  0
   34.6906  -17.5569   35.2596 C   0  0  0  0  0  0  0  0  0  0  0  0
   35.6369  -17.5523   34.4571 O   0  0  0  0  0  0  0  0  0  0  0  0
   34.5822  -16.5673   36.2653 N   0  0  0  0  0  0  0  0  0  0  0  0
   33.6884  -16.6955   36.8991 H   0  0  0  0  0  0  0  0  0  0  0  0
   35.4044  -15.4881   36.5577 C   0  0  0  0  0  0  0  0  0  0  0  0
   36.6925  -15.6396   37.0568 C   0  0  0  0  0  0  0  0  0  0  0  0
   37.3763  -17.2640   37.2331 Cl  0  0  0  0  0  0  0  0  0  0  0  0
   37.4554  -14.5444   37.4298 C   0  0  0  0  0  0  0  0  0  0  0  0
   36.8843  -13.3522   37.2743 N   0  0  0  0  0  0  0  0  0  0  0  0
   35.6661  -13.1471   36.8018 C   0  0  0  0  0  0  0  0  0  0  0  0
   34.8730  -14.2000   36.4251 C   0  0  0  0  0  0  0  0  0  0  0  0
   33.2439  -13.9706   35.8063 Cl  0  0  0  0  0  0  0  0  0  0  0  0
   34.1327  -21.7790   39.0941 C   0  0  0  0  0  0  0  0  0  0  0  0
   34.8216  -20.9072   39.9232 F   0  0  0  0  0  0  0  0  0  0  0  0
   34.8876  -22.8441   38.7109 F   0  0  0  0  0  0  0  0  0  0  0  0
   33.0289  -22.1891   39.8547 F   0  0  0  0  0  0  0  0  0  0  0  0
   29.1415  -20.8419   35.9724 C   0  0  0  0  0  0  0  0  0  0  0  0
   30.3677  -21.1792   35.3308 O   0  0  0  0  0  0  0  0  0  0  0  0
 26 27  1  0  0  0
 27  1  1  0  0  0
  1  2  2  0  0  0
  2  3  1  0  0  0
  3  4  2  0  0  0
  4 10  1  0  0  0
 10 11  2  0  0  0
 10 12  1  0  0  0
 12 14  1  0  0  0
 14 15  2  0  0  0
 15 16  1  0  0  0
 15 17  1  0  0  0
 17 18  2  0  0  0
 18 19  1  0  0  0
 19 20  2  0  0  0
 20 21  1  0  0  0
  4  5  1  0  0  0
  5  6  2  0  0  0
  6  7  1  0  0  0
  7  8  2  0  0  0
  8  9  1  0  0  0
  7 22  1  0  0  0
 22 23  1  0  0  0
 22 24  1  0  0  0
 22 25  1  0  0  0
  9  1  1  0  0  0
 20 14  1  0  0  0
  9  5  1  0  0  0
 12 13  1  0  0  0
M  END
> <minimizedAffinity>
-6.27121

> <CNNscore>
0.2977716029

> <CNNaffinity>
5.2759284973

> <CNN_VS>
1.5710216761

> <CNNaffinity_variance>
0.5800747871

$$$$
[H]c1nc([H])c(Cl)c(N([H])C(=O)c2c([H])c([H])c(OC([H])([H])[H])n3nc(C(F)(F)F)c([H])c23)c1Cl


 27 29  0  0  0  0  0  0  0  0999 V2000
   36.3688  -13.8926   36.9561 C   0  0  0  0  0  0  0  0  0  0  0  0
   35.9093  -12.6766   37.4409 C   0  0  0  0  0  0  0  0  0  0  0  0
   34.5823  -12.3686   37.4756 C   0  0  0  0  0  0  0  0  0  0  0  0
   33.6511  -13.2994   37.0159 C   0  0  0  0  0  0  0  0  0  0  0  0
   34.0997  -14.4953   36.5457 C   0  0  0  0  0  0  0  0  0  0  0  0
   33.4928  -15.6157   35.9886 C   0  0  0  0  0  0  0  0  0  0  0  0
   34.4424  -16.5353   35.6390 C   0  0  0  0  0  0  0  0  0  0  0  0
   35.6213  -15.9572   35.9936 N   0  0  0  0  0  0  0  0  0  0  0  0
   35.4373  -14.7737   36.5216 N   0  0  0  0  0  0  0  0  0  0  0  0
   32.2431  -12.8870   36.9493 C   0  0  0  0  0  0  0  0  0  0  0  0
   31.6024  -12.8284   35.8883 O   0  0  0  0  0  0  0  0  0  0  0  0
   31.6432  -12.5427   38.1837 N   0  0  0  0  0  0  0  0  0  0  0  0
   32.3309  -12.6489   39.0398 H   0  0  0  0  0  0  0  0  0  0  0  0
   30.3548  -12.1122   38.4687 C   0  0  0  0  0  0  0  0  0  0  0  0
   29.8811  -10.8613   38.0921 C   0  0  0  0  0  0  0  0  0  0  0  0
   30.9045   -9.7969   37.1138 Cl  0  0  0  0  0  0  0  0  0  0  0  0
   28.6234  -10.4211   38.4731 C   0  0  0  0  0  0  0  0  0  0  0  0
   27.9046  -11.2666   39.2081 N   0  0  0  0  0  0  0  0  0  0  0  0
   28.3009  -12.4685   39.5926 C   0  0  0  0  0  0  0  0  0  0  0  0
   29.5387  -12.9440   39.2440 C   0  0  0  0  0  0  0  0  0  0  0  0
   30.1083  -14.5290   39.7468 Cl  0  0  0  0  0  0  0  0  0  0  0  0
   34.2980  -17.8694   35.0015 C   0  0  0  0  0  0  0  0  0  0  0  0
   33.1962  -17.8177   34.1616 F   0  0  0  0  0  0  0  0  0  0  0  0
   34.1764  -18.8201   35.9672 F   0  0  0  0  0  0  0  0  0  0  0  0
   35.3761  -18.1484   34.1501 F   0  0  0  0  0  0  0  0  0  0  0  0
   38.7239  -13.3875   37.4899 C   0  0  0  0  0  0  0  0  0  0  0  0
   37.7233  -14.2209   36.9127 O   0  0  0  0  0  0  0  0  0  0  0  0
 26 27  1  0  0  0
 27  1  1  0  0  0
  1  2  2  0  0  0
  2  3  1  0  0  0
  3  4  2  0  0  0
  4 10  1  0  0  0
 10 11  2  0  0  0
 10 12  1  0  0  0
 12 14  1  0  0  0
 14 15  2  0  0  0
 15 16  1  0  0  0
 15 17  1  0  0  0
 17 18  2  0  0  0
 18 19  1  0  0  0
 19 20  2  0  0  0
 20 21  1  0  0  0
  4  5  1  0  0  0
  5  6  2  0  0  0
  6  7  1  0  0  0
  7  8  2  0  0  0
  8  9  1  0  0  0
  7 22  1  0  0  0
 22 23  1  0  0  0
 22 24  1  0  0  0
 22 25  1  0  0  0
  9  1  1  0  0  0
 20 14  1  0  0  0
  9  5  1  0  0  0
 12 13  1  0  0  0
M  END
> <minimizedAffinity>
-6.48668

> <CNNscore>
0.2915866673

> <CNNaffinity>
6.1151151657

> <CNN_VS>
1.7830860615

> <CNNaffinity_variance>
0.1593963653

$$$$
[H]c1nc([H])c(Cl)c(N([H])C(=O)c2c([H])c([H])c(OC([H])([H])[H])n3nc(C(F)(F)F)c([H])c23)c1Cl


 27 29  0  0  0  0  0  0  0  0999 V2000
   41.2454  -20.8495   34.5297 C   0  0  0  0  0  0  0  0  0  0  0  0
   40.0296  -20.8535   33.8614 C   0  0  0  0  0  0  0  0  0  0  0  0
   38.9419  -20.1852   34.3383 C   0  0  0  0  0  0  0  0  0  0  0  0
   39.0465  -19.4699   35.5310 C   0  0  0  0  0  0  0  0  0  0  0  0
   40.2403  -19.4599   36.1846 C   0  0  0  0  0  0  0  0  0  0  0  0
   40.6962  -18.9093   37.3774 C   0  0  0  0  0  0  0  0  0  0  0  0
   42.0029  -19.2562   37.5821 C   0  0  0  0  0  0  0  0  0  0  0  0
   42.3253  -20.0163   36.5012 N   0  0  0  0  0  0  0  0  0  0  0  0
   41.3123  -20.1421   35.6819 N   0  0  0  0  0  0  0  0  0  0  0  0
   37.8246  -18.8683   36.0804 C   0  0  0  0  0  0  0  0  0  0  0  0
   37.3326  -19.2043   37.1689 O   0  0  0  0  0  0  0  0  0  0  0  0
   37.2173  -17.8697   35.2827 N   0  0  0  0  0  0  0  0  0  0  0  0
   37.7690  -17.6726   34.3478 H   0  0  0  0  0  0  0  0  0  0  0  0
   36.0703  -17.1191   35.4998 C   0  0  0  0  0  0  0  0  0  0  0  0
   36.0456  -16.0119   36.3392 C   0  0  0  0  0  0  0  0  0  0  0  0
   37.5487  -15.4493   37.0886 Cl  0  0  0  0  0  0  0  0  0  0  0  0
   34.8651  -15.3391   36.6120 C   0  0  0  0  0  0  0  0  0  0  0  0
   33.7710  -15.8119   36.0196 N   0  0  0  0  0  0  0  0  0  0  0  0
   33.7345  -16.8570   35.2098 C   0  0  0  0  0  0  0  0  0  0  0  0
   34.8762  -17.5566   34.9151 C   0  0  0  0  0  0  0  0  0  0  0  0
   34.8676  -18.9591   33.8556 Cl  0  0  0  0  0  0  0  0  0  0  0  0
   42.9179  -18.9306   38.7063 C   0  0  0  0  0  0  0  0  0  0  0  0
   42.1366  -18.6222   39.8093 F   0  0  0  0  0  0  0  0  0  0  0  0
   43.7354  -17.9064   38.3406 F   0  0  0  0  0  0  0  0  0  0  0  0
   43.6591  -20.0523   39.1033 F   0  0  0  0  0  0  0  0  0  0  0  0
   42.2575  -22.6827   33.2252 C   0  0  0  0  0  0  0  0  0  0  0  0
   42.3661  -21.5300   34.0549 O   0  0  0  0  0  0  0  0  0  0  0  0
 26 27  1  0  0  0
 27  1  1  0  0  0
  1  2  2  0  0  0
  2  3  1  0  0  0
  3  4  2  0  0  0
  4 10  1  0  0  0
 10 11  2  0  0  0
 10 12  1  0  0  0
 12 14  1  0  0  0
 14 15  2  0  0  0
 15 16  1  0  0  0
 15 17  1  0  0  0
 17 18  2  0  0  0
 18 19  1  0  0  0
 19 20  2  0  0  0
 20 21  1  0  0  0
  4  5  1  0  0  0
  5  6  2  0  0  0
  6  7  1  0  0  0
  7  8  2  0  0  0
  8  9  1  0  0  0
  7 22  1  0  0  0
 22 23  1  0  0  0
 22 24  1  0  0  0
 22 25  1  0  0  0
  9  1  1  0  0  0
 20 14  1  0  0  0
  9  5  1  0  0  0
 12 13  1  0  0  0
M  END
> <minimizedAffinity>
-5.66044

> <CNNscore>
0.2662682831

> <CNNaffinity>
5.1925096512

> <CNN_VS>
1.3826006651

> <CNNaffinity_variance>
0.1204867736

$$$$
[H]c1nc([H])c(Cl)c(N([H])C(=O)c2c([H])c([H])c(OC([H])([H])[H])n3nc(C(F)(F)F)c([H])c23)c1Cl


 27 29  0  0  0  0  0  0  0  0999 V2000
   33.9987  -14.1664   36.1991 C   0  0  0  0  0  0  0  0  0  0  0  0
   33.3061  -15.2820   35.7511 C   0  0  0  0  0  0  0  0  0  0  0  0
   33.9016  -16.5020   35.6341 C   0  0  0  0  0  0  0  0  0  0  0  0
   35.2461  -16.6434   35.9768 C   0  0  0  0  0  0  0  0  0  0  0  0
   35.9254  -15.5514   36.4223 C   0  0  0  0  0  0  0  0  0  0  0  0
   37.2397  -15.3081   36.8061 C   0  0  0  0  0  0  0  0  0  0  0  0
   37.3953  -13.9881   37.1270 C   0  0  0  0  0  0  0  0  0  0  0  0
   36.1634  -13.4447   36.9345 N   0  0  0  0  0  0  0  0  0  0  0  0
   35.3007  -14.3405   36.5264 N   0  0  0  0  0  0  0  0  0  0  0  0
   35.8880  -17.9389   35.7188 C   0  0  0  0  0  0  0  0  0  0  0  0
   36.1625  -18.3455   34.5790 O   0  0  0  0  0  0  0  0  0  0  0  0
   36.1756  -18.7222   36.8616 N   0  0  0  0  0  0  0  0  0  0  0  0
   35.8820  -18.2302   37.8043 H   0  0  0  0  0  0  0  0  0  0  0  0
   36.7619  -19.9757   36.9687 C   0  0  0  0  0  0  0  0  0  0  0  0
   36.0204  -21.1391   37.1360 C   0  0  0  0  0  0  0  0  0  0  0  0
   34.2512  -21.0604   37.1051 Cl  0  0  0  0  0  0  0  0  0  0  0  0
   36.6359  -22.3646   37.3360 C   0  0  0  0  0  0  0  0  0  0  0  0
   37.9668  -22.3565   37.3503 N   0  0  0  0  0  0  0  0  0  0  0  0
   38.7237  -21.2832   37.1930 C   0  0  0  0  0  0  0  0  0  0  0  0
   38.1593  -20.0492   36.9976 C   0  0  0  0  0  0  0  0  0  0  0  0
   39.1294  -18.5969   36.7989 Cl  0  0  0  0  0  0  0  0  0  0  0  0
   38.6013  -13.2444   37.5738 C   0  0  0  0  0  0  0  0  0  0  0  0
   39.7037  -14.0530   37.3440 F   0  0  0  0  0  0  0  0  0  0  0  0
   38.4633  -12.9069   38.8846 F   0  0  0  0  0  0  0  0  0  0  0  0
   38.8256  -12.1106   36.7805 F   0  0  0  0  0  0  0  0  0  0  0  0
   32.2050  -12.7110   37.0658 C   0  0  0  0  0  0  0  0  0  0  0  0
   33.4032  -12.9115   36.3222 O   0  0  0  0  0  0  0  0  0  0  0  0
 26 27  1  0  0  0
 27  1  1  0  0  0
  1  2  2  0  0  0
  2  3  1  0  0  0
  3  4  2  0  0  0
  4 10  1  0  0  0
 10 11  2  0  0  0
 10 12  1  0  0  0
 12 14  1  0  0  0
 14 15  2  0  0  0
 15 16  1  0  0  0
 15 17  1  0  0  0
 17 18  2  0  0  0
 18 19  1  0  0  0
 19 20  2  0  0  0
 20 21  1  0  0  0
  4  5  1  0  0  0
  5  6  2  0  0  0
  6  7  1  0  0  0
  7  8  2  0  0  0
  8  9  1  0  0  0
  7 22  1  0  0  0
 22 23  1  0  0  0
 22 24  1  0  0  0
 22 25  1  0  0  0
  9  1  1  0  0  0
 20 14  1  0  0  0
  9  5  1  0  0  0
 12 13  1  0  0  0
M  END
> <minimizedAffinity>
-5.06705

> <CNNscore>
0.2524365485

> <CNNaffinity>
5.3032889366

> <CNN_VS>
1.3387439251

> <CNNaffinity_variance>
0.0226417705

$$$$
[H]c1c([H])c([H])c(/C(=C2/C(=O)N([H])c3c([H])c(C(=O)OC([H])([H])[H])c([H])c([H])c32)N([H])c2c([H])c([H])c(N(C(=O)C([H])([H])N3C([H])([H])C([H])([H])N(C([H])([H])[H])C([H])([H])C3([H])[H])C([H])([H])[H])c([H])c2[H])c([H])c1[H]


 42 46  0  0  0  0  0  0  0  0999 V2000
   32.6826  -18.7147   43.9552 C   0  0  0  0  0  0  0  0  0  0  0  0
   32.6208  -19.2974   42.7268 C   0  0  0  0  0  0  0  0  0  0  0  0
   33.6634  -20.0789   42.2152 C   0  0  0  0  0  0  0  0  0  0  0  0
   34.7725  -20.2431   43.0008 C   0  0  0  0  0  0  0  0  0  0  0  0
   35.9907  -20.9985   42.7705 C   0  0  0  0  0  0  0  0  0  0  0  0
   36.3841  -21.6203   41.6912 C   0  0  0  0  0  0  0  0  0  0  0  0
   36.8028  -20.8152   44.0107 C   0  0  0  0  0  0  0  0  0  0  0  0
   37.9175  -21.2952   44.2367 O   0  0  0  0  0  0  0  0  0  0  0  0
   36.0731  -19.9860   44.9005 N   0  0  0  0  0  0  0  0  0  0  0  0
   34.8502  -19.6549   44.2617 C   0  0  0  0  0  0  0  0  0  0  0  0
   33.8042  -18.8917   44.7346 C   0  0  0  0  0  0  0  0  0  0  0  0
   36.3769  -19.6667   45.8672 H   0  0  0  0  0  0  0  0  0  0  0  0
   35.7330  -21.5432   40.4202 C   0  0  0  0  0  0  0  0  0  0  0  0
   35.7507  -20.4776   39.5509 C   0  0  0  0  0  0  0  0  0  0  0  0
   35.0016  -20.4434   38.4026 C   0  0  0  0  0  0  0  0  0  0  0  0
   34.1939  -21.5022   38.0857 C   0  0  0  0  0  0  0  0  0  0  0  0
   34.1396  -22.5919   38.9200 C   0  0  0  0  0  0  0  0  0  0  0  0
   34.8916  -22.6121   40.0609 C   0  0  0  0  0  0  0  0  0  0  0  0
   31.6130  -17.8956   44.5095 C   0  0  0  0  0  0  0  0  0  0  0  0
   31.6951  -16.6597   44.6461 O   0  0  0  0  0  0  0  0  0  0  0  0
   29.1767  -18.2140   44.4068 C   0  0  0  0  0  0  0  0  0  0  0  0
   30.4474  -18.5497   44.9002 O   0  0  0  0  0  0  0  0  0  0  0  0
   37.6287  -22.3044   41.7434 N   0  0  0  0  0  0  0  0  0  0  0  0
   37.6856  -23.0504   42.4996 H   0  0  0  0  0  0  0  0  0  0  0  0
   38.7283  -22.0509   40.8838 C   0  0  0  0  0  0  0  0  0  0  0  0
   39.6068  -21.0128   41.0872 C   0  0  0  0  0  0  0  0  0  0  0  0
   40.6837  -20.7925   40.2196 C   0  0  0  0  0  0  0  0  0  0  0  0
   40.8786  -21.6206   39.1415 C   0  0  0  0  0  0  0  0  0  0  0  0
   40.0018  -22.6581   38.9370 C   0  0  0  0  0  0  0  0  0  0  0  0
   38.9303  -22.8770   39.8004 C   0  0  0  0  0  0  0  0  0  0  0  0
   42.0034  -21.3870   38.2430 N   0  0  0  0  0  0  0  0  0  0  0  0
   43.0730  -22.3492   38.3861 C   0  0  0  0  0  0  0  0  0  0  0  0
   41.9887  -20.3571   37.3154 C   0  0  0  0  0  0  0  0  0  0  0  0
   40.8257  -19.7417   37.2419 O   0  0  0  0  0  0  0  0  0  0  0  0
   42.9972  -19.8256   36.4084 C   0  0  0  0  0  0  0  0  0  0  0  0
   42.8111  -19.8605   35.0233 N   0  0  0  0  0  0  0  0  0  0  0  0
   42.6039  -18.6346   34.3311 C   0  0  0  0  0  0  0  0  0  0  0  0
   41.1612  -18.4432   33.9188 C   0  0  0  0  0  0  0  0  0  0  0  0
   40.6427  -19.5306   33.1649 N   0  0  0  0  0  0  0  0  0  0  0  0
   39.2324  -19.5908   33.0577 C   0  0  0  0  0  0  0  0  0  0  0  0
   41.3388  -20.7594   33.2579 C   0  0  0  0  0  0  0  0  0  0  0  0
   42.1800  -20.9909   34.4478 C   0  0  0  0  0  0  0  0  0  0  0  0
 21 22  1  0  0  0
 22 19  1  0  0  0
 19 20  2  0  0  0
 19  1  1  0  0  0
  1  2  2  0  0  0
  2  3  1  0  0  0
  3  4  2  0  0  0
  4  5  1  0  0  0
  5  6  2  0  0  0
  6 23  1  0  0  0
 23 25  1  0  0  0
 25 26  2  0  0  0
 26 27  1  0  0  0
 27 28  2  0  0  0
 28 29  1  0  0  0
 29 30  2  0  0  0
 28 31  1  0  0  0
 31 32  1  0  0  0
 31 33  1  0  0  0
 33 34  2  0  0  0
 33 35  1  0  0  0
 35 36  1  0  0  0
 36 37  1  0  0  0
 37 38  1  0  0  0
 38 39  1  0  0  0
 39 40  1  0  0  0
 39 41  1  0  0  0
 41 42  1  0  0  0
  6 13  1  0  0  0
 13 14  2  0  0  0
 14 15  1  0  0  0
 15 16  2  0  0  0
 16 17  1  0  0  0
 17 18  2  0  0  0
  5  7  1  0  0  0
  7  8  2  0  0  0
  7  9  1  0  0  0
  9 10  1  0  0  0
 10 11  2  0  0  0
 11  1  1  0  0  0
 10  4  1  0  0  0
 30 25  1  0  0  0
 42 36  1  0  0  0
 18 13  1  0  0  0
 23 24  1  0  0  0
  9 12  1  0  0  0
M  END
> <minimizedAffinity>
-4.47125

> <CNNscore>
0.5772180557

> <CNNaffinity>
5.4659180641

> <CNN_VS>
3.1550266743

> <CNNaffinity_variance>
0.0796385556

$$$$
[H]c1c([H])c([H])c(/C(=C2/C(=O)N([H])c3c([H])c(C(=O)OC([H])([H])[H])c([H])c([H])c32)N([H])c2c([H])c([H])c(N(C(=O)C([H])([H])N3C([H])([H])C([H])([H])N(C([H])([H])[H])C([H])([H])C3([H])[H])C([H])([H])[H])c([H])c2[H])c([H])c1[H]


 42 46  0  0  0  0  0  0  0  0999 V2000
   35.5632  -14.8554   36.4508 C   0  0  0  0  0  0  0  0  0  0  0  0
   36.4889  -15.8027   36.7638 C   0  0  0  0  0  0  0  0  0  0  0  0
   36.2285  -17.1729   36.6440 C   0  0  0  0  0  0  0  0  0  0  0  0
   34.9889  -17.5423   36.1953 C   0  0  0  0  0  0  0  0  0  0  0  0
   34.4271  -18.8576   35.9462 C   0  0  0  0  0  0  0  0  0  0  0  0
   34.9335  -20.0335   36.2052 C   0  0  0  0  0  0  0  0  0  0  0  0
   33.0475  -18.6010   35.4341 C   0  0  0  0  0  0  0  0  0  0  0  0
   32.2198  -19.4516   35.0946 O   0  0  0  0  0  0  0  0  0  0  0  0
   32.8401  -17.1983   35.4014 N   0  0  0  0  0  0  0  0  0  0  0  0
   34.0309  -16.5846   35.8686 C   0  0  0  0  0  0  0  0  0  0  0  0
   34.3216  -15.2433   35.9982 C   0  0  0  0  0  0  0  0  0  0  0  0
   31.9605  -16.6918   35.0872 H   0  0  0  0  0  0  0  0  0  0  0  0
   36.1265  -20.2614   36.9603 C   0  0  0  0  0  0  0  0  0  0  0  0
   37.3864  -20.4887   36.4579 C   0  0  0  0  0  0  0  0  0  0  0  0
   38.4554  -20.8143   37.2529 C   0  0  0  0  0  0  0  0  0  0  0  0
   38.2874  -20.9238   38.6071 C   0  0  0  0  0  0  0  0  0  0  0  0
   37.0492  -20.7066   39.1602 C   0  0  0  0  0  0  0  0  0  0  0  0
   35.9930  -20.3829   38.3556 C   0  0  0  0  0  0  0  0  0  0  0  0
   35.8082  -13.4242   36.5686 C   0  0  0  0  0  0  0  0  0  0  0  0
   35.0411  -12.5562   36.1093 O   0  0  0  0  0  0  0  0  0  0  0  0
   37.8619  -13.9368   37.8203 C   0  0  0  0  0  0  0  0  0  0  0  0
   36.9663  -13.0291   37.2332 O   0  0  0  0  0  0  0  0  0  0  0  0
   34.1690  -21.1738   35.8379 N   0  0  0  0  0  0  0  0  0  0  0  0
   34.0103  -21.2746   34.7909 H   0  0  0  0  0  0  0  0  0  0  0  0
   33.6426  -22.1235   36.7507 C   0  0  0  0  0  0  0  0  0  0  0  0
   32.6153  -21.8317   37.6170 C   0  0  0  0  0  0  0  0  0  0  0  0
   32.1180  -22.7944   38.5040 C   0  0  0  0  0  0  0  0  0  0  0  0
   32.6563  -24.0578   38.5200 C   0  0  0  0  0  0  0  0  0  0  0  0
   33.6825  -24.3509   37.6551 C   0  0  0  0  0  0  0  0  0  0  0  0
   34.1772  -23.3927   36.7727 C   0  0  0  0  0  0  0  0  0  0  0  0
   32.1322  -25.0564   39.4447 N   0  0  0  0  0  0  0  0  0  0  0  0
   31.1036  -25.8965   38.8734 C   0  0  0  0  0  0  0  0  0  0  0  0
   32.6359  -25.1905   40.7291 C   0  0  0  0  0  0  0  0  0  0  0  0
   33.7006  -24.4457   40.9491 O   0  0  0  0  0  0  0  0  0  0  0  0
   32.2262  -25.9895   41.8762 C   0  0  0  0  0  0  0  0  0  0  0  0
   31.5965  -25.4009   42.9767 N   0  0  0  0  0  0  0  0  0  0  0  0
   30.4412  -24.6002   42.7549 C   0  0  0  0  0  0  0  0  0  0  0  0
   30.7317  -23.1216   42.8870 C   0  0  0  0  0  0  0  0  0  0  0  0
   31.3426  -22.7766   44.1229 N   0  0  0  0  0  0  0  0  0  0  0  0
   31.9615  -21.5045   44.1719 C   0  0  0  0  0  0  0  0  0  0  0  0
   31.9611  -23.8267   44.8426 C   0  0  0  0  0  0  0  0  0  0  0  0
   32.3838  -25.0254   44.0932 C   0  0  0  0  0  0  0  0  0  0  0  0
 21 22  1  0  0  0
 22 19  1  0  0  0
 19 20  2  0  0  0
 19  1  1  0  0  0
  1  2  2  0  0  0
  2  3  1  0  0  0
  3  4  2  0  0  0
  4  5  1  0  0  0
  5  6  2  0  0  0
  6 23  1  0  0  0
 23 25  1  0  0  0
 25 26  2  0  0  0
 26 27  1  0  0  0
 27 28  2  0  0  0
 28 29  1  0  0  0
 29 30  2  0  0  0
 28 31  1  0  0  0
 31 32  1  0  0  0
 31 33  1  0  0  0
 33 34  2  0  0  0
 33 35  1  0  0  0
 35 36  1  0  0  0
 36 37  1  0  0  0
 37 38  1  0  0  0
 38 39  1  0  0  0
 39 40  1  0  0  0
 39 41  1  0  0  0
 41 42  1  0  0  0
  6 13  1  0  0  0
 13 14  2  0  0  0
 14 15  1  0  0  0
 15 16  2  0  0  0
 16 17  1  0  0  0
 17 18  2  0  0  0
  5  7  1  0  0  0
  7  8  2  0  0  0
  7  9  1  0  0  0
  9 10  1  0  0  0
 10 11  2  0  0  0
 11  1  1  0  0  0
 10  4  1  0  0  0
 30 25  1  0  0  0
 42 36  1  0  0  0
 18 13  1  0  0  0
 23 24  1  0  0  0
  9 12  1  0  0  0
M  END
> <minimizedAffinity>
-5.96257

> <CNNscore>
0.4801507294

> <CNNaffinity>
5.6917567253

> <CNN_VS>
2.7329010963

> <CNNaffinity_variance>
0.0712834969

$$$$
[H]c1c([H])c([H])c(/C(=C2/C(=O)N([H])c3c([H])c(C(=O)OC([H])([H])[H])c([H])c([H])c32)N([H])c2c([H])c([H])c(N(C(=O)C([H])([H])N3C([H])([H])C([H])([H])N(C([H])([H])[H])C([H])([H])C3([H])[H])C([H])([H])[H])c([H])c2[H])c([H])c1[H]


 42 46  0  0  0  0  0  0  0  0999 V2000
   41.4636  -24.9757   42.8429 C   0  0  0  0  0  0  0  0  0  0  0  0
   41.7999  -23.6588   42.7735 C   0  0  0  0  0  0  0  0  0  0  0  0
   41.7669  -22.9394   41.5732 C   0  0  0  0  0  0  0  0  0  0  0  0
   41.3803  -23.6121   40.4453 C   0  0  0  0  0  0  0  0  0  0  0  0
   41.2248  -23.1525   39.0770 C   0  0  0  0  0  0  0  0  0  0  0  0
   41.5338  -21.9955   38.5553 C   0  0  0  0  0  0  0  0  0  0  0  0
   40.7438  -24.3456   38.3177 C   0  0  0  0  0  0  0  0  0  0  0  0
   40.4803  -24.3923   37.1126 O   0  0  0  0  0  0  0  0  0  0  0  0
   40.6380  -25.4336   39.2215 N   0  0  0  0  0  0  0  0  0  0  0  0
   41.0307  -24.9600   40.5000 C   0  0  0  0  0  0  0  0  0  0  0  0
   41.0742  -25.6377   41.6996 C   0  0  0  0  0  0  0  0  0  0  0  0
   40.3240  -26.4227   38.9934 H   0  0  0  0  0  0  0  0  0  0  0  0
   42.2617  -20.9640   39.2274 C   0  0  0  0  0  0  0  0  0  0  0  0
   43.6231  -20.9068   39.4143 C   0  0  0  0  0  0  0  0  0  0  0  0
   44.2284  -19.9382   40.1733 C   0  0  0  0  0  0  0  0  0  0  0  0
   43.4676  -18.9761   40.7812 C   0  0  0  0  0  0  0  0  0  0  0  0
   42.1030  -18.9875   40.6265 C   0  0  0  0  0  0  0  0  0  0  0  0
   41.5134  -19.9589   39.8672 C   0  0  0  0  0  0  0  0  0  0  0  0
   41.4917  -25.7472   44.0783 C   0  0  0  0  0  0  0  0  0  0  0  0
   42.5427  -26.1540   44.6099 O   0  0  0  0  0  0  0  0  0  0  0  0
   39.2206  -25.1024   44.7664 C   0  0  0  0  0  0  0  0  0  0  0  0
   40.2681  -26.0328   44.6785 O   0  0  0  0  0  0  0  0  0  0  0  0
   41.2570  -21.8018   37.1749 N   0  0  0  0  0  0  0  0  0  0  0  0
   41.8715  -22.3738   36.5217 H   0  0  0  0  0  0  0  0  0  0  0  0
   40.2585  -20.9334   36.6638 C   0  0  0  0  0  0  0  0  0  0  0  0
   38.9287  -21.2793   36.6110 C   0  0  0  0  0  0  0  0  0  0  0  0
   37.9685  -20.3963   36.1019 C   0  0  0  0  0  0  0  0  0  0  0  0
   38.3472  -19.1583   35.6436 C   0  0  0  0  0  0  0  0  0  0  0  0
   39.6754  -18.8113   35.6958 C   0  0  0  0  0  0  0  0  0  0  0  0
   40.6306  -19.6902   36.2022 C   0  0  0  0  0  0  0  0  0  0  0  0
   37.3419  -18.2426   35.1167 N   0  0  0  0  0  0  0  0  0  0  0  0
   37.4296  -18.0405   33.6878 C   0  0  0  0  0  0  0  0  0  0  0  0
   36.3757  -17.6780   35.9346 C   0  0  0  0  0  0  0  0  0  0  0  0
   36.3806  -18.1680   37.1579 O   0  0  0  0  0  0  0  0  0  0  0  0
   35.3593  -16.6586   35.7102 C   0  0  0  0  0  0  0  0  0  0  0  0
   35.1440  -15.6382   36.6411 N   0  0  0  0  0  0  0  0  0  0  0  0
   33.8961  -14.9544   36.6283 C   0  0  0  0  0  0  0  0  0  0  0  0
   34.0050  -13.5694   36.0299 C   0  0  0  0  0  0  0  0  0  0  0  0
   35.0023  -12.7668   36.6470 N   0  0  0  0  0  0  0  0  0  0  0  0
   35.4048  -11.6180   35.9244 C   0  0  0  0  0  0  0  0  0  0  0  0
   35.9966  -13.4464   37.3905 C   0  0  0  0  0  0  0  0  0  0  0  0
   36.2495  -14.8653   37.0745 C   0  0  0  0  0  0  0  0  0  0  0  0
 21 22  1  0  0  0
 22 19  1  0  0  0
 19 20  2  0  0  0
 19  1  1  0  0  0
  1  2  2  0  0  0
  2  3  1  0  0  0
  3  4  2  0  0  0
  4  5  1  0  0  0
  5  6  2  0  0  0
  6 23  1  0  0  0
 23 25  1  0  0  0
 25 26  2  0  0  0
 26 27  1  0  0  0
 27 28  2  0  0  0
 28 29  1  0  0  0
 29 30  2  0  0  0
 28 31  1  0  0  0
 31 32  1  0  0  0
 31 33  1  0  0  0
 33 34  2  0  0  0
 33 35  1  0  0  0
 35 36  1  0  0  0
 36 37  1  0  0  0
 37 38  1  0  0  0
 38 39  1  0  0  0
 39 40  1  0  0  0
 39 41  1  0  0  0
 41 42  1  0  0  0
  6 13  1  0  0  0
 13 14  2  0  0  0
 14 15  1  0  0  0
 15 16  2  0  0  0
 16 17  1  0  0  0
 17 18  2  0  0  0
  5  7  1  0  0  0
  7  8  2  0  0  0
  7  9  1  0  0  0
  9 10  1  0  0  0
 10 11  2  0  0  0
 11  1  1  0  0  0
 10  4  1  0  0  0
 30 25  1  0  0  0
 42 36  1  0  0  0
 18 13  1  0  0  0
 23 24  1  0  0  0
  9 12  1  0  0  0
M  END
> <minimizedAffinity>
-4.74544

> <CNNscore>
0.4715431929

> <CNNaffinity>
5.8457193375

> <CNN_VS>
2.7565090656

> <CNNaffinity_variance>
0.2078254968

$$$$
[H]c1c([H])c([H])c(/C(=C2/C(=O)N([H])c3c([H])c(C(=O)OC([H])([H])[H])c([H])c([H])c32)N([H])c2c([H])c([H])c(N(C(=O)C([H])([H])N3C([H])([H])C([H])([H])N(C([H])([H])[H])C([H])([H])C3([H])[H])C([H])([H])[H])c([H])c2[H])c([H])c1[H]


 42 46  0  0  0  0  0  0  0  0999 V2000
   33.0175  -12.3155   37.0893 C   0  0  0  0  0  0  0  0  0  0  0  0
   32.6605  -13.5575   36.6624 C   0  0  0  0  0  0  0  0  0  0  0  0
   33.5919  -14.5893   36.4970 C   0  0  0  0  0  0  0  0  0  0  0  0
   34.9014  -14.3082   36.7809 C   0  0  0  0  0  0  0  0  0  0  0  0
   36.0815  -15.1524   36.7324 C   0  0  0  0  0  0  0  0  0  0  0  0
   36.2042  -16.3738   36.2858 C   0  0  0  0  0  0  0  0  0  0  0  0
   37.2038  -14.2793   37.1900 C   0  0  0  0  0  0  0  0  0  0  0  0
   38.3893  -14.6048   37.3018 O   0  0  0  0  0  0  0  0  0  0  0  0
   36.6771  -12.9946   37.4793 N   0  0  0  0  0  0  0  0  0  0  0  0
   35.2827  -13.0422   37.2211 C   0  0  0  0  0  0  0  0  0  0  0  0
   34.3386  -12.0494   37.3734 C   0  0  0  0  0  0  0  0  0  0  0  0
   37.2176  -12.1478   37.8253 H   0  0  0  0  0  0  0  0  0  0  0  0
   35.1872  -17.0932   35.5832 C   0  0  0  0  0  0  0  0  0  0  0  0
   33.9263  -17.3937   36.0430 C   0  0  0  0  0  0  0  0  0  0  0  0
   33.0526  -18.1901   35.3479 C   0  0  0  0  0  0  0  0  0  0  0  0
   33.4274  -18.7207   34.1428 C   0  0  0  0  0  0  0  0  0  0  0  0
   34.6761  -18.4515   33.6382 C   0  0  0  0  0  0  0  0  0  0  0  0
   35.5363  -17.6562   34.3420 C   0  0  0  0  0  0  0  0  0  0  0  0
   32.0686  -11.2246   37.2673 C   0  0  0  0  0  0  0  0  0  0  0  0
   32.4018  -10.0738   37.6100 O   0  0  0  0  0  0  0  0  0  0  0  0
   29.6766  -10.7731   37.6164 C   0  0  0  0  0  0  0  0  0  0  0  0
   30.7244  -11.5060   37.0371 O   0  0  0  0  0  0  0  0  0  0  0  0
   37.4866  -16.9798   36.3731 N   0  0  0  0  0  0  0  0  0  0  0  0
   38.2873  -16.3556   36.0559 H   0  0  0  0  0  0  0  0  0  0  0  0
   37.7287  -18.2985   36.8367 C   0  0  0  0  0  0  0  0  0  0  0  0
   36.7817  -19.0360   37.5078 C   0  0  0  0  0  0  0  0  0  0  0  0
   37.0537  -20.3366   37.9498 C   0  0  0  0  0  0  0  0  0  0  0  0
   38.2845  -20.8991   37.7156 C   0  0  0  0  0  0  0  0  0  0  0  0
   39.2314  -20.1636   37.0453 C   0  0  0  0  0  0  0  0  0  0  0  0
   38.9606  -18.8695   36.6057 C   0  0  0  0  0  0  0  0  0  0  0  0
   38.5604  -22.2549   38.1767 N   0  0  0  0  0  0  0  0  0  0  0  0
   38.7556  -22.3560   39.6056 C   0  0  0  0  0  0  0  0  0  0  0  0
   38.5750  -23.3296   37.3014 C   0  0  0  0  0  0  0  0  0  0  0  0
   38.1743  -23.0144   36.0861 O   0  0  0  0  0  0  0  0  0  0  0  0
   38.9399  -24.7312   37.4585 C   0  0  0  0  0  0  0  0  0  0  0  0
   37.9612  -25.7195   37.5988 N   0  0  0  0  0  0  0  0  0  0  0  0
   37.5551  -26.4470   36.4452 C   0  0  0  0  0  0  0  0  0  0  0  0
   36.1957  -26.0150   35.9415 C   0  0  0  0  0  0  0  0  0  0  0  0
   35.1845  -26.0647   36.9388 N   0  0  0  0  0  0  0  0  0  0  0  0
   33.9979  -25.3483   36.6511 C   0  0  0  0  0  0  0  0  0  0  0  0
   35.6188  -26.0856   38.2857 C   0  0  0  0  0  0  0  0  0  0  0  0
   36.9615  -25.5543   38.5891 C   0  0  0  0  0  0  0  0  0  0  0  0
 21 22  1  0  0  0
 22 19  1  0  0  0
 19 20  2  0  0  0
 19  1  1  0  0  0
  1  2  2  0  0  0
  2  3  1  0  0  0
  3  4  2  0  0  0
  4  5  1  0  0  0
  5  6  2  0  0  0
  6 23  1  0  0  0
 23 25  1  0  0  0
 25 26  2  0  0  0
 26 27  1  0  0  0
 27 28  2  0  0  0
 28 29  1  0  0  0
 29 30  2  0  0  0
 28 31  1  0  0  0
 31 32  1  0  0  0
 31 33  1  0  0  0
 33 34  2  0  0  0
 33 35  1  0  0  0
 35 36  1  0  0  0
 36 37  1  0  0  0
 37 38  1  0  0  0
 38 39  1  0  0  0
 39 40  1  0  0  0
 39 41  1  0  0  0
 41 42  1  0  0  0
  6 13  1  0  0  0
 13 14  2  0  0  0
 14 15  1  0  0  0
 15 16  2  0  0  0
 16 17  1  0  0  0
 17 18  2  0  0  0
  5  7  1  0  0  0
  7  8  2  0  0  0
  7  9  1  0  0  0
  9 10  1  0  0  0
 10 11  2  0  0  0
 11  1  1  0  0  0
 10  4  1  0  0  0
 30 25  1  0  0  0
 42 36  1  0  0  0
 18 13  1  0  0  0
 23 24  1  0  0  0
  9 12  1  0  0  0
M  END
> <minimizedAffinity>
-6.62240

> <CNNscore>
0.4203672409

> <CNNaffinity>
6.1126747131

> <CNN_VS>
2.5695681572

> <CNNaffinity_variance>
0.0762416869

$$$$
[H]c1c([H])c([H])c(/C(=C2/C(=O)N([H])c3c([H])c(C(=O)OC([H])([H])[H])c([H])c([H])c32)N([H])c2c([H])c([H])c(N(C(=O)C([H])([H])N3C([H])([H])C([H])([H])N(C([H])([H])[H])C([H])([H])C3([H])[H])C([H])([H])[H])c([H])c2[H])c([H])c1[H]


 42 46  0  0  0  0  0  0  0  0999 V2000
   34.7818  -13.7409   36.5076 C   0  0  0  0  0  0  0  0  0  0  0  0
   33.7705  -14.6049   36.2195 C   0  0  0  0  0  0  0  0  0  0  0  0
   33.9674  -15.9885   36.1390 C   0  0  0  0  0  0  0  0  0  0  0  0
   35.2336  -16.4592   36.3611 C   0  0  0  0  0  0  0  0  0  0  0  0
   35.7494  -17.8162   36.3716 C   0  0  0  0  0  0  0  0  0  0  0  0
   35.1473  -18.9301   36.0502 C   0  0  0  0  0  0  0  0  0  0  0  0
   37.1979  -17.6797   36.7099 C   0  0  0  0  0  0  0  0  0  0  0  0
   38.0150  -18.5976   36.8263 O   0  0  0  0  0  0  0  0  0  0  0  0
   37.4863  -16.3011   36.8779 N   0  0  0  0  0  0  0  0  0  0  0  0
   36.2794  -15.5878   36.6594 C   0  0  0  0  0  0  0  0  0  0  0  0
   36.0496  -14.2305   36.7312 C   0  0  0  0  0  0  0  0  0  0  0  0
   38.4273  -15.8725   37.1219 H   0  0  0  0  0  0  0  0  0  0  0  0
   33.8520  -19.0153   35.4500 C   0  0  0  0  0  0  0  0  0  0  0  0
   32.6485  -19.1317   36.1054 C   0  0  0  0  0  0  0  0  0  0  0  0
   31.4606  -19.3251   35.4480 C   0  0  0  0  0  0  0  0  0  0  0  0
   31.4452  -19.4093   34.0817 C   0  0  0  0  0  0  0  0  0  0  0  0
   32.6199  -19.2994   33.3787 C   0  0  0  0  0  0  0  0  0  0  0  0
   33.7962  -19.1068   34.0471 C   0  0  0  0  0  0  0  0  0  0  0  0
   34.6038  -12.2977   36.5951 C   0  0  0  0  0  0  0  0  0  0  0  0
   35.2833  -11.4814   35.9434 O   0  0  0  0  0  0  0  0  0  0  0  0
   33.4065  -10.4651   37.7155 C   0  0  0  0  0  0  0  0  0  0  0  0
   33.6169  -11.8291   37.4585 O   0  0  0  0  0  0  0  0  0  0  0  0
   35.8893  -20.1363   36.1688 N   0  0  0  0  0  0  0  0  0  0  0  0
   36.4310  -20.4038   35.2933 H   0  0  0  0  0  0  0  0  0  0  0  0
   35.9357  -20.9469   37.3320 C   0  0  0  0  0  0  0  0  0  0  0  0
   36.7054  -22.0834   37.4158 C   0  0  0  0  0  0  0  0  0  0  0  0
   36.7294  -22.8596   38.5809 C   0  0  0  0  0  0  0  0  0  0  0  0
   35.9755  -22.4913   39.6682 C   0  0  0  0  0  0  0  0  0  0  0  0
   35.2061  -21.3563   39.5860 C   0  0  0  0  0  0  0  0  0  0  0  0
   35.1823  -20.5841   38.4265 C   0  0  0  0  0  0  0  0  0  0  0  0
   36.0068  -23.3030   40.8794 N   0  0  0  0  0  0  0  0  0  0  0  0
   35.1871  -24.4917   40.8055 C   0  0  0  0  0  0  0  0  0  0  0  0
   36.8018  -22.9601   41.9618 C   0  0  0  0  0  0  0  0  0  0  0  0
   37.6054  -21.9453   41.7144 O   0  0  0  0  0  0  0  0  0  0  0  0
   36.9270  -23.4982   43.3098 C   0  0  0  0  0  0  0  0  0  0  0  0
   35.9981  -23.1764   44.3036 N   0  0  0  0  0  0  0  0  0  0  0  0
   35.0025  -24.1345   44.6438 C   0  0  0  0  0  0  0  0  0  0  0  0
   33.6417  -23.7712   44.0921 C   0  0  0  0  0  0  0  0  0  0  0  0
   33.2167  -22.4654   44.4581 N   0  0  0  0  0  0  0  0  0  0  0  0
   32.1478  -21.9290   43.7007 C   0  0  0  0  0  0  0  0  0  0  0  0
   34.2212  -21.5661   44.8890 C   0  0  0  0  0  0  0  0  0  0  0  0
   35.6103  -21.8230   44.4629 C   0  0  0  0  0  0  0  0  0  0  0  0
 21 22  1  0  0  0
 22 19  1  0  0  0
 19 20  2  0  0  0
 19  1  1  0  0  0
  1  2  2  0  0  0
  2  3  1  0  0  0
  3  4  2  0  0  0
  4  5  1  0  0  0
  5  6  2  0  0  0
  6 23  1  0  0  0
 23 25  1  0  0  0
 25 26  2  0  0  0
 26 27  1  0  0  0
 27 28  2  0  0  0
 28 29  1  0  0  0
 29 30  2  0  0  0
 28 31  1  0  0  0
 31 32  1  0  0  0
 31 33  1  0  0  0
 33 34  2  0  0  0
 33 35  1  0  0  0
 35 36  1  0  0  0
 36 37  1  0  0  0
 37 38  1  0  0  0
 38 39  1  0  0  0
 39 40  1  0  0  0
 39 41  1  0  0  0
 41 42  1  0  0  0
  6 13  1  0  0  0
 13 14  2  0  0  0
 14 15  1  0  0  0
 15 16  2  0  0  0
 16 17  1  0  0  0
 17 18  2  0  0  0
  5  7  1  0  0  0
  7  8  2  0  0  0
  7  9  1  0  0  0
  9 10  1  0  0  0
 10 11  2  0  0  0
 11  1  1  0  0  0
 10  4  1  0  0  0
 30 25  1  0  0  0
 42 36  1  0  0  0
 18 13  1  0  0  0
 23 24  1  0  0  0
  9 12  1  0  0  0
M  END
> <minimizedAffinity>
-6.74480

> <CNNscore>
0.4161928594

> <CNNaffinity>
5.6767740250

> <CNN_VS>
2.3626327515

> <CNNaffinity_variance>
0.2217158973

$$$$
[H]c1c([H])c([H])c(/C(=C2/C(=O)N([H])c3c([H])c(C(=O)OC([H])([H])[H])c([H])c([H])c32)N([H])c2c([H])c([H])c(N(C(=O)C([H])([H])N3C([H])([H])C([H])([H])N(C([H])([H])[H])C([H])([H])C3([H])[H])C([H])([H])[H])c([H])c2[H])c([H])c1[H]


 42 46  0  0  0  0  0  0  0  0999 V2000
   40.7596  -24.6500   42.6274 C   0  0  0  0  0  0  0  0  0  0  0  0
   41.2940  -23.3988   42.5929 C   0  0  0  0  0  0  0  0  0  0  0  0
   41.3035  -22.6201   41.4297 C   0  0  0  0  0  0  0  0  0  0  0  0
   40.7500  -23.1644   40.3020 C   0  0  0  0  0  0  0  0  0  0  0  0
   40.5881  -22.6142   38.9683 C   0  0  0  0  0  0  0  0  0  0  0  0
   41.0437  -21.4925   38.4778 C   0  0  0  0  0  0  0  0  0  0  0  0
   39.8816  -23.6769   38.1918 C   0  0  0  0  0  0  0  0  0  0  0  0
   39.5433  -23.6184   37.0061 O   0  0  0  0  0  0  0  0  0  0  0  0
   39.6598  -24.7821   39.0527 N   0  0  0  0  0  0  0  0  0  0  0  0
   40.1969  -24.4432   40.3215 C   0  0  0  0  0  0  0  0  0  0  0  0
   40.2042  -25.1824   41.4850 C   0  0  0  0  0  0  0  0  0  0  0  0
   39.1814  -25.6974   38.8034 H   0  0  0  0  0  0  0  0  0  0  0  0
   41.9630  -20.6227   39.1439 C   0  0  0  0  0  0  0  0  0  0  0  0
   41.6509  -19.4957   39.8677 C   0  0  0  0  0  0  0  0  0  0  0  0
   42.6049  -18.6523   40.3770 C   0  0  0  0  0  0  0  0  0  0  0  0
   43.9311  -18.9215   40.1699 C   0  0  0  0  0  0  0  0  0  0  0  0
   44.2970  -20.0347   39.4536 C   0  0  0  0  0  0  0  0  0  0  0  0
   43.3354  -20.8662   38.9520 C   0  0  0  0  0  0  0  0  0  0  0  0
   40.7391  -25.4811   43.8237 C   0  0  0  0  0  0  0  0  0  0  0  0
   41.5061  -26.4469   44.0019 O   0  0  0  0  0  0  0  0  0  0  0  0
   38.4660  -25.5785   44.7566 C   0  0  0  0  0  0  0  0  0  0  0  0
   39.8053  -25.1607   44.8056 O   0  0  0  0  0  0  0  0  0  0  0  0
   40.7196  -21.1854   37.1286 N   0  0  0  0  0  0  0  0  0  0  0  0
   41.3825  -21.6093   36.4128 H   0  0  0  0  0  0  0  0  0  0  0  0
   39.6188  -20.3884   36.7219 C   0  0  0  0  0  0  0  0  0  0  0  0
   38.4794  -20.2525   37.4798 C   0  0  0  0  0  0  0  0  0  0  0  0
   37.4118  -19.4554   37.0490 C   0  0  0  0  0  0  0  0  0  0  0  0
   37.4900  -18.7910   35.8496 C   0  0  0  0  0  0  0  0  0  0  0  0
   38.6276  -18.9258   35.0914 C   0  0  0  0  0  0  0  0  0  0  0  0
   39.6897  -19.7191   35.5203 C   0  0  0  0  0  0  0  0  0  0  0  0
   36.3754  -17.9607   35.4078 N   0  0  0  0  0  0  0  0  0  0  0  0
   36.4240  -16.6054   35.9089 C   0  0  0  0  0  0  0  0  0  0  0  0
   35.4058  -18.4476   34.5452 C   0  0  0  0  0  0  0  0  0  0  0  0
   35.6861  -19.6454   34.0727 O   0  0  0  0  0  0  0  0  0  0  0  0
   34.1473  -17.8993   34.0574 C   0  0  0  0  0  0  0  0  0  0  0  0
   32.9214  -18.4140   34.4889 N   0  0  0  0  0  0  0  0  0  0  0  0
   32.6878  -18.5401   35.8870 C   0  0  0  0  0  0  0  0  0  0  0  0
   32.7767  -19.9747   36.3582 C   0  0  0  0  0  0  0  0  0  0  0  0
   31.9312  -20.8581   35.6340 N   0  0  0  0  0  0  0  0  0  0  0  0
   32.2204  -22.2374   35.7672 C   0  0  0  0  0  0  0  0  0  0  0  0
   31.4745  -20.4104   34.3714 C   0  0  0  0  0  0  0  0  0  0  0  0
   32.2597  -19.3702   33.6795 C   0  0  0  0  0  0  0  0  0  0  0  0
 21 22  1  0  0  0
 22 19  1  0  0  0
 19 20  2  0  0  0
 19  1  1  0  0  0
  1  2  2  0  0  0
  2  3  1  0  0  0
  3  4  2  0  0  0
  4  5  1  0  0  0
  5  6  2  0  0  0
  6 23  1  0  0  0
 23 25  1  0  0  0
 25 26  2  0  0  0
 26 27  1  0  0  0
 27 28  2  0  0  0
 28 29  1  0  0  0
 29 30  2  0  0  0
 28 31  1  0  0  0
 31 32  1  0  0  0
 31 33  1  0  0  0
 33 34  2  0  0  0
 33 35  1  0  0  0
 35 36  1  0  0  0
 36 37  1  0  0  0
 37 38  1  0  0  0
 38 39  1  0  0  0
 39 40  1  0  0  0
 39 41  1  0  0  0
 41 42  1  0  0  0
  6 13  1  0  0  0
 13 14  2  0  0  0
 14 15  1  0  0  0
 15 16  2  0  0  0
 16 17  1  0  0  0
 17 18  2  0  0  0
  5  7  1  0  0  0
  7  8  2  0  0  0
  7  9  1  0  0  0
  9 10  1  0  0  0
 10 11  2  0  0  0
 11  1  1  0  0  0
 10  4  1  0  0  0
 30 25  1  0  0  0
 42 36  1  0  0  0
 18 13  1  0  0  0
 23 24  1  0  0  0
  9 12  1  0  0  0
M  END
> <minimizedAffinity>
-4.66294

> <CNNscore>
0.4130832851

> <CNNaffinity>
5.4394159317

> <CNN_VS>
2.2469317913

> <CNNaffinity_variance>
0.1094892845

$$$$
[H]c1c([H])c([H])c(/C(=C2/C(=O)N([H])c3c([H])c(C(=O)OC([H])([H])[H])c([H])c([H])c32)N([H])c2c([H])c([H])c(N(C(=O)C([H])([H])N3C([H])([H])C([H])([H])N(C([H])([H])[H])C([H])([H])C3([H])[H])C([H])([H])[H])c([H])c2[H])c([H])c1[H]


 42 46  0  0  0  0  0  0  0  0999 V2000
   33.0575  -12.3429   37.0533 C   0  0  0  0  0  0  0  0  0  0  0  0
   32.7057  -13.5881   36.6313 C   0  0  0  0  0  0  0  0  0  0  0  0
   33.6389  -14.6212   36.4858 C   0  0  0  0  0  0  0  0  0  0  0  0
   34.9447  -14.3381   36.7845 C   0  0  0  0  0  0  0  0  0  0  0  0
   36.1251  -15.1829   36.7577 C   0  0  0  0  0  0  0  0  0  0  0  0
   36.2533  -16.4076   36.3220 C   0  0  0  0  0  0  0  0  0  0  0  0
   37.2417  -14.3066   37.2231 C   0  0  0  0  0  0  0  0  0  0  0  0
   38.4255  -14.6314   37.3527 O   0  0  0  0  0  0  0  0  0  0  0  0
   36.7116  -13.0196   37.4958 N   0  0  0  0  0  0  0  0  0  0  0  0
   35.3206  -13.0690   37.2200 C   0  0  0  0  0  0  0  0  0  0  0  0
   34.3749  -12.0748   37.3525 C   0  0  0  0  0  0  0  0  0  0  0  0
   37.2478  -12.1703   37.8423 H   0  0  0  0  0  0  0  0  0  0  0  0
   35.2453  -17.1323   35.6118 C   0  0  0  0  0  0  0  0  0  0  0  0
   34.0106  -17.5050   36.0894 C   0  0  0  0  0  0  0  0  0  0  0  0
   33.1489  -18.3010   35.3790 C   0  0  0  0  0  0  0  0  0  0  0  0
   33.5094  -18.7570   34.1397 C   0  0  0  0  0  0  0  0  0  0  0  0
   34.7319  -18.4139   33.6161 C   0  0  0  0  0  0  0  0  0  0  0  0
   35.5804  -17.6199   34.3353 C   0  0  0  0  0  0  0  0  0  0  0  0
   32.1066  -11.2506   37.2108 C   0  0  0  0  0  0  0  0  0  0  0  0
   30.8793  -11.3782   37.0368 O   0  0  0  0  0  0  0  0  0  0  0  0
   31.9615   -8.7976   37.3048 C   0  0  0  0  0  0  0  0  0  0  0  0
   32.6189  -10.0081   37.5752 O   0  0  0  0  0  0  0  0  0  0  0  0
   37.5343  -17.0132   36.4304 N   0  0  0  0  0  0  0  0  0  0  0  0
   38.3446  -16.3672   36.1907 H   0  0  0  0  0  0  0  0  0  0  0  0
   37.7635  -18.3576   36.8209 C   0  0  0  0  0  0  0  0  0  0  0  0
   38.9280  -19.0282   36.5289 C   0  0  0  0  0  0  0  0  0  0  0  0
   39.1222  -20.3551   36.9318 C   0  0  0  0  0  0  0  0  0  0  0  0
   38.1403  -21.0117   37.6324 C   0  0  0  0  0  0  0  0  0  0  0  0
   36.9764  -20.3431   37.9248 C   0  0  0  0  0  0  0  0  0  0  0  0
   36.7834  -19.0228   37.5237 C   0  0  0  0  0  0  0  0  0  0  0  0
   38.3498  -22.3930   38.0509 N   0  0  0  0  0  0  0  0  0  0  0  0
   38.0768  -23.3636   37.0147 C   0  0  0  0  0  0  0  0  0  0  0  0
   38.8177  -22.7037   39.3181 C   0  0  0  0  0  0  0  0  0  0  0  0
   39.1808  -21.6434   40.0114 O   0  0  0  0  0  0  0  0  0  0  0  0
   38.9900  -23.9629   40.0301 C   0  0  0  0  0  0  0  0  0  0  0  0
   40.0665  -24.8090   39.7481 N   0  0  0  0  0  0  0  0  0  0  0  0
   41.3848  -24.2752   39.7939 C   0  0  0  0  0  0  0  0  0  0  0  0
   41.9666  -24.0595   38.4143 C   0  0  0  0  0  0  0  0  0  0  0  0
   41.9328  -25.2245   37.6012 N   0  0  0  0  0  0  0  0  0  0  0  0
   42.1180  -25.0145   36.2135 C   0  0  0  0  0  0  0  0  0  0  0  0
   41.0317  -26.2451   37.9878 C   0  0  0  0  0  0  0  0  0  0  0  0
   39.8781  -25.8694   38.8276 C   0  0  0  0  0  0  0  0  0  0  0  0
 21 22  1  0  0  0
 22 19  1  0  0  0
 19 20  2  0  0  0
 19  1  1  0  0  0
  1  2  2  0  0  0
  2  3  1  0  0  0
  3  4  2  0  0  0
  4  5  1  0  0  0
  5  6  2  0  0  0
  6 23  1  0  0  0
 23 25  1  0  0  0
 25 26  2  0  0  0
 26 27  1  0  0  0
 27 28  2  0  0  0
 28 29  1  0  0  0
 29 30  2  0  0  0
 28 31  1  0  0  0
 31 32  1  0  0  0
 31 33  1  0  0  0
 33 34  2  0  0  0
 33 35  1  0  0  0
 35 36  1  0  0  0
 36 37  1  0  0  0
 37 38  1  0  0  0
 38 39  1  0  0  0
 39 40  1  0  0  0
 39 41  1  0  0  0
 41 42  1  0  0  0
  6 13  1  0  0  0
 13 14  2  0  0  0
 14 15  1  0  0  0
 15 16  2  0  0  0
 16 17  1  0  0  0
 17 18  2  0  0  0
  5  7  1  0  0  0
  7  8  2  0  0  0
  7  9  1  0  0  0
  9 10  1  0  0  0
 10 11  2  0  0  0
 11  1  1  0  0  0
 10  4  1  0  0  0
 30 25  1  0  0  0
 42 36  1  0  0  0
 18 13  1  0  0  0
 23 24  1  0  0  0
  9 12  1  0  0  0
M  END
> <minimizedAffinity>
-6.38382

> <CNNscore>
0.4101217091

> <CNNaffinity>
6.0320501328

> <CNN_VS>
2.4738748074

> <CNNaffinity_variance>
0.1153942123

$$$$
[H]c1c([H])c([H])c(/C(=C2/C(=O)N([H])c3c([H])c(C(=O)OC([H])([H])[H])c([H])c([H])c32)N([H])c2c([H])c([H])c(N(C(=O)C([H])([H])N3C([H])([H])C([H])([H])N(C([H])([H])[H])C([H])([H])C3([H])[H])C([H])([H])[H])c([H])c2[H])c([H])c1[H]


 42 46  0  0  0  0  0  0  0  0999 V2000
   34.7777  -13.9090   36.4777 C   0  0  0  0  0  0  0  0  0  0  0  0
   33.7609  -14.7824   36.2417 C   0  0  0  0  0  0  0  0  0  0  0  0
   33.9652  -16.1646   36.1573 C   0  0  0  0  0  0  0  0  0  0  0  0
   35.2445  -16.6241   36.3202 C   0  0  0  0  0  0  0  0  0  0  0  0
   35.7714  -17.9769   36.3112 C   0  0  0  0  0  0  0  0  0  0  0  0
   35.1639  -19.0969   36.0234 C   0  0  0  0  0  0  0  0  0  0  0  0
   37.2333  -17.8271   36.5791 C   0  0  0  0  0  0  0  0  0  0  0  0
   38.0626  -18.7379   36.6597 O   0  0  0  0  0  0  0  0  0  0  0  0
   37.5179  -16.4456   36.7278 N   0  0  0  0  0  0  0  0  0  0  0  0
   36.2961  -15.7430   36.5647 C   0  0  0  0  0  0  0  0  0  0  0  0
   36.0587  -14.3873   36.6421 C   0  0  0  0  0  0  0  0  0  0  0  0
   38.4660  -16.0083   36.9247 H   0  0  0  0  0  0  0  0  0  0  0  0
   33.8421  -19.1952   35.4863 C   0  0  0  0  0  0  0  0  0  0  0  0
   32.6865  -19.4479   36.1879 C   0  0  0  0  0  0  0  0  0  0  0  0
   31.4741  -19.6415   35.5770 C   0  0  0  0  0  0  0  0  0  0  0  0
   31.3836  -19.5859   34.2121 C   0  0  0  0  0  0  0  0  0  0  0  0
   32.5080  -19.3364   33.4640 C   0  0  0  0  0  0  0  0  0  0  0  0
   33.7096  -19.1455   34.0864 C   0  0  0  0  0  0  0  0  0  0  0  0
   34.5921  -12.4669   36.5680 C   0  0  0  0  0  0  0  0  0  0  0  0
   35.2902  -11.6445   35.9444 O   0  0  0  0  0  0  0  0  0  0  0  0
   33.4294  -10.6576   37.7604 C   0  0  0  0  0  0  0  0  0  0  0  0
   33.5754  -12.0067   37.4008 O   0  0  0  0  0  0  0  0  0  0  0  0
   35.9208  -20.2965   36.1109 N   0  0  0  0  0  0  0  0  0  0  0  0
   36.3058  -20.6390   35.1803 H   0  0  0  0  0  0  0  0  0  0  0  0
   36.1692  -21.0110   37.3110 C   0  0  0  0  0  0  0  0  0  0  0  0
   37.1748  -21.9417   37.4273 C   0  0  0  0  0  0  0  0  0  0  0  0
   37.3939  -22.6275   38.6283 C   0  0  0  0  0  0  0  0  0  0  0  0
   36.5977  -22.3762   39.7188 C   0  0  0  0  0  0  0  0  0  0  0  0
   35.5927  -21.4466   39.6041 C   0  0  0  0  0  0  0  0  0  0  0  0
   35.3749  -20.7644   38.4088 C   0  0  0  0  0  0  0  0  0  0  0  0
   36.8326  -23.0923   40.9673 N   0  0  0  0  0  0  0  0  0  0  0  0
   36.4399  -24.4830   40.9240 C   0  0  0  0  0  0  0  0  0  0  0  0
   37.4272  -22.4749   42.0566 C   0  0  0  0  0  0  0  0  0  0  0  0
   37.8746  -21.2650   41.7867 O   0  0  0  0  0  0  0  0  0  0  0  0
   37.6575  -22.8972   43.4317 C   0  0  0  0  0  0  0  0  0  0  0  0
   38.9532  -23.0073   43.9445 N   0  0  0  0  0  0  0  0  0  0  0  0
   39.4017  -22.0347   44.8816 C   0  0  0  0  0  0  0  0  0  0  0  0
   40.3710  -21.0486   44.2682 C   0  0  0  0  0  0  0  0  0  0  0  0
   41.4793  -21.6707   43.6324 N   0  0  0  0  0  0  0  0  0  0  0  0
   42.2192  -20.8544   42.7435 C   0  0  0  0  0  0  0  0  0  0  0  0
   41.3329  -23.0360   43.2892 C   0  0  0  0  0  0  0  0  0  0  0  0
   39.9658  -23.5667   43.1264 C   0  0  0  0  0  0  0  0  0  0  0  0
 21 22  1  0  0  0
 22 19  1  0  0  0
 19 20  2  0  0  0
 19  1  1  0  0  0
  1  2  2  0  0  0
  2  3  1  0  0  0
  3  4  2  0  0  0
  4  5  1  0  0  0
  5  6  2  0  0  0
  6 23  1  0  0  0
 23 25  1  0  0  0
 25 26  2  0  0  0
 26 27  1  0  0  0
 27 28  2  0  0  0
 28 29  1  0  0  0
 29 30  2  0  0  0
 28 31  1  0  0  0
 31 32  1  0  0  0
 31 33  1  0  0  0
 33 34  2  0  0  0
 33 35  1  0  0  0
 35 36  1  0  0  0
 36 37  1  0  0  0
 37 38  1  0  0  0
 38 39  1  0  0  0
 39 40  1  0  0  0
 39 41  1  0  0  0
 41 42  1  0  0  0
  6 13  1  0  0  0
 13 14  2  0  0  0
 14 15  1  0  0  0
 15 16  2  0  0  0
 16 17  1  0  0  0
 17 18  2  0  0  0
  5  7  1  0  0  0
  7  8  2  0  0  0
  7  9  1  0  0  0
  9 10  1  0  0  0
 10 11  2  0  0  0
 11  1  1  0  0  0
 10  4  1  0  0  0
 30 25  1  0  0  0
 42 36  1  0  0  0
 18 13  1  0  0  0
 23 24  1  0  0  0
  9 12  1  0  0  0
M  END
> <minimizedAffinity>
-6.87253

> <CNNscore>
0.4088010192

> <CNNaffinity>
5.8027410507

> <CNN_VS>
2.3721663952

> <CNNaffinity_variance>
0.1206851155

$$$$
[H]c1c([H])c([H])c(/C(=C2/C(=O)N([H])c3c([H])c(C(=O)OC([H])([H])[H])c([H])c([H])c32)N([H])c2c([H])c([H])c(N(C(=O)C([H])([H])N3C([H])([H])C([H])([H])N(C([H])([H])[H])C([H])([H])C3([H])[H])C([H])([H])[H])c([H])c2[H])c([H])c1[H]


 42 46  0  0  0  0  0  0  0  0999 V2000
   34.8330  -13.9707   36.4560 C   0  0  0  0  0  0  0  0  0  0  0  0
   33.8245  -14.8456   36.1921 C   0  0  0  0  0  0  0  0  0  0  0  0
   34.0278  -16.2296   36.1403 C   0  0  0  0  0  0  0  0  0  0  0  0
   35.2976  -16.6892   36.3655 C   0  0  0  0  0  0  0  0  0  0  0  0
   35.8202  -18.0432   36.4023 C   0  0  0  0  0  0  0  0  0  0  0  0
   35.2219  -19.1666   36.1083 C   0  0  0  0  0  0  0  0  0  0  0  0
   37.2698  -17.8923   36.7296 C   0  0  0  0  0  0  0  0  0  0  0  0
   38.0920  -18.8036   36.8613 O   0  0  0  0  0  0  0  0  0  0  0  0
   37.5522  -16.5091   36.8664 N   0  0  0  0  0  0  0  0  0  0  0  0
   36.3405  -15.8066   36.6392 C   0  0  0  0  0  0  0  0  0  0  0  0
   36.1044  -14.4491   36.6830 C   0  0  0  0  0  0  0  0  0  0  0  0
   38.4924  -16.0707   37.0959 H   0  0  0  0  0  0  0  0  0  0  0  0
   33.9238  -19.2710   35.5172 C   0  0  0  0  0  0  0  0  0  0  0  0
   32.7356  -19.4854   36.1757 C   0  0  0  0  0  0  0  0  0  0  0  0
   31.5489  -19.6890   35.5192 C   0  0  0  0  0  0  0  0  0  0  0  0
   31.5191  -19.6833   34.1506 C   0  0  0  0  0  0  0  0  0  0  0  0
   32.6781  -19.4736   33.4444 C   0  0  0  0  0  0  0  0  0  0  0  0
   33.8535  -19.2721   34.1119 C   0  0  0  0  0  0  0  0  0  0  0  0
   34.6483  -12.5268   36.5133 C   0  0  0  0  0  0  0  0  0  0  0  0
   35.4035  -11.7149   35.9448 O   0  0  0  0  0  0  0  0  0  0  0  0
   33.4783  -10.7347   37.7244 C   0  0  0  0  0  0  0  0  0  0  0  0
   33.5645  -12.0522   37.2477 O   0  0  0  0  0  0  0  0  0  0  0  0
   35.9706  -20.3663   36.2487 N   0  0  0  0  0  0  0  0  0  0  0  0
   36.6916  -20.5235   35.4826 H   0  0  0  0  0  0  0  0  0  0  0  0
   35.8076  -21.3035   37.3011 C   0  0  0  0  0  0  0  0  0  0  0  0
   36.4090  -21.1545   38.5288 C   0  0  0  0  0  0  0  0  0  0  0  0
   36.2248  -22.0982   39.5467 C   0  0  0  0  0  0  0  0  0  0  0  0
   35.4314  -23.1980   39.3294 C   0  0  0  0  0  0  0  0  0  0  0  0
   34.8299  -23.3481   38.1036 C   0  0  0  0  0  0  0  0  0  0  0  0
   35.0135  -22.4090   37.0908 C   0  0  0  0  0  0  0  0  0  0  0  0
   35.2419  -24.1759   40.3946 N   0  0  0  0  0  0  0  0  0  0  0  0
   36.2749  -25.1860   40.4487 C   0  0  0  0  0  0  0  0  0  0  0  0
   34.1841  -24.0822   41.2854 C   0  0  0  0  0  0  0  0  0  0  0  0
   33.4931  -22.9676   41.1547 O   0  0  0  0  0  0  0  0  0  0  0  0
   33.6897  -24.9647   42.3337 C   0  0  0  0  0  0  0  0  0  0  0  0
   34.3915  -25.1242   43.5321 N   0  0  0  0  0  0  0  0  0  0  0  0
   34.9834  -23.9789   44.1345 C   0  0  0  0  0  0  0  0  0  0  0  0
   36.4850  -23.9452   43.9545 C   0  0  0  0  0  0  0  0  0  0  0  0
   37.1317  -25.1290   44.4017 N   0  0  0  0  0  0  0  0  0  0  0  0
   38.4580  -25.3184   43.9443 C   0  0  0  0  0  0  0  0  0  0  0  0
   36.3234  -26.2823   44.5417 C   0  0  0  0  0  0  0  0  0  0  0  0
   35.0677  -26.3464   43.7695 C   0  0  0  0  0  0  0  0  0  0  0  0
 21 22  1  0  0  0
 22 19  1  0  0  0
 19 20  2  0  0  0
 19  1  1  0  0  0
  1  2  2  0  0  0
  2  3  1  0  0  0
  3  4  2  0  0  0
  4  5  1  0  0  0
  5  6  2  0  0  0
  6 23  1  0  0  0
 23 25  1  0  0  0
 25 26  2  0  0  0
 26 27  1  0  0  0
 27 28  2  0  0  0
 28 29  1  0  0  0
 29 30  2  0  0  0
 28 31  1  0  0  0
 31 32  1  0  0  0
 31 33  1  0  0  0
 33 34  2  0  0  0
 33 35  1  0  0  0
 35 36  1  0  0  0
 36 37  1  0  0  0
 37 38  1  0  0  0
 38 39  1  0  0  0
 39 40  1  0  0  0
 39 41  1  0  0  0
 41 42  1  0  0  0
  6 13  1  0  0  0
 13 14  2  0  0  0
 14 15  1  0  0  0
 15 16  2  0  0  0
 16 17  1  0  0  0
 17 18  2  0  0  0
  5  7  1  0  0  0
  7  8  2  0  0  0
  7  9  1  0  0  0
  9 10  1  0  0  0
 10 11  2  0  0  0
 11  1  1  0  0  0
 10  4  1  0  0  0
 30 25  1  0  0  0
 42 36  1  0  0  0
 18 13  1  0  0  0
 23 24  1  0  0  0
  9 12  1  0  0  0
M  END
> <minimizedAffinity>
-6.34518

> <CNNscore>
0.4054124057

> <CNNaffinity>
5.5912752151

> <CNN_VS>
2.2667722702

> <CNNaffinity_variance>
0.1627130657

$$$$
[H]OC(=O)C([H])([H])[C@@]([H])(C(=O)N1C([H])([H])C([H])([H])C([H])([H])[C@@]1([H])C(=O)N([H])[C@]([H])(C(=O)N([H])[C@]([H])(C(=O)N([H])[H])C([H])([H])c1c([H])c([H])c([H])c([H])c1[H])C([H])(C([H])([H])[H])C([H])([H])[H])N([H])C(=O)[C@@]([H])(N([H])C(=O)[C@@]([H])(N([H])C(=O)c1c(O[H])c2c([H])c([H])c([H])c([H])c2n1[H])C([H])([H])c1c([H])c([H])c([H])c([H])c1[H])C([H])([H])C([H])(C([H])([H])[H])C([H])([H])[H]


 75 79  0  0  0  0  0  0  0  0999 V2000
   35.4701  -14.2883   36.2247 C   0  0  0  0  0  0  0  0  0  0  0  0
   34.7284  -15.5348   36.0569 C   0  0  0  0  0  0  0  0  0  0  0  0
   33.5070  -15.5379   36.3960 O   0  0  0  0  0  0  0  0  0  0  0  0
   35.2701  -16.7321   35.5473 N   0  0  0  0  0  0  0  0  0  0  0  0
   36.6351  -16.8784   35.0618 C   0  0  0  0  0  0  0  0  0  0  0  0
   36.5796  -18.0348   34.0747 C   0  0  0  0  0  0  0  0  0  0  0  0
   35.1616  -18.5415   34.0616 C   0  0  0  0  0  0  0  0  0  0  0  0
   34.6144  -18.0445   35.4072 C   0  0  0  0  0  0  0  0  0  0  0  0
   35.0149  -18.9467   36.4941 C   0  0  0  0  0  0  0  0  0  0  0  0
   35.3266  -18.4630   37.6090 O   0  0  0  0  0  0  0  0  0  0  0  0
   35.0627  -20.3358   36.3212 N   0  0  0  0  0  0  0  0  0  0  0  0
   34.7995  -20.7501   35.4101 H   0  0  0  0  0  0  0  0  0  0  0  0
   35.4800  -21.2369   37.3855 C   0  0  0  0  0  0  0  0  0  0  0  0
   36.9276  -21.5115   37.2081 C   0  0  0  0  0  0  0  0  0  0  0  0
   37.6793  -21.1803   38.1473 O   0  0  0  0  0  0  0  0  0  0  0  0
   37.4601  -22.1197   36.0510 N   0  0  0  0  0  0  0  0  0  0  0  0
   36.8212  -22.3843   35.2824 H   0  0  0  0  0  0  0  0  0  0  0  0
   38.8855  -22.3600   35.9639 C   0  0  0  0  0  0  0  0  0  0  0  0
   39.4610  -21.6285   34.8616 C   0  0  0  0  0  0  0  0  0  0  0  0
   38.7606  -20.9796   33.8036 N   0  0  0  0  0  0  0  0  0  0  0  0
   40.7287  -21.5199   34.7702 O   0  0  0  0  0  0  0  0  0  0  0  0
   38.9678  -20.0052   33.5221 H   0  0  0  0  0  0  0  0  0  0  0  0
   38.0265  -21.5056   33.3090 H   0  0  0  0  0  0  0  0  0  0  0  0
   39.1178  -23.8133   36.1040 C   0  0  0  0  0  0  0  0  0  0  0  0
   38.4851  -24.7095   35.1497 C   0  0  0  0  0  0  0  0  0  0  0  0
   38.8249  -24.8042   33.8387 C   0  0  0  0  0  0  0  0  0  0  0  0
   38.1900  -25.7236   33.0165 C   0  0  0  0  0  0  0  0  0  0  0  0
   37.2022  -26.5630   33.5028 C   0  0  0  0  0  0  0  0  0  0  0  0
   36.8424  -26.4799   34.8375 C   0  0  0  0  0  0  0  0  0  0  0  0
   37.4806  -25.5695   35.6231 C   0  0  0  0  0  0  0  0  0  0  0  0
   34.7803  -22.5826   37.2622 C   0  0  0  0  0  0  0  0  0  0  0  0
   35.0157  -23.4648   38.4514 C   0  0  0  0  0  0  0  0  0  0  0  0
   33.3481  -22.4899   36.8733 C   0  0  0  0  0  0  0  0  0  0  0  0
   33.9180  -12.7084   37.4228 C   0  0  0  0  0  0  0  0  0  0  0  0
   33.9895  -13.4479   38.4326 O   0  0  0  0  0  0  0  0  0  0  0  0
   34.6505  -13.0956   36.2783 N   0  0  0  0  0  0  0  0  0  0  0  0
   34.5932  -12.4980   35.4428 H   0  0  0  0  0  0  0  0  0  0  0  0
   33.0819  -11.5024   37.4820 C   0  0  0  0  0  0  0  0  0  0  0  0
   32.0027  -11.5607   38.4374 N   0  0  0  0  0  0  0  0  0  0  0  0
   30.6502  -11.7601   38.0242 C   0  0  0  0  0  0  0  0  0  0  0  0
   30.5151  -11.8861   36.7492 O   0  0  0  0  0  0  0  0  0  0  0  0
   32.1911  -11.4756   39.4406 H   0  0  0  0  0  0  0  0  0  0  0  0
   29.4701  -11.8247   38.8850 C   0  0  0  0  0  0  0  0  0  0  0  0
   29.8503  -12.6367   40.0571 N   0  0  0  0  0  0  0  0  0  0  0  0
   29.2125  -13.8402   40.3004 C   0  0  0  0  0  0  0  0  0  0  0  0
   28.3041  -14.1685   39.4462 O   0  0  0  0  0  0  0  0  0  0  0  0
   30.5887  -12.2513   40.6420 H   0  0  0  0  0  0  0  0  0  0  0  0
   29.4348  -14.7754   41.3784 C   0  0  0  0  0  0  0  0  0  0  0  0
   29.3133  -16.1234   41.2661 N   0  0  0  0  0  0  0  0  0  0  0  0
   29.6034  -16.7608   42.3904 C   0  0  0  0  0  0  0  0  0  0  0  0
   29.6280  -18.1074   42.7615 C   0  0  0  0  0  0  0  0  0  0  0  0
   29.9811  -18.4812   44.0286 C   0  0  0  0  0  0  0  0  0  0  0  0
   30.3211  -17.5196   44.9663 C   0  0  0  0  0  0  0  0  0  0  0  0
   30.2894  -16.1981   44.5801 C   0  0  0  0  0  0  0  0  0  0  0  0
   29.9366  -15.8146   43.3107 C   0  0  0  0  0  0  0  0  0  0  0  0
   29.8349  -14.5440   42.6834 C   0  0  0  0  0  0  0  0  0  0  0  0
   30.1060  -13.4085   43.3543 O   0  0  0  0  0  0  0  0  0  0  0  0
   29.0189  -16.6378   40.3821 H   0  0  0  0  0  0  0  0  0  0  0  0
   30.1033  -12.4767   43.1517 H   0  0  0  0  0  0  0  0  0  0  0  0
   28.8221  -10.5521   39.2663 C   0  0  0  0  0  0  0  0  0  0  0  0
   27.3703  -10.4715   39.1274 C   0  0  0  0  0  0  0  0  0  0  0  0
   26.6467   -9.4911   39.7624 C   0  0  0  0  0  0  0  0  0  0  0  0
   25.2690   -9.4479   39.6113 C   0  0  0  0  0  0  0  0  0  0  0  0
   24.5724  -10.3675   38.8325 C   0  0  0  0  0  0  0  0  0  0  0  0
   25.3092  -11.3403   38.2037 C   0  0  0  0  0  0  0  0  0  0  0  0
   26.6976  -11.3877   38.3534 C   0  0  0  0  0  0  0  0  0  0  0  0
   33.9040  -10.2387   37.5729 C   0  0  0  0  0  0  0  0  0  0  0  0
   32.5906   -8.3028   36.9991 C   0  0  0  0  0  0  0  0  0  0  0  0
   33.7120   -9.2388   36.4946 C   0  0  0  0  0  0  0  0  0  0  0  0
   34.8837   -8.3476   36.2014 C   0  0  0  0  0  0  0  0  0  0  0  0
   36.1910  -14.2777   37.5982 C   0  0  0  0  0  0  0  0  0  0  0  0
   37.4573  -13.5474   37.5123 C   0  0  0  0  0  0  0  0  0  0  0  0
   37.5811  -12.4978   36.6205 O   0  0  0  0  0  0  0  0  0  0  0  0
   38.4429  -13.8424   38.2248 O   0  0  0  0  0  0  0  0  0  0  0  0
   36.9571  -11.6998   36.6977 H   0  0  0  0  0  0  0  0  0  0  0  0
 68 69  1  0  0  0
 69 70  1  0  0  0
 69 67  1  0  0  0
 67 38  1  0  0  0
 38 39  1  0  0  0
 39 40  1  0  0  0
 40 41  2  0  0  0
 40 43  1  0  0  0
 43 60  1  0  0  0
 60 61  1  0  0  0
 61 62  2  0  0  0
 62 63  1  0  0  0
 63 64  2  0  0  0
 64 65  1  0  0  0
 65 66  2  0  0  0
 43 44  1  0  0  0
 44 45  1  0  0  0
 45 46  2  0  0  0
 45 48  1  0  0  0
 48 49  1  0  0  0
 49 50  1  0  0  0
 50 51  2  0  0  0
 51 52  1  0  0  0
 52 53  2  0  0  0
 53 54  1  0  0  0
 54 55  2  0  0  0
 55 56  1  0  0  0
 56 57  1  0  0  0
 38 34  1  0  0  0
 34 35  2  0  0  0
 34 36  1  0  0  0
 36  1  1  0  0  0
  1 71  1  0  0  0
 71 72  1  0  0  0
 72 73  1  0  0  0
 72 74  2  0  0  0
  1  2  1  0  0  0
  2  3  2  0  0  0
  2  4  1  0  0  0
  4  5  1  0  0  0
  5  6  1  0  0  0
  6  7  1  0  0  0
  7  8  1  0  0  0
  8  9  1  0  0  0
  9 10  2  0  0  0
  9 11  1  0  0  0
 11 13  1  0  0  0
 13 31  1  0  0  0
 31 32  1  0  0  0
 31 33  1  0  0  0
 13 14  1  0  0  0
 14 15  2  0  0  0
 14 16  1  0  0  0
 16 18  1  0  0  0
 18 24  1  0  0  0
 24 25  1  0  0  0
 25 26  2  0  0  0
 26 27  1  0  0  0
 27 28  2  0  0  0
 28 29  1  0  0  0
 29 30  2  0  0  0
 18 19  1  0  0  0
 19 20  1  0  0  0
 19 21  2  0  0  0
 66 61  1  0  0  0
 56 48  2  0  0  0
  8  4  1  0  0  0
 30 25  1  0  0  0
 55 50  1  0  0  0
 39 42  1  0  0  0
 44 47  1  0  0  0
 49 58  1  0  0  0
 57 59  1  0  0  0
 36 37  1  0  0  0
 73 75  1  0  0  0
 11 12  1  0  0  0
 16 17  1  0  0  0
 20 22  1  0  0  0
 20 23  1  0  0  0
M  END
> <minimizedAffinity>
-9.24141

> <CNNscore>
0.3881898820

> <CNNaffinity>
7.7251944542

> <CNN_VS>
2.9988422394

> <CNNaffinity_variance>
0.0517125353

$$$$
[H]OC(=O)C([H])([H])[C@@]([H])(C(=O)N1C([H])([H])C([H])([H])C([H])([H])[C@@]1([H])C(=O)N([H])[C@]([H])(C(=O)N([H])[C@]([H])(C(=O)N([H])[H])C([H])([H])c1c([H])c([H])c([H])c([H])c1[H])C([H])(C([H])([H])[H])C([H])([H])[H])N([H])C(=O)[C@@]([H])(N([H])C(=O)[C@@]([H])(N([H])C(=O)c1c(O[H])c2c([H])c([H])c([H])c([H])c2n1[H])C([H])([H])c1c([H])c([H])c([H])c([H])c1[H])C([H])([H])C([H])(C([H])([H])[H])C([H])([H])[H]


 75 79  0  0  0  0  0  0  0  0999 V2000
   35.2673  -14.3202   36.1511 C   0  0  0  0  0  0  0  0  0  0  0  0
   34.6100  -15.6175   36.0200 C   0  0  0  0  0  0  0  0  0  0  0  0
   33.4007  -15.6996   36.3906 O   0  0  0  0  0  0  0  0  0  0  0  0
   35.2207  -16.7822   35.5131 N   0  0  0  0  0  0  0  0  0  0  0  0
   36.5800  -16.8415   34.9944 C   0  0  0  0  0  0  0  0  0  0  0  0
   36.5804  -18.0142   34.0251 C   0  0  0  0  0  0  0  0  0  0  0  0
   35.2011  -18.6179   34.0559 C   0  0  0  0  0  0  0  0  0  0  0  0
   34.6544  -18.1389   35.4083 C   0  0  0  0  0  0  0  0  0  0  0  0
   35.1436  -18.9941   36.4968 C   0  0  0  0  0  0  0  0  0  0  0  0
   35.4935  -18.4674   37.5805 O   0  0  0  0  0  0  0  0  0  0  0  0
   35.2349  -20.3850   36.3592 N   0  0  0  0  0  0  0  0  0  0  0  0
   34.9413  -20.8347   35.4746 H   0  0  0  0  0  0  0  0  0  0  0  0
   35.7397  -21.2392   37.4243 C   0  0  0  0  0  0  0  0  0  0  0  0
   37.2153  -21.3159   37.2858 C   0  0  0  0  0  0  0  0  0  0  0  0
   37.6629  -22.2299   36.5640 O   0  0  0  0  0  0  0  0  0  0  0  0
   38.0963  -20.4137   37.9199 N   0  0  0  0  0  0  0  0  0  0  0  0
   37.7061  -19.6647   38.5162 H   0  0  0  0  0  0  0  0  0  0  0  0
   39.5241  -20.5548   37.7231 C   0  0  0  0  0  0  0  0  0  0  0  0
   40.1442  -21.1469   38.8835 C   0  0  0  0  0  0  0  0  0  0  0  0
   41.5323  -21.4050   39.0769 N   0  0  0  0  0  0  0  0  0  0  0  0
   39.4215  -21.5002   39.8734 O   0  0  0  0  0  0  0  0  0  0  0  0
   42.0302  -21.1226   39.9394 H   0  0  0  0  0  0  0  0  0  0  0  0
   42.0481  -21.8891   38.3285 H   0  0  0  0  0  0  0  0  0  0  0  0
   40.0396  -19.2890   37.1595 C   0  0  0  0  0  0  0  0  0  0  0  0
   40.4658  -19.2743   35.7694 C   0  0  0  0  0  0  0  0  0  0  0  0
   41.6540  -18.7839   35.3325 C   0  0  0  0  0  0  0  0  0  0  0  0
   41.9879  -18.8552   33.9880 C   0  0  0  0  0  0  0  0  0  0  0  0
   41.1294  -19.4224   33.0617 C   0  0  0  0  0  0  0  0  0  0  0  0
   39.9128  -19.9272   33.4895 C   0  0  0  0  0  0  0  0  0  0  0  0
   39.6091  -19.8451   34.8139 C   0  0  0  0  0  0  0  0  0  0  0  0
   35.2295  -22.6640   37.2646 C   0  0  0  0  0  0  0  0  0  0  0  0
   35.2732  -23.4383   38.5477 C   0  0  0  0  0  0  0  0  0  0  0  0
   33.9241  -22.7670   36.5600 C   0  0  0  0  0  0  0  0  0  0  0  0
   33.7191  -12.8218   37.4544 C   0  0  0  0  0  0  0  0  0  0  0  0
   33.9425  -13.5213   38.4705 O   0  0  0  0  0  0  0  0  0  0  0  0
   34.3675  -13.1903   36.2542 N   0  0  0  0  0  0  0  0  0  0  0  0
   34.1856  -12.6256   35.4137 H   0  0  0  0  0  0  0  0  0  0  0  0
   32.8023  -11.6797   37.5644 C   0  0  0  0  0  0  0  0  0  0  0  0
   31.7110  -11.8668   38.4889 N   0  0  0  0  0  0  0  0  0  0  0  0
   30.3545  -11.6573   38.0945 C   0  0  0  0  0  0  0  0  0  0  0  0
   30.2257  -11.3050   36.8620 O   0  0  0  0  0  0  0  0  0  0  0  0
   31.8903  -12.1720   39.4501 H   0  0  0  0  0  0  0  0  0  0  0  0
   29.1650  -11.7987   38.9328 C   0  0  0  0  0  0  0  0  0  0  0  0
   29.5606  -12.6323   40.0845 N   0  0  0  0  0  0  0  0  0  0  0  0
   28.9843  -13.8768   40.2672 C   0  0  0  0  0  0  0  0  0  0  0  0
   28.1165  -14.2216   39.3779 O   0  0  0  0  0  0  0  0  0  0  0  0
   30.2621  -12.2297   40.7022 H   0  0  0  0  0  0  0  0  0  0  0  0
   29.2315  -14.8384   41.3162 C   0  0  0  0  0  0  0  0  0  0  0  0
   28.9853  -16.1702   41.2140 N   0  0  0  0  0  0  0  0  0  0  0  0
   29.3296  -16.8412   42.3030 C   0  0  0  0  0  0  0  0  0  0  0  0
   29.2761  -18.1888   42.6674 C   0  0  0  0  0  0  0  0  0  0  0  0
   29.7192  -18.6040   43.8927 C   0  0  0  0  0  0  0  0  0  0  0  0
   30.2304  -17.6841   44.7938 C   0  0  0  0  0  0  0  0  0  0  0  0
   30.2732  -16.3607   44.4150 C   0  0  0  0  0  0  0  0  0  0  0  0
   29.8310  -15.9360   43.1875 C   0  0  0  0  0  0  0  0  0  0  0  0
   29.7763  -14.6550   42.5756 C   0  0  0  0  0  0  0  0  0  0  0  0
   30.2077  -13.5533   43.2184 O   0  0  0  0  0  0  0  0  0  0  0  0
   28.5627  -16.6488   40.3626 H   0  0  0  0  0  0  0  0  0  0  0  0
   30.2642  -12.6226   43.0188 H   0  0  0  0  0  0  0  0  0  0  0  0
   28.4586  -10.5671   39.3438 C   0  0  0  0  0  0  0  0  0  0  0  0
   27.0138  -10.5216   39.1341 C   0  0  0  0  0  0  0  0  0  0  0  0
   26.2446   -9.5245   39.6838 C   0  0  0  0  0  0  0  0  0  0  0  0
   24.8750   -9.5155   39.4672 C   0  0  0  0  0  0  0  0  0  0  0  0
   24.2316  -10.4865   38.7053 C   0  0  0  0  0  0  0  0  0  0  0  0
   25.0135  -11.4755   38.1620 C   0  0  0  0  0  0  0  0  0  0  0  0
   26.3938  -11.4885   38.3779 C   0  0  0  0  0  0  0  0  0  0  0  0
   33.5352  -10.3720   37.7485 C   0  0  0  0  0  0  0  0  0  0  0  0
   32.1735   -8.4552   37.2255 C   0  0  0  0  0  0  0  0  0  0  0  0
   33.3292   -9.3390   36.7046 C   0  0  0  0  0  0  0  0  0  0  0  0
   34.4781   -8.4041   36.4621 C   0  0  0  0  0  0  0  0  0  0  0  0
   36.0604  -14.2567   37.4827 C   0  0  0  0  0  0  0  0  0  0  0  0
   37.2788  -13.4604   37.3219 C   0  0  0  0  0  0  0  0  0  0  0  0
   37.2715  -12.3637   36.4797 O   0  0  0  0  0  0  0  0  0  0  0  0
   38.3386  -13.7401   37.9258 O   0  0  0  0  0  0  0  0  0  0  0  0
   36.6217  -11.6027   36.6552 H   0  0  0  0  0  0  0  0  0  0  0  0
 68 69  1  0  0  0
 69 70  1  0  0  0
 69 67  1  0  0  0
 67 38  1  0  0  0
 38 39  1  0  0  0
 39 40  1  0  0  0
 40 41  2  0  0  0
 40 43  1  0  0  0
 43 60  1  0  0  0
 60 61  1  0  0  0
 61 62  2  0  0  0
 62 63  1  0  0  0
 63 64  2  0  0  0
 64 65  1  0  0  0
 65 66  2  0  0  0
 43 44  1  0  0  0
 44 45  1  0  0  0
 45 46  2  0  0  0
 45 48  1  0  0  0
 48 49  1  0  0  0
 49 50  1  0  0  0
 50 51  2  0  0  0
 51 52  1  0  0  0
 52 53  2  0  0  0
 53 54  1  0  0  0
 54 55  2  0  0  0
 55 56  1  0  0  0
 56 57  1  0  0  0
 38 34  1  0  0  0
 34 35  2  0  0  0
 34 36  1  0  0  0
 36  1  1  0  0  0
  1 71  1  0  0  0
 71 72  1  0  0  0
 72 73  1  0  0  0
 72 74  2  0  0  0
  1  2  1  0  0  0
  2  3  2  0  0  0
  2  4  1  0  0  0
  4  5  1  0  0  0
  5  6  1  0  0  0
  6  7  1  0  0  0
  7  8  1  0  0  0
  8  9  1  0  0  0
  9 10  2  0  0  0
  9 11  1  0  0  0
 11 13  1  0  0  0
 13 31  1  0  0  0
 31 32  1  0  0  0
 31 33  1  0  0  0
 13 14  1  0  0  0
 14 15  2  0  0  0
 14 16  1  0  0  0
 16 18  1  0  0  0
 18 24  1  0  0  0
 24 25  1  0  0  0
 25 26  2  0  0  0
 26 27  1  0  0  0
 27 28  2  0  0  0
 28 29  1  0  0  0
 29 30  2  0  0  0
 18 19  1  0  0  0
 19 20  1  0  0  0
 19 21  2  0  0  0
 66 61  1  0  0  0
 56 48  2  0  0  0
  8  4  1  0  0  0
 30 25  1  0  0  0
 55 50  1  0  0  0
 39 42  1  0  0  0
 44 47  1  0  0  0
 49 58  1  0  0  0
 57 59  1  0  0  0
 36 37  1  0  0  0
 73 75  1  0  0  0
 11 12  1  0  0  0
 16 17  1  0  0  0
 20 22  1  0  0  0
 20 23  1  0  0  0
M  END
> <minimizedAffinity>
-9.40243

> <CNNscore>
0.2738625407

> <CNNaffinity>
7.7239890099

> <CNN_VS>
2.1153111458

> <CNNaffinity_variance>
0.0856678635

$$$$
[H]OC(=O)C([H])([H])[C@@]([H])(C(=O)N1C([H])([H])C([H])([H])C([H])([H])[C@@]1([H])C(=O)N([H])[C@]([H])(C(=O)N([H])[C@]([H])(C(=O)N([H])[H])C([H])([H])c1c([H])c([H])c([H])c([H])c1[H])C([H])(C([H])([H])[H])C([H])([H])[H])N([H])C(=O)[C@@]([H])(N([H])C(=O)[C@@]([H])(N([H])C(=O)c1c(O[H])c2c([H])c([H])c([H])c([H])c2n1[H])C([H])([H])c1c([H])c([H])c([H])c([H])c1[H])C([H])([H])C([H])(C([H])([H])[H])C([H])([H])[H]


 75 79  0  0  0  0  0  0  0  0999 V2000
   29.9687  -12.9730   38.9277 C   0  0  0  0  0  0  0  0  0  0  0  0
   29.6804  -11.5553   39.1256 C   0  0  0  0  0  0  0  0  0  0  0  0
   30.6369  -10.7379   38.9719 O   0  0  0  0  0  0  0  0  0  0  0  0
   28.4197  -11.0308   39.4748 N   0  0  0  0  0  0  0  0  0  0  0  0
   27.2104  -11.8265   39.6319 C   0  0  0  0  0  0  0  0  0  0  0  0
   26.0660  -10.8596   39.3669 C   0  0  0  0  0  0  0  0  0  0  0  0
   26.6768   -9.5091   39.1000 C   0  0  0  0  0  0  0  0  0  0  0  0
   28.0594   -9.6297   39.7565 C   0  0  0  0  0  0  0  0  0  0  0  0
   27.9681   -9.3951   41.2029 C   0  0  0  0  0  0  0  0  0  0  0  0
   28.6029  -10.1416   41.9865 O   0  0  0  0  0  0  0  0  0  0  0  0
   27.1877   -8.3612   41.7357 N   0  0  0  0  0  0  0  0  0  0  0  0
   26.6658   -7.7316   41.1016 H   0  0  0  0  0  0  0  0  0  0  0  0
   27.0728   -8.1346   43.1690 C   0  0  0  0  0  0  0  0  0  0  0  0
   25.8863   -8.8821   43.6545 C   0  0  0  0  0  0  0  0  0  0  0  0
   24.9536   -9.0412   42.8411 O   0  0  0  0  0  0  0  0  0  0  0  0
   25.7871   -9.4048   44.9619 N   0  0  0  0  0  0  0  0  0  0  0  0
   26.5694   -9.2601   45.6222 H   0  0  0  0  0  0  0  0  0  0  0  0
   24.5959  -10.1307   45.3508 C   0  0  0  0  0  0  0  0  0  0  0  0
   23.8826   -9.4250   46.3875 C   0  0  0  0  0  0  0  0  0  0  0  0
   22.6046   -9.7534   46.9258 N   0  0  0  0  0  0  0  0  0  0  0  0
   24.4014   -8.3858   46.9145 O   0  0  0  0  0  0  0  0  0  0  0  0
   22.4332   -9.8056   47.9453 H   0  0  0  0  0  0  0  0  0  0  0  0
   21.8328   -9.9430   46.2710 H   0  0  0  0  0  0  0  0  0  0  0  0
   24.9583  -11.5536   45.5232 C   0  0  0  0  0  0  0  0  0  0  0  0
   25.0442  -12.3933   44.3393 C   0  0  0  0  0  0  0  0  0  0  0  0
   23.9926  -12.7113   43.5416 C   0  0  0  0  0  0  0  0  0  0  0  0
   24.1848  -13.4856   42.4068 C   0  0  0  0  0  0  0  0  0  0  0  0
   25.4406  -13.9520   42.0574 C   0  0  0  0  0  0  0  0  0  0  0  0
   26.5248  -13.6378   42.8597 C   0  0  0  0  0  0  0  0  0  0  0  0
   26.3095  -12.8766   43.9675 C   0  0  0  0  0  0  0  0  0  0  0  0
   26.7940   -6.6682   43.4656 C   0  0  0  0  0  0  0  0  0  0  0  0
   26.9010   -5.8038   42.2452 C   0  0  0  0  0  0  0  0  0  0  0  0
   25.5509   -6.4315   44.2466 C   0  0  0  0  0  0  0  0  0  0  0  0
   31.9682  -13.0485   37.3991 C   0  0  0  0  0  0  0  0  0  0  0  0
   31.2572  -12.5582   36.4903 O   0  0  0  0  0  0  0  0  0  0  0  0
   31.3571  -13.2786   38.6521 N   0  0  0  0  0  0  0  0  0  0  0  0
   31.9312  -13.6862   39.4023 H   0  0  0  0  0  0  0  0  0  0  0  0
   33.3745  -13.3601   37.1122 C   0  0  0  0  0  0  0  0  0  0  0  0
   33.6120  -14.7004   36.6348 N   0  0  0  0  0  0  0  0  0  0  0  0
   34.9164  -15.2815   36.6603 C   0  0  0  0  0  0  0  0  0  0  0  0
   35.8176  -14.5015   37.1493 O   0  0  0  0  0  0  0  0  0  0  0  0
   32.8386  -15.2710   36.2806 H   0  0  0  0  0  0  0  0  0  0  0  0
   35.2915  -16.6165   36.1970 C   0  0  0  0  0  0  0  0  0  0  0  0
   34.0333  -17.3657   36.0144 N   0  0  0  0  0  0  0  0  0  0  0  0
   33.9542  -18.6900   36.4073 C   0  0  0  0  0  0  0  0  0  0  0  0
   35.0288  -19.1795   36.9253 O   0  0  0  0  0  0  0  0  0  0  0  0
   33.2655  -16.8460   35.5946 H   0  0  0  0  0  0  0  0  0  0  0  0
   32.8278  -19.5898   36.3188 C   0  0  0  0  0  0  0  0  0  0  0  0
   31.6692  -19.3118   35.6670 N   0  0  0  0  0  0  0  0  0  0  0  0
   30.8052  -20.3151   35.7046 C   0  0  0  0  0  0  0  0  0  0  0  0
   29.5192  -20.5053   35.1930 C   0  0  0  0  0  0  0  0  0  0  0  0
   28.8505  -21.6816   35.3910 C   0  0  0  0  0  0  0  0  0  0  0  0
   29.4468  -22.7064   36.1077 C   0  0  0  0  0  0  0  0  0  0  0  0
   30.7144  -22.4979   36.6040 C   0  0  0  0  0  0  0  0  0  0  0  0
   31.3923  -21.3209   36.4095 C   0  0  0  0  0  0  0  0  0  0  0  0
   32.6813  -20.8764   36.8085 C   0  0  0  0  0  0  0  0  0  0  0  0
   33.5021  -21.6651   37.5278 O   0  0  0  0  0  0  0  0  0  0  0  0
   31.4530  -18.3953   35.1711 H   0  0  0  0  0  0  0  0  0  0  0  0
   34.3768  -21.5847   37.8989 H   0  0  0  0  0  0  0  0  0  0  0  0
   36.1828  -16.7154   35.0220 C   0  0  0  0  0  0  0  0  0  0  0  0
   37.2803  -17.6766   35.0924 C   0  0  0  0  0  0  0  0  0  0  0  0
   37.8415  -18.0311   36.2954 C   0  0  0  0  0  0  0  0  0  0  0  0
   38.8852  -18.9437   36.3238 C   0  0  0  0  0  0  0  0  0  0  0  0
   39.3998  -19.5280   35.1701 C   0  0  0  0  0  0  0  0  0  0  0  0
   38.8281  -19.1647   33.9760 C   0  0  0  0  0  0  0  0  0  0  0  0
   37.7765  -18.2453   33.9428 C   0  0  0  0  0  0  0  0  0  0  0  0
   34.0391  -12.2923   36.2760 C   0  0  0  0  0  0  0  0  0  0  0  0
   35.4781  -10.3884   35.9496 C   0  0  0  0  0  0  0  0  0  0  0  0
   34.6591  -11.1613   37.0080 C   0  0  0  0  0  0  0  0  0  0  0  0
   33.7132  -10.1584   37.6016 C   0  0  0  0  0  0  0  0  0  0  0  0
   29.6912  -13.7609   40.2348 C   0  0  0  0  0  0  0  0  0  0  0  0
   30.4264  -13.1755   41.3578 C   0  0  0  0  0  0  0  0  0  0  0  0
   31.7075  -12.6946   41.1588 O   0  0  0  0  0  0  0  0  0  0  0  0
   29.9315  -13.0940   42.5043 O   0  0  0  0  0  0  0  0  0  0  0  0
   31.8642  -11.9550   40.4801 H   0  0  0  0  0  0  0  0  0  0  0  0
 68 69  1  0  0  0
 69 70  1  0  0  0
 69 67  1  0  0  0
 67 38  1  0  0  0
 38 39  1  0  0  0
 39 40  1  0  0  0
 40 41  2  0  0  0
 40 43  1  0  0  0
 43 60  1  0  0  0
 60 61  1  0  0  0
 61 62  2  0  0  0
 62 63  1  0  0  0
 63 64  2  0  0  0
 64 65  1  0  0  0
 65 66  2  0  0  0
 43 44  1  0  0  0
 44 45  1  0  0  0
 45 46  2  0  0  0
 45 48  1  0  0  0
 48 49  1  0  0  0
 49 50  1  0  0  0
 50 51  2  0  0  0
 51 52  1  0  0  0
 52 53  2  0  0  0
 53 54  1  0  0  0
 54 55  2  0  0  0
 55 56  1  0  0  0
 56 57  1  0  0  0
 38 34  1  0  0  0
 34 35  2  0  0  0
 34 36  1  0  0  0
 36  1  1  0  0  0
  1 71  1  0  0  0
 71 72  1  0  0  0
 72 73  1  0  0  0
 72 74  2  0  0  0
  1  2  1  0  0  0
  2  3  2  0  0  0
  2  4  1  0  0  0
  4  5  1  0  0  0
  5  6  1  0  0  0
  6  7  1  0  0  0
  7  8  1  0  0  0
  8  9  1  0  0  0
  9 10  2  0  0  0
  9 11  1  0  0  0
 11 13  1  0  0  0
 13 31  1  0  0  0
 31 32  1  0  0  0
 31 33  1  0  0  0
 13 14  1  0  0  0
 14 15  2  0  0  0
 14 16  1  0  0  0
 16 18  1  0  0  0
 18 24  1  0  0  0
 24 25  1  0  0  0
 25 26  2  0  0  0
 26 27  1  0  0  0
 27 28  2  0  0  0
 28 29  1  0  0  0
 29 30  2  0  0  0
 18 19  1  0  0  0
 19 20  1  0  0  0
 19 21  2  0  0  0
 66 61  1  0  0  0
 56 48  2  0  0  0
  8  4  1  0  0  0
 30 25  1  0  0  0
 55 50  1  0  0  0
 39 42  1  0  0  0
 44 47  1  0  0  0
 49 58  1  0  0  0
 57 59  1  0  0  0
 36 37  1  0  0  0
 73 75  1  0  0  0
 11 12  1  0  0  0
 16 17  1  0  0  0
 20 22  1  0  0  0
 20 23  1  0  0  0
M  END
> <minimizedAffinity>
-7.43778

> <CNNscore>
0.2715114355

> <CNNaffinity>
7.3690614700

> <CNN_VS>
2.0007843971

> <CNNaffinity_variance>
0.1084603816

$$$$
[H]OC(=O)C([H])([H])[C@@]([H])(C(=O)N1C([H])([H])C([H])([H])C([H])([H])[C@@]1([H])C(=O)N([H])[C@]([H])(C(=O)N([H])[C@]([H])(C(=O)N([H])[H])C([H])([H])c1c([H])c([H])c([H])c([H])c1[H])C([H])(C([H])([H])[H])C([H])([H])[H])N([H])C(=O)[C@@]([H])(N([H])C(=O)[C@@]([H])(N([H])C(=O)c1c(O[H])c2c([H])c([H])c([H])c([H])c2n1[H])C([H])([H])c1c([H])c([H])c([H])c([H])c1[H])C([H])([H])C([H])(C([H])([H])[H])C([H])([H])[H]


 75 79  0  0  0  0  0  0  0  0999 V2000
   33.0587  -12.8313   38.0564 C   0  0  0  0  0  0  0  0  0  0  0  0
   33.7148  -13.4477   36.9067 C   0  0  0  0  0  0  0  0  0  0  0  0
   33.0329  -13.5793   35.8464 O   0  0  0  0  0  0  0  0  0  0  0  0
   35.0474  -13.9065   36.8902 N   0  0  0  0  0  0  0  0  0  0  0  0
   35.9775  -13.7778   38.0030 C   0  0  0  0  0  0  0  0  0  0  0  0
   37.3586  -13.7918   37.3650 C   0  0  0  0  0  0  0  0  0  0  0  0
   37.1626  -13.9702   35.8826 C   0  0  0  0  0  0  0  0  0  0  0  0
   35.7628  -14.5955   35.8013 C   0  0  0  0  0  0  0  0  0  0  0  0
   35.8260  -16.0409   36.0512 C   0  0  0  0  0  0  0  0  0  0  0  0
   35.0868  -16.5439   36.9314 O   0  0  0  0  0  0  0  0  0  0  0  0
   36.6928  -16.8769   35.3359 N   0  0  0  0  0  0  0  0  0  0  0  0
   37.3019  -16.4779   34.6005 H   0  0  0  0  0  0  0  0  0  0  0  0
   36.7791  -18.3073   35.5917 C   0  0  0  0  0  0  0  0  0  0  0  0
   38.0721  -18.7902   35.0465 C   0  0  0  0  0  0  0  0  0  0  0  0
   38.4800  -18.2402   34.0035 O   0  0  0  0  0  0  0  0  0  0  0  0
   38.8302  -19.8138   35.6545 N   0  0  0  0  0  0  0  0  0  0  0  0
   38.4739  -20.2592   36.5169 H   0  0  0  0  0  0  0  0  0  0  0  0
   40.0875  -20.2182   35.0604 C   0  0  0  0  0  0  0  0  0  0  0  0
   39.9265  -21.4345   34.3012 C   0  0  0  0  0  0  0  0  0  0  0  0
   38.7150  -22.1493   34.0728 N   0  0  0  0  0  0  0  0  0  0  0  0
   40.9439  -21.9760   33.7547 O   0  0  0  0  0  0  0  0  0  0  0  0
   38.4290  -22.4610   33.1280 H   0  0  0  0  0  0  0  0  0  0  0  0
   38.1113  -22.3582   34.8805 H   0  0  0  0  0  0  0  0  0  0  0  0
   41.1410  -20.1104   36.0919 C   0  0  0  0  0  0  0  0  0  0  0  0
   41.9792  -18.9223   36.1023 C   0  0  0  0  0  0  0  0  0  0  0  0
   42.1731  -18.1063   35.0348 C   0  0  0  0  0  0  0  0  0  0  0  0
   42.9585  -16.9693   35.1574 C   0  0  0  0  0  0  0  0  0  0  0  0
   43.5609  -16.6362   36.3586 C   0  0  0  0  0  0  0  0  0  0  0  0
   43.3743  -17.4574   37.4579 C   0  0  0  0  0  0  0  0  0  0  0  0
   42.5993  -18.5669   37.3114 C   0  0  0  0  0  0  0  0  0  0  0  0
   35.6968  -19.0604   34.8318 C   0  0  0  0  0  0  0  0  0  0  0  0
   34.7127  -19.7295   35.7438 C   0  0  0  0  0  0  0  0  0  0  0  0
   35.0522  -18.2704   33.7494 C   0  0  0  0  0  0  0  0  0  0  0  0
   32.5529  -10.3917   37.6920 C   0  0  0  0  0  0  0  0  0  0  0  0
   33.7504  -10.1323   37.9571 O   0  0  0  0  0  0  0  0  0  0  0  0
   32.1554  -11.7470   37.7319 N   0  0  0  0  0  0  0  0  0  0  0  0
   31.1731  -11.9689   37.5215 H   0  0  0  0  0  0  0  0  0  0  0  0
   31.6408   -9.2872   37.3677 C   0  0  0  0  0  0  0  0  0  0  0  0
   30.5923   -9.0650   38.3331 N   0  0  0  0  0  0  0  0  0  0  0  0
   29.4291   -9.8926   38.3754 C   0  0  0  0  0  0  0  0  0  0  0  0
   29.4318  -10.8293   37.4909 O   0  0  0  0  0  0  0  0  0  0  0  0
   30.6717   -8.3121   39.0231 H   0  0  0  0  0  0  0  0  0  0  0  0
   28.2950   -9.7663   39.2895 C   0  0  0  0  0  0  0  0  0  0  0  0
   28.7018  -10.4103   40.5535 N   0  0  0  0  0  0  0  0  0  0  0  0
   28.0681  -11.5654   40.9758 C   0  0  0  0  0  0  0  0  0  0  0  0
   27.1390  -12.0044   40.1968 O   0  0  0  0  0  0  0  0  0  0  0  0
   29.4545   -9.9513   41.0620 H   0  0  0  0  0  0  0  0  0  0  0  0
   28.3146  -12.3436   42.1674 C   0  0  0  0  0  0  0  0  0  0  0  0
   28.8867  -13.5754   42.1783 N   0  0  0  0  0  0  0  0  0  0  0  0
   29.0327  -14.0631   43.4011 C   0  0  0  0  0  0  0  0  0  0  0  0
   29.5557  -15.2532   43.9130 C   0  0  0  0  0  0  0  0  0  0  0  0
   29.5799  -15.4887   45.2598 C   0  0  0  0  0  0  0  0  0  0  0  0
   29.0813  -14.5410   46.1389 C   0  0  0  0  0  0  0  0  0  0  0  0
   28.5694  -13.3755   45.6134 C   0  0  0  0  0  0  0  0  0  0  0  0
   28.5417  -13.1312   44.2636 C   0  0  0  0  0  0  0  0  0  0  0  0
   28.0802  -12.0291   43.4950 C   0  0  0  0  0  0  0  0  0  0  0  0
   27.5362  -10.9458   44.0814 O   0  0  0  0  0  0  0  0  0  0  0  0
   29.1941  -14.1128   41.3127 H   0  0  0  0  0  0  0  0  0  0  0  0
   27.1671  -10.1189   43.7827 H   0  0  0  0  0  0  0  0  0  0  0  0
   27.7239   -8.4194   39.5006 C   0  0  0  0  0  0  0  0  0  0  0  0
   26.5912   -8.3078   40.4160 C   0  0  0  0  0  0  0  0  0  0  0  0
   26.6700   -7.5488   41.5586 C   0  0  0  0  0  0  0  0  0  0  0  0
   25.5760   -7.4694   42.4069 C   0  0  0  0  0  0  0  0  0  0  0  0
   24.3803   -8.1341   42.1503 C   0  0  0  0  0  0  0  0  0  0  0  0
   24.3166   -8.8875   41.0044 C   0  0  0  0  0  0  0  0  0  0  0  0
   25.4166   -8.9705   40.1470 C   0  0  0  0  0  0  0  0  0  0  0  0
   32.3798   -8.0298   36.9755 C   0  0  0  0  0  0  0  0  0  0  0  0
   32.8169   -6.8806   34.9041 C   0  0  0  0  0  0  0  0  0  0  0  0
   33.2224   -8.1036   35.7573 C   0  0  0  0  0  0  0  0  0  0  0  0
   34.7033   -7.9790   35.9678 C   0  0  0  0  0  0  0  0  0  0  0  0
   32.1316  -13.8597   38.7558 C   0  0  0  0  0  0  0  0  0  0  0  0
   31.0791  -13.1775   39.5115 C   0  0  0  0  0  0  0  0  0  0  0  0
   29.7817  -13.1833   39.0330 O   0  0  0  0  0  0  0  0  0  0  0  0
   31.3141  -12.5823   40.5869 O   0  0  0  0  0  0  0  0  0  0  0  0
   29.3064  -14.0693   38.8876 H   0  0  0  0  0  0  0  0  0  0  0  0
 68 69  1  0  0  0
 69 70  1  0  0  0
 69 67  1  0  0  0
 67 38  1  0  0  0
 38 39  1  0  0  0
 39 40  1  0  0  0
 40 41  2  0  0  0
 40 43  1  0  0  0
 43 60  1  0  0  0
 60 61  1  0  0  0
 61 62  2  0  0  0
 62 63  1  0  0  0
 63 64  2  0  0  0
 64 65  1  0  0  0
 65 66  2  0  0  0
 43 44  1  0  0  0
 44 45  1  0  0  0
 45 46  2  0  0  0
 45 48  1  0  0  0
 48 49  1  0  0  0
 49 50  1  0  0  0
 50 51  2  0  0  0
 51 52  1  0  0  0
 52 53  2  0  0  0
 53 54  1  0  0  0
 54 55  2  0  0  0
 55 56  1  0  0  0
 56 57  1  0  0  0
 38 34  1  0  0  0
 34 35  2  0  0  0
 34 36  1  0  0  0
 36  1  1  0  0  0
  1 71  1  0  0  0
 71 72  1  0  0  0
 72 73  1  0  0  0
 72 74  2  0  0  0
  1  2  1  0  0  0
  2  3  2  0  0  0
  2  4  1  0  0  0
  4  5  1  0  0  0
  5  6  1  0  0  0
  6  7  1  0  0  0
  7  8  1  0  0  0
  8  9  1  0  0  0
  9 10  2  0  0  0
  9 11  1  0  0  0
 11 13  1  0  0  0
 13 31  1  0  0  0
 31 32  1  0  0  0
 31 33  1  0  0  0
 13 14  1  0  0  0
 14 15  2  0  0  0
 14 16  1  0  0  0
 16 18  1  0  0  0
 18 24  1  0  0  0
 24 25  1  0  0  0
 25 26  2  0  0  0
 26 27  1  0  0  0
 27 28  2  0  0  0
 28 29  1  0  0  0
 29 30  2  0  0  0
 18 19  1  0  0  0
 19 20  1  0  0  0
 19 21  2  0  0  0
 66 61  1  0  0  0
 56 48  2  0  0  0
  8  4  1  0  0  0
 30 25  1  0  0  0
 55 50  1  0  0  0
 39 42  1  0  0  0
 44 47  1  0  0  0
 49 58  1  0  0  0
 57 59  1  0  0  0
 36 37  1  0  0  0
 73 75  1  0  0  0
 11 12  1  0  0  0
 16 17  1  0  0  0
 20 22  1  0  0  0
 20 23  1  0  0  0
M  END
> <minimizedAffinity>
-8.61289

> <CNNscore>
0.2700982690

> <CNNaffinity>
7.8057556152

> <CNN_VS>
2.1083211899

> <CNNaffinity_variance>
0.0383630469

$$$$
[H]OC(=O)C([H])([H])[C@@]([H])(C(=O)N1C([H])([H])C([H])([H])C([H])([H])[C@@]1([H])C(=O)N([H])[C@]([H])(C(=O)N([H])[C@]([H])(C(=O)N([H])[H])C([H])([H])c1c([H])c([H])c([H])c([H])c1[H])C([H])(C([H])([H])[H])C([H])([H])[H])N([H])C(=O)[C@@]([H])(N([H])C(=O)[C@@]([H])(N([H])C(=O)c1c(O[H])c2c([H])c([H])c([H])c([H])c2n1[H])C([H])([H])c1c([H])c([H])c([H])c([H])c1[H])C([H])([H])C([H])(C([H])([H])[H])C([H])([H])[H]


 75 79  0  0  0  0  0  0  0  0999 V2000
   36.1579  -21.4402   37.5862 C   0  0  0  0  0  0  0  0  0  0  0  0
   37.5384  -21.6850   37.9941 C   0  0  0  0  0  0  0  0  0  0  0  0
   37.9983  -20.9870   38.9469 O   0  0  0  0  0  0  0  0  0  0  0  0
   38.3949  -22.6378   37.4067 N   0  0  0  0  0  0  0  0  0  0  0  0
   38.0040  -23.5544   36.3450 C   0  0  0  0  0  0  0  0  0  0  0  0
   38.9471  -24.7403   36.4819 C   0  0  0  0  0  0  0  0  0  0  0  0
   39.8871  -24.4329   37.6177 C   0  0  0  0  0  0  0  0  0  0  0  0
   39.8125  -22.9023   37.7111 C   0  0  0  0  0  0  0  0  0  0  0  0
   40.6864  -22.2792   36.7092 C   0  0  0  0  0  0  0  0  0  0  0  0
   41.7931  -22.8087   36.4465 O   0  0  0  0  0  0  0  0  0  0  0  0
   40.3210  -21.1051   36.0383 N   0  0  0  0  0  0  0  0  0  0  0  0
   39.4073  -20.6620   36.2375 H   0  0  0  0  0  0  0  0  0  0  0  0
   41.1900  -20.4674   35.0599 C   0  0  0  0  0  0  0  0  0  0  0  0
   42.0861  -19.5341   35.7867 C   0  0  0  0  0  0  0  0  0  0  0  0
   43.3106  -19.7620   35.7126 O   0  0  0  0  0  0  0  0  0  0  0  0
   41.6112  -18.4316   36.5292 N   0  0  0  0  0  0  0  0  0  0  0  0
   40.5927  -18.2611   36.5809 H   0  0  0  0  0  0  0  0  0  0  0  0
   42.5566  -17.5646   37.2012 C   0  0  0  0  0  0  0  0  0  0  0  0
   43.1467  -16.6330   36.2710 C   0  0  0  0  0  0  0  0  0  0  0  0
   42.9007  -16.5474   34.8699 N   0  0  0  0  0  0  0  0  0  0  0  0
   43.9888  -15.7714   36.6900 O   0  0  0  0  0  0  0  0  0  0  0  0
   42.6828  -15.6498   34.4026 H   0  0  0  0  0  0  0  0  0  0  0  0
   42.9436  -17.4123   34.3126 H   0  0  0  0  0  0  0  0  0  0  0  0
   43.4109  -18.4001   38.0716 C   0  0  0  0  0  0  0  0  0  0  0  0
   42.8624  -18.8690   39.3339 C   0  0  0  0  0  0  0  0  0  0  0  0
   43.2576  -18.4307   40.5566 C   0  0  0  0  0  0  0  0  0  0  0  0
   42.6410  -18.9087   41.7036 C   0  0  0  0  0  0  0  0  0  0  0  0
   41.6154  -19.8364   41.6368 C   0  0  0  0  0  0  0  0  0  0  0  0
   41.1997  -20.2950   40.3980 C   0  0  0  0  0  0  0  0  0  0  0  0
   41.8209  -19.8103   39.2879 C   0  0  0  0  0  0  0  0  0  0  0  0
   40.3835  -19.6087   34.0965 C   0  0  0  0  0  0  0  0  0  0  0  0
   41.2136  -19.0759   32.9674 C   0  0  0  0  0  0  0  0  0  0  0  0
   39.1100  -20.2313   33.6472 C   0  0  0  0  0  0  0  0  0  0  0  0
   34.4456  -23.2769   37.7732 C   0  0  0  0  0  0  0  0  0  0  0  0
   34.6915  -23.5893   36.5842 O   0  0  0  0  0  0  0  0  0  0  0  0
   35.1636  -22.1915   38.3236 N   0  0  0  0  0  0  0  0  0  0  0  0
   34.9643  -21.9241   39.2969 H   0  0  0  0  0  0  0  0  0  0  0  0
   33.4332  -24.0401   38.5145 C   0  0  0  0  0  0  0  0  0  0  0  0
   32.1744  -24.2007   37.8286 N   0  0  0  0  0  0  0  0  0  0  0  0
   31.1500  -23.2087   37.9069 C   0  0  0  0  0  0  0  0  0  0  0  0
   31.4741  -22.1901   38.6259 O   0  0  0  0  0  0  0  0  0  0  0  0
   31.9972  -25.0301   37.2542 H   0  0  0  0  0  0  0  0  0  0  0  0
   29.8326  -23.2558   37.2744 C   0  0  0  0  0  0  0  0  0  0  0  0
   28.9762  -22.3124   38.0189 N   0  0  0  0  0  0  0  0  0  0  0  0
   27.6044  -22.4919   38.0383 C   0  0  0  0  0  0  0  0  0  0  0  0
   27.1697  -23.5123   37.3808 O   0  0  0  0  0  0  0  0  0  0  0  0
   29.4615  -21.5548   38.4946 H   0  0  0  0  0  0  0  0  0  0  0  0
   26.6009  -21.6921   38.7012 C   0  0  0  0  0  0  0  0  0  0  0  0
   25.2677  -21.7688   38.4538 N   0  0  0  0  0  0  0  0  0  0  0  0
   24.5558  -20.9536   39.2175 C   0  0  0  0  0  0  0  0  0  0  0  0
   23.1904  -20.6823   39.3347 C   0  0  0  0  0  0  0  0  0  0  0  0
   22.7306  -19.7665   40.2402 C   0  0  0  0  0  0  0  0  0  0  0  0
   23.6223  -19.0918   41.0582 C   0  0  0  0  0  0  0  0  0  0  0  0
   24.9639  -19.3733   40.9257 C   0  0  0  0  0  0  0  0  0  0  0  0
   25.4333  -20.2910   40.0201 C   0  0  0  0  0  0  0  0  0  0  0  0
   26.7407  -20.7490   39.7050 C   0  0  0  0  0  0  0  0  0  0  0  0
   27.8240  -20.2669   40.3433 O   0  0  0  0  0  0  0  0  0  0  0  0
   24.8172  -22.4064   37.7305 H   0  0  0  0  0  0  0  0  0  0  0  0
   28.7651  -20.4146   40.3012 H   0  0  0  0  0  0  0  0  0  0  0  0
   29.7600  -23.0507   35.8123 C   0  0  0  0  0  0  0  0  0  0  0  0
   30.4852  -21.9100   35.2588 C   0  0  0  0  0  0  0  0  0  0  0  0
   29.9743  -20.6367   35.3325 C   0  0  0  0  0  0  0  0  0  0  0  0
   30.6886  -19.5781   34.7921 C   0  0  0  0  0  0  0  0  0  0  0  0
   31.9209  -19.7481   34.1676 C   0  0  0  0  0  0  0  0  0  0  0  0
   32.4186  -21.0259   34.1028 C   0  0  0  0  0  0  0  0  0  0  0  0
   31.7021  -22.0955   34.6458 C   0  0  0  0  0  0  0  0  0  0  0  0
   33.9850  -25.3282   39.0778 C   0  0  0  0  0  0  0  0  0  0  0  0
   35.1365  -25.8617   41.1251 C   0  0  0  0  0  0  0  0  0  0  0  0
   35.3227  -25.2590   39.7143 C   0  0  0  0  0  0  0  0  0  0  0  0
   36.4073  -26.0694   39.0663 C   0  0  0  0  0  0  0  0  0  0  0  0
   35.7690  -19.9672   37.8782 C   0  0  0  0  0  0  0  0  0  0  0  0
   34.6449  -19.5522   37.0364 C   0  0  0  0  0  0  0  0  0  0  0  0
   34.8683  -18.7008   35.9699 O   0  0  0  0  0  0  0  0  0  0  0  0
   33.4759  -19.9444   37.2501 O   0  0  0  0  0  0  0  0  0  0  0  0
   35.5079  -18.9810   35.2319 H   0  0  0  0  0  0  0  0  0  0  0  0
 68 69  1  0  0  0
 69 70  1  0  0  0
 69 67  1  0  0  0
 67 38  1  0  0  0
 38 39  1  0  0  0
 39 40  1  0  0  0
 40 41  2  0  0  0
 40 43  1  0  0  0
 43 60  1  0  0  0
 60 61  1  0  0  0
 61 62  2  0  0  0
 62 63  1  0  0  0
 63 64  2  0  0  0
 64 65  1  0  0  0
 65 66  2  0  0  0
 43 44  1  0  0  0
 44 45  1  0  0  0
 45 46  2  0  0  0
 45 48  1  0  0  0
 48 49  1  0  0  0
 49 50  1  0  0  0
 50 51  2  0  0  0
 51 52  1  0  0  0
 52 53  2  0  0  0
 53 54  1  0  0  0
 54 55  2  0  0  0
 55 56  1  0  0  0
 56 57  1  0  0  0
 38 34  1  0  0  0
 34 35  2  0  0  0
 34 36  1  0  0  0
 36  1  1  0  0  0
  1 71  1  0  0  0
 71 72  1  0  0  0
 72 73  1  0  0  0
 72 74  2  0  0  0
  1  2  1  0  0  0
  2  3  2  0  0  0
  2  4  1  0  0  0
  4  5  1  0  0  0
  5  6  1  0  0  0
  6  7  1  0  0  0
  7  8  1  0  0  0
  8  9  1  0  0  0
  9 10  2  0  0  0
  9 11  1  0  0  0
 11 13  1  0  0  0
 13 31  1  0  0  0
 31 32  1  0  0  0
 31 33  1  0  0  0
 13 14  1  0  0  0
 14 15  2  0  0  0
 14 16  1  0  0  0
 16 18  1  0  0  0
 18 24  1  0  0  0
 24 25  1  0  0  0
 25 26  2  0  0  0
 26 27  1  0  0  0
 27 28  2  0  0  0
 28 29  1  0  0  0
 29 30  2  0  0  0
 18 19  1  0  0  0
 19 20  1  0  0  0
 19 21  2  0  0  0
 66 61  1  0  0  0
 56 48  2  0  0  0
  8  4  1  0  0  0
 30 25  1  0  0  0
 55 50  1  0  0  0
 39 42  1  0  0  0
 44 47  1  0  0  0
 49 58  1  0  0  0
 57 59  1  0  0  0
 36 37  1  0  0  0
 73 75  1  0  0  0
 11 12  1  0  0  0
 16 17  1  0  0  0
 20 22  1  0  0  0
 20 23  1  0  0  0
M  END
> <minimizedAffinity>
-6.39094

> <CNNscore>
0.2696353197

> <CNNaffinity>
6.3611779213

> <CNN_VS>
1.7151982784

> <CNNaffinity_variance>
0.4288747907

$$$$
[H]OC(=O)C([H])([H])[C@@]([H])(C(=O)N1C([H])([H])C([H])([H])C([H])([H])[C@@]1([H])C(=O)N([H])[C@]([H])(C(=O)N([H])[C@]([H])(C(=O)N([H])[H])C([H])([H])c1c([H])c([H])c([H])c([H])c1[H])C([H])(C([H])([H])[H])C([H])([H])[H])N([H])C(=O)[C@@]([H])(N([H])C(=O)[C@@]([H])(N([H])C(=O)c1c(O[H])c2c([H])c([H])c([H])c([H])c2n1[H])C([H])([H])c1c([H])c([H])c([H])c([H])c1[H])C([H])([H])C([H])(C([H])([H])[H])C([H])([H])[H]


 75 79  0  0  0  0  0  0  0  0999 V2000
   33.8853  -12.9157   37.2286 C   0  0  0  0  0  0  0  0  0  0  0  0
   33.9258  -13.9507   36.1993 C   0  0  0  0  0  0  0  0  0  0  0  0
   33.1913  -13.7887   35.1791 O   0  0  0  0  0  0  0  0  0  0  0  0
   34.7194  -15.1140   36.2576 N   0  0  0  0  0  0  0  0  0  0  0  0
   35.6563  -15.4201   37.3294 C   0  0  0  0  0  0  0  0  0  0  0  0
   36.6863  -16.3456   36.6992 C   0  0  0  0  0  0  0  0  0  0  0  0
   36.2687  -16.5690   35.2696 C   0  0  0  0  0  0  0  0  0  0  0  0
   34.7708  -16.2336   35.3005 C   0  0  0  0  0  0  0  0  0  0  0  0
   33.9940  -17.3777   35.7936 C   0  0  0  0  0  0  0  0  0  0  0  0
   32.7988  -17.2061   36.1348 O   0  0  0  0  0  0  0  0  0  0  0  0
   34.5510  -18.6587   35.8980 N   0  0  0  0  0  0  0  0  0  0  0  0
   35.5326  -18.8176   35.6117 H   0  0  0  0  0  0  0  0  0  0  0  0
   33.7960  -19.7945   36.4068 C   0  0  0  0  0  0  0  0  0  0  0  0
   34.6917  -20.5750   37.2961 C   0  0  0  0  0  0  0  0  0  0  0  0
   35.8211  -20.8559   36.8461 O   0  0  0  0  0  0  0  0  0  0  0  0
   34.3190  -20.9900   38.5926 N   0  0  0  0  0  0  0  0  0  0  0  0
   33.3777  -20.7499   38.9466 H   0  0  0  0  0  0  0  0  0  0  0  0
   35.2591  -21.7413   39.3983 C   0  0  0  0  0  0  0  0  0  0  0  0
   34.8353  -23.1139   39.5321 C   0  0  0  0  0  0  0  0  0  0  0  0
   35.5644  -24.1825   40.1299 N   0  0  0  0  0  0  0  0  0  0  0  0
   33.6955  -23.4686   39.0827 O   0  0  0  0  0  0  0  0  0  0  0  0
   35.1394  -24.8153   40.8303 H   0  0  0  0  0  0  0  0  0  0  0  0
   36.5453  -24.3218   39.8492 H   0  0  0  0  0  0  0  0  0  0  0  0
   35.5880  -20.9366   40.5941 C   0  0  0  0  0  0  0  0  0  0  0  0
   34.5100  -20.5697   41.4983 C   0  0  0  0  0  0  0  0  0  0  0  0
   33.5235  -21.4101   41.9029 C   0  0  0  0  0  0  0  0  0  0  0  0
   32.5622  -20.9770   42.8044 C   0  0  0  0  0  0  0  0  0  0  0  0
   32.5799  -19.6895   43.3131 C   0  0  0  0  0  0  0  0  0  0  0  0
   33.5787  -18.8186   42.9111 C   0  0  0  0  0  0  0  0  0  0  0  0
   34.5100  -19.2680   42.0257 C   0  0  0  0  0  0  0  0  0  0  0  0
   33.4044  -20.7354   35.2766 C   0  0  0  0  0  0  0  0  0  0  0  0
   32.3005  -21.6729   35.6646 C   0  0  0  0  0  0  0  0  0  0  0  0
   33.1691  -20.0569   33.9746 C   0  0  0  0  0  0  0  0  0  0  0  0
   33.1126  -10.5210   37.3194 C   0  0  0  0  0  0  0  0  0  0  0  0
   34.2261  -10.2090   37.8037 O   0  0  0  0  0  0  0  0  0  0  0  0
   32.8933  -11.8829   37.0137 N   0  0  0  0  0  0  0  0  0  0  0  0
   31.9803  -12.1492   36.6214 H   0  0  0  0  0  0  0  0  0  0  0  0
   32.1093   -9.4695   37.1077 C   0  0  0  0  0  0  0  0  0  0  0  0
   31.0746   -9.4098   38.1110 N   0  0  0  0  0  0  0  0  0  0  0  0
   29.8968  -10.2120   38.0171 C   0  0  0  0  0  0  0  0  0  0  0  0
   29.8735  -10.9717   36.9769 O   0  0  0  0  0  0  0  0  0  0  0  0
   31.1747   -8.7966   38.9254 H   0  0  0  0  0  0  0  0  0  0  0  0
   28.7742  -10.2357   38.9536 C   0  0  0  0  0  0  0  0  0  0  0  0
   29.1861  -11.0956   40.0799 N   0  0  0  0  0  0  0  0  0  0  0  0
   28.7450  -12.4053   40.1469 C   0  0  0  0  0  0  0  0  0  0  0  0
   27.9823  -12.7834   39.1783 O   0  0  0  0  0  0  0  0  0  0  0  0
   29.7952  -10.6604   40.7695 H   0  0  0  0  0  0  0  0  0  0  0  0
   29.0311  -13.4016   41.1528 C   0  0  0  0  0  0  0  0  0  0  0  0
   29.0075  -13.1735   42.4914 N   0  0  0  0  0  0  0  0  0  0  0  0
   29.2739  -14.2590   43.2022 C   0  0  0  0  0  0  0  0  0  0  0  0
   29.3613  -14.5227   44.5714 C   0  0  0  0  0  0  0  0  0  0  0  0
   29.6577  -15.7770   45.0283 C   0  0  0  0  0  0  0  0  0  0  0  0
   29.8765  -16.8089   44.1301 C   0  0  0  0  0  0  0  0  0  0  0  0
   29.7864  -16.5273   42.7850 C   0  0  0  0  0  0  0  0  0  0  0  0
   29.4892  -15.2717   42.3183 C   0  0  0  0  0  0  0  0  0  0  0  0
   29.3385  -14.7436   41.0080 C   0  0  0  0  0  0  0  0  0  0  0  0
   29.4953  -15.5192   39.9185 O   0  0  0  0  0  0  0  0  0  0  0  0
   28.8000  -12.2341   42.9466 H   0  0  0  0  0  0  0  0  0  0  0  0
   29.4491  -15.3908   38.9748 H   0  0  0  0  0  0  0  0  0  0  0  0
   28.2227   -8.9406   39.4046 C   0  0  0  0  0  0  0  0  0  0  0  0
   26.8831   -8.9490   39.9867 C   0  0  0  0  0  0  0  0  0  0  0  0
   26.5995   -8.2470   41.1332 C   0  0  0  0  0  0  0  0  0  0  0  0
   25.3173   -8.2815   41.6600 C   0  0  0  0  0  0  0  0  0  0  0  0
   24.2856   -9.0068   41.0709 C   0  0  0  0  0  0  0  0  0  0  0  0
   24.5841   -9.7021   39.9254 C   0  0  0  0  0  0  0  0  0  0  0  0
   25.8748   -9.6702   39.3914 C   0  0  0  0  0  0  0  0  0  0  0  0
   32.7378   -8.1300   36.8049 C   0  0  0  0  0  0  0  0  0  0  0  0
   33.1139   -6.7051   34.8995 C   0  0  0  0  0  0  0  0  0  0  0  0
   33.5398   -8.0353   35.5610 C   0  0  0  0  0  0  0  0  0  0  0  0
   35.0275   -7.9431   35.7375 C   0  0  0  0  0  0  0  0  0  0  0  0
   33.4588  -13.5314   38.5871 C   0  0  0  0  0  0  0  0  0  0  0  0
   32.2019  -12.9404   39.0511 C   0  0  0  0  0  0  0  0  0  0  0  0
   31.0382  -13.1638   38.3383 O   0  0  0  0  0  0  0  0  0  0  0  0
   32.1423  -12.2322   40.0812 O   0  0  0  0  0  0  0  0  0  0  0  0
   30.7105  -14.1156   38.2016 H   0  0  0  0  0  0  0  0  0  0  0  0
 68 69  1  0  0  0
 69 70  1  0  0  0
 69 67  1  0  0  0
 67 38  1  0  0  0
 38 39  1  0  0  0
 39 40  1  0  0  0
 40 41  2  0  0  0
 40 43  1  0  0  0
 43 60  1  0  0  0
 60 61  1  0  0  0
 61 62  2  0  0  0
 62 63  1  0  0  0
 63 64  2  0  0  0
 64 65  1  0  0  0
 65 66  2  0  0  0
 43 44  1  0  0  0
 44 45  1  0  0  0
 45 46  2  0  0  0
 45 48  1  0  0  0
 48 49  1  0  0  0
 49 50  1  0  0  0
 50 51  2  0  0  0
 51 52  1  0  0  0
 52 53  2  0  0  0
 53 54  1  0  0  0
 54 55  2  0  0  0
 55 56  1  0  0  0
 56 57  1  0  0  0
 38 34  1  0  0  0
 34 35  2  0  0  0
 34 36  1  0  0  0
 36  1  1  0  0  0
  1 71  1  0  0  0
 71 72  1  0  0  0
 72 73  1  0  0  0
 72 74  2  0  0  0
  1  2  1  0  0  0
  2  3  2  0  0  0
  2  4  1  0  0  0
  4  5  1  0  0  0
  5  6  1  0  0  0
  6  7  1  0  0  0
  7  8  1  0  0  0
  8  9  1  0  0  0
  9 10  2  0  0  0
  9 11  1  0  0  0
 11 13  1  0  0  0
 13 31  1  0  0  0
 31 32  1  0  0  0
 31 33  1  0  0  0
 13 14  1  0  0  0
 14 15  2  0  0  0
 14 16  1  0  0  0
 16 18  1  0  0  0
 18 24  1  0  0  0
 24 25  1  0  0  0
 25 26  2  0  0  0
 26 27  1  0  0  0
 27 28  2  0  0  0
 28 29  1  0  0  0
 29 30  2  0  0  0
 18 19  1  0  0  0
 19 20  1  0  0  0
 19 21  2  0  0  0
 66 61  1  0  0  0
 56 48  2  0  0  0
  8  4  1  0  0  0
 30 25  1  0  0  0
 55 50  1  0  0  0
 39 42  1  0  0  0
 44 47  1  0  0  0
 49 58  1  0  0  0
 57 59  1  0  0  0
 36 37  1  0  0  0
 73 75  1  0  0  0
 11 12  1  0  0  0
 16 17  1  0  0  0
 20 22  1  0  0  0
 20 23  1  0  0  0
M  END
> <minimizedAffinity>
-8.33259

> <CNNscore>
0.2645530701

> <CNNaffinity>
7.7944741249

> <CNN_VS>
2.0620520115

> <CNNaffinity_variance>
0.0273875501

$$$$
[H]OC(=O)C([H])([H])[C@@]([H])(C(=O)N1C([H])([H])C([H])([H])C([H])([H])[C@@]1([H])C(=O)N([H])[C@]([H])(C(=O)N([H])[C@]([H])(C(=O)N([H])[H])C([H])([H])c1c([H])c([H])c([H])c([H])c1[H])C([H])(C([H])([H])[H])C([H])([H])[H])N([H])C(=O)[C@@]([H])(N([H])C(=O)[C@@]([H])(N([H])C(=O)c1c(O[H])c2c([H])c([H])c([H])c([H])c2n1[H])C([H])([H])c1c([H])c([H])c([H])c([H])c1[H])C([H])([H])C([H])(C([H])([H])[H])C([H])([H])[H]


 75 79  0  0  0  0  0  0  0  0999 V2000
   33.5011  -12.3718   38.3038 C   0  0  0  0  0  0  0  0  0  0  0  0
   34.3773  -12.6790   37.1768 C   0  0  0  0  0  0  0  0  0  0  0  0
   34.1564  -12.0759   36.0840 O   0  0  0  0  0  0  0  0  0  0  0  0
   35.4476  -13.5952   37.2151 N   0  0  0  0  0  0  0  0  0  0  0  0
   35.8668  -14.3242   38.4038 C   0  0  0  0  0  0  0  0  0  0  0  0
   37.3355  -14.6454   38.1708 C   0  0  0  0  0  0  0  0  0  0  0  0
   37.6983  -14.1094   36.8110 C   0  0  0  0  0  0  0  0  0  0  0  0
   36.3342  -14.0107   36.1135 C   0  0  0  0  0  0  0  0  0  0  0  0
   35.9286  -15.3178   35.5819 C   0  0  0  0  0  0  0  0  0  0  0  0
   34.7906  -15.4450   35.0692 O   0  0  0  0  0  0  0  0  0  0  0  0
   36.7764  -16.4316   35.6339 N   0  0  0  0  0  0  0  0  0  0  0  0
   37.7215  -16.3399   36.0454 H   0  0  0  0  0  0  0  0  0  0  0  0
   36.3751  -17.7371   35.1301 C   0  0  0  0  0  0  0  0  0  0  0  0
   35.5569  -18.3974   36.1774 C   0  0  0  0  0  0  0  0  0  0  0  0
   35.3138  -17.7286   37.2023 O   0  0  0  0  0  0  0  0  0  0  0  0
   35.0586  -19.7119   36.0507 N   0  0  0  0  0  0  0  0  0  0  0  0
   35.2733  -20.2510   35.1950 H   0  0  0  0  0  0  0  0  0  0  0  0
   34.2594  -20.2771   37.1180 C   0  0  0  0  0  0  0  0  0  0  0  0
   35.0722  -20.5417   38.2803 C   0  0  0  0  0  0  0  0  0  0  0  0
   36.3256  -21.2191   38.3146 N   0  0  0  0  0  0  0  0  0  0  0  0
   34.6756  -20.1536   39.4288 O   0  0  0  0  0  0  0  0  0  0  0  0
   37.1475  -20.8320   38.8109 H   0  0  0  0  0  0  0  0  0  0  0  0
   36.4062  -22.1225   37.8271 H   0  0  0  0  0  0  0  0  0  0  0  0
   33.4040  -21.3365   36.5425 C   0  0  0  0  0  0  0  0  0  0  0  0
   32.0288  -21.0068   36.2042 C   0  0  0  0  0  0  0  0  0  0  0  0
   30.9382  -21.6412   36.7054 C   0  0  0  0  0  0  0  0  0  0  0  0
   29.6631  -21.2230   36.3538 C   0  0  0  0  0  0  0  0  0  0  0  0
   29.4666  -20.1581   35.4913 C   0  0  0  0  0  0  0  0  0  0  0  0
   30.5676  -19.4995   34.9700 C   0  0  0  0  0  0  0  0  0  0  0  0
   31.8079  -19.9293   35.3306 C   0  0  0  0  0  0  0  0  0  0  0  0
   37.5871  -18.6328   34.9188 C   0  0  0  0  0  0  0  0  0  0  0  0
   38.2772  -18.3691   33.6142 C   0  0  0  0  0  0  0  0  0  0  0  0
   38.5180  -18.6794   36.0775 C   0  0  0  0  0  0  0  0  0  0  0  0
   31.8227  -10.7206   37.4112 C   0  0  0  0  0  0  0  0  0  0  0  0
   31.3832  -11.6183   36.6545 O   0  0  0  0  0  0  0  0  0  0  0  0
   32.8981  -11.0558   38.2642 N   0  0  0  0  0  0  0  0  0  0  0  0
   33.2693  -10.3238   38.8844 H   0  0  0  0  0  0  0  0  0  0  0  0
   31.2097   -9.3868   37.3633 C   0  0  0  0  0  0  0  0  0  0  0  0
   30.2922   -9.1036   38.4398 N   0  0  0  0  0  0  0  0  0  0  0  0
   29.0977   -9.8648   38.6220 C   0  0  0  0  0  0  0  0  0  0  0  0
   28.9476  -10.8027   37.7517 O   0  0  0  0  0  0  0  0  0  0  0  0
   30.4914   -8.3543   39.1092 H   0  0  0  0  0  0  0  0  0  0  0  0
   28.0842   -9.6727   39.6582 C   0  0  0  0  0  0  0  0  0  0  0  0
   28.5659  -10.3910   40.8540 N   0  0  0  0  0  0  0  0  0  0  0  0
   28.0182  -11.6158   41.1917 C   0  0  0  0  0  0  0  0  0  0  0  0
   27.0972  -12.0485   40.3997 O   0  0  0  0  0  0  0  0  0  0  0  0
   29.3022   -9.9276   41.3821 H   0  0  0  0  0  0  0  0  0  0  0  0
   28.3465  -12.4721   42.3076 C   0  0  0  0  0  0  0  0  0  0  0  0
   28.8813  -13.7153   42.1933 N   0  0  0  0  0  0  0  0  0  0  0  0
   29.1207  -14.2813   43.3668 C   0  0  0  0  0  0  0  0  0  0  0  0
   29.6523  -15.5128   43.7574 C   0  0  0  0  0  0  0  0  0  0  0  0
   29.7886  -15.8320   45.0801 C   0  0  0  0  0  0  0  0  0  0  0  0
   29.3974  -14.9293   46.0555 C   0  0  0  0  0  0  0  0  0  0  0  0
   28.8750  -13.7217   45.6489 C   0  0  0  0  0  0  0  0  0  0  0  0
   28.7352  -13.3935   44.3240 C   0  0  0  0  0  0  0  0  0  0  0  0
   28.2396  -12.2352   43.6674 C   0  0  0  0  0  0  0  0  0  0  0  0
   27.7812  -11.1780   44.3640 O   0  0  0  0  0  0  0  0  0  0  0  0
   29.0954  -14.2051   41.2730 H   0  0  0  0  0  0  0  0  0  0  0  0
   27.4113  -10.3256   44.1497 H   0  0  0  0  0  0  0  0  0  0  0  0
   27.6608   -8.2897   39.9631 C   0  0  0  0  0  0  0  0  0  0  0  0
   26.5264   -8.1202   40.8674 C   0  0  0  0  0  0  0  0  0  0  0  0
   25.3589   -8.8216   40.6860 C   0  0  0  0  0  0  0  0  0  0  0  0
   24.3008   -8.6318   41.5619 C   0  0  0  0  0  0  0  0  0  0  0  0
   24.3673   -7.7486   42.6356 C   0  0  0  0  0  0  0  0  0  0  0  0
   25.5405   -7.0559   42.8044 C   0  0  0  0  0  0  0  0  0  0  0  0
   26.6091   -7.2438   41.9240 C   0  0  0  0  0  0  0  0  0  0  0  0
   32.2281   -8.2958   37.1321 C   0  0  0  0  0  0  0  0  0  0  0  0
   33.0033   -7.1977   35.1333 C   0  0  0  0  0  0  0  0  0  0  0  0
   33.1523   -8.4775   35.9866 C   0  0  0  0  0  0  0  0  0  0  0  0
   34.6120   -8.5744   36.3222 C   0  0  0  0  0  0  0  0  0  0  0  0
   32.2723  -13.3185   38.2970 C   0  0  0  0  0  0  0  0  0  0  0  0
   31.4675  -13.1305   39.5060 C   0  0  0  0  0  0  0  0  0  0  0  0
   32.0638  -12.6418   40.6540 O   0  0  0  0  0  0  0  0  0  0  0  0
   30.2458  -13.3994   39.5381 O   0  0  0  0  0  0  0  0  0  0  0  0
   32.5140  -11.7313   40.6349 H   0  0  0  0  0  0  0  0  0  0  0  0
 68 69  1  0  0  0
 69 70  1  0  0  0
 69 67  1  0  0  0
 67 38  1  0  0  0
 38 39  1  0  0  0
 39 40  1  0  0  0
 40 41  2  0  0  0
 40 43  1  0  0  0
 43 60  1  0  0  0
 60 61  1  0  0  0
 61 62  2  0  0  0
 62 63  1  0  0  0
 63 64  2  0  0  0
 64 65  1  0  0  0
 65 66  2  0  0  0
 43 44  1  0  0  0
 44 45  1  0  0  0
 45 46  2  0  0  0
 45 48  1  0  0  0
 48 49  1  0  0  0
 49 50  1  0  0  0
 50 51  2  0  0  0
 51 52  1  0  0  0
 52 53  2  0  0  0
 53 54  1  0  0  0
 54 55  2  0  0  0
 55 56  1  0  0  0
 56 57  1  0  0  0
 38 34  1  0  0  0
 34 35  2  0  0  0
 34 36  1  0  0  0
 36  1  1  0  0  0
  1 71  1  0  0  0
 71 72  1  0  0  0
 72 73  1  0  0  0
 72 74  2  0  0  0
  1  2  1  0  0  0
  2  3  2  0  0  0
  2  4  1  0  0  0
  4  5  1  0  0  0
  5  6  1  0  0  0
  6  7  1  0  0  0
  7  8  1  0  0  0
  8  9  1  0  0  0
  9 10  2  0  0  0
  9 11  1  0  0  0
 11 13  1  0  0  0
 13 31  1  0  0  0
 31 32  1  0  0  0
 31 33  1  0  0  0
 13 14  1  0  0  0
 14 15  2  0  0  0
 14 16  1  0  0  0
 16 18  1  0  0  0
 18 24  1  0  0  0
 24 25  1  0  0  0
 25 26  2  0  0  0
 26 27  1  0  0  0
 27 28  2  0  0  0
 28 29  1  0  0  0
 29 30  2  0  0  0
 18 19  1  0  0  0
 19 20  1  0  0  0
 19 21  2  0  0  0
 66 61  1  0  0  0
 56 48  2  0  0  0
  8  4  1  0  0  0
 30 25  1  0  0  0
 55 50  1  0  0  0
 39 42  1  0  0  0
 44 47  1  0  0  0
 49 58  1  0  0  0
 57 59  1  0  0  0
 36 37  1  0  0  0
 73 75  1  0  0  0
 11 12  1  0  0  0
 16 17  1  0  0  0
 20 22  1  0  0  0
 20 23  1  0  0  0
M  END
> <minimizedAffinity>
-8.76605

> <CNNscore>
0.2504439652

> <CNNaffinity>
7.8606615067

> <CNN_VS>
1.9686552286

> <CNNaffinity_variance>
0.2780476213

$$$$
[H]OC(=O)C([H])([H])[C@@]([H])(C(=O)N1C([H])([H])C([H])([H])C([H])([H])[C@@]1([H])C(=O)N([H])[C@]([H])(C(=O)N([H])[C@]([H])(C(=O)N([H])[H])C([H])([H])c1c([H])c([H])c([H])c([H])c1[H])C([H])(C([H])([H])[H])C([H])([H])[H])N([H])C(=O)[C@@]([H])(N([H])C(=O)[C@@]([H])(N([H])C(=O)c1c(O[H])c2c([H])c([H])c([H])c([H])c2n1[H])C([H])([H])c1c([H])c([H])c([H])c([H])c1[H])C([H])([H])C([H])(C([H])([H])[H])C([H])([H])[H]


 75 79  0  0  0  0  0  0  0  0999 V2000
   29.8933  -13.5590   39.4845 C   0  0  0  0  0  0  0  0  0  0  0  0
   29.8440  -12.4618   40.4467 C   0  0  0  0  0  0  0  0  0  0  0  0
   30.7871  -12.3816   41.2898 O   0  0  0  0  0  0  0  0  0  0  0  0
   28.8267  -11.4882   40.5067 N   0  0  0  0  0  0  0  0  0  0  0  0
   27.7081  -11.4063   39.5782 C   0  0  0  0  0  0  0  0  0  0  0  0
   27.2811   -9.9462   39.6043 C   0  0  0  0  0  0  0  0  0  0  0  0
   28.1668   -9.2410   40.5974 C   0  0  0  0  0  0  0  0  0  0  0  0
   28.6663  -10.3934   41.4804 C   0  0  0  0  0  0  0  0  0  0  0  0
   27.6635  -10.7404   42.4951 C   0  0  0  0  0  0  0  0  0  0  0  0
   27.5816  -11.9266   42.8959 O   0  0  0  0  0  0  0  0  0  0  0  0
   26.7904   -9.7836   43.0282 N   0  0  0  0  0  0  0  0  0  0  0  0
   26.8522   -8.7994   42.7143 H   0  0  0  0  0  0  0  0  0  0  0  0
   25.7781  -10.1220   44.0179 C   0  0  0  0  0  0  0  0  0  0  0  0
   24.5118   -9.4588   43.6191 C   0  0  0  0  0  0  0  0  0  0  0  0
   23.4889   -9.7738   44.2604 O   0  0  0  0  0  0  0  0  0  0  0  0
   24.4339   -8.5115   42.5757 N   0  0  0  0  0  0  0  0  0  0  0  0
   25.2921   -8.2658   42.0542 H   0  0  0  0  0  0  0  0  0  0  0  0
   23.1579   -7.9048   42.2577 C   0  0  0  0  0  0  0  0  0  0  0  0
   22.4869   -8.6420   41.2148 C   0  0  0  0  0  0  0  0  0  0  0  0
   21.7599   -9.8595   41.3562 N   0  0  0  0  0  0  0  0  0  0  0  0
   22.5161   -8.2068   40.0161 O   0  0  0  0  0  0  0  0  0  0  0  0
   20.8122   -9.9845   40.9589 H   0  0  0  0  0  0  0  0  0  0  0  0
   22.2002  -10.6345   41.8719 H   0  0  0  0  0  0  0  0  0  0  0  0
   23.3585   -6.4452   42.1362 C   0  0  0  0  0  0  0  0  0  0  0  0
   24.0332   -5.7476   43.2190 C   0  0  0  0  0  0  0  0  0  0  0  0
   23.5602   -5.6531   44.4880 C   0  0  0  0  0  0  0  0  0  0  0  0
   24.3008   -5.0016   45.4635 C   0  0  0  0  0  0  0  0  0  0  0  0
   25.5307   -4.4350   45.1755 C   0  0  0  0  0  0  0  0  0  0  0  0
   26.0285   -4.5215   43.8862 C   0  0  0  0  0  0  0  0  0  0  0  0
   25.2825   -5.1660   42.9475 C   0  0  0  0  0  0  0  0  0  0  0  0
   26.1394   -9.5496   45.3808 C   0  0  0  0  0  0  0  0  0  0  0  0
   27.1774  -10.3657   46.0911 C   0  0  0  0  0  0  0  0  0  0  0  0
   26.4436   -8.0941   45.3677 C   0  0  0  0  0  0  0  0  0  0  0  0
   31.7548  -13.2437   37.8184 C   0  0  0  0  0  0  0  0  0  0  0  0
   31.0412  -12.4030   37.2220 O   0  0  0  0  0  0  0  0  0  0  0  0
   31.2136  -13.8578   38.9701 N   0  0  0  0  0  0  0  0  0  0  0  0
   31.7896  -14.5535   39.4628 H   0  0  0  0  0  0  0  0  0  0  0  0
   33.0912  -13.5454   37.2894 C   0  0  0  0  0  0  0  0  0  0  0  0
   33.2199  -14.8446   36.6758 N   0  0  0  0  0  0  0  0  0  0  0  0
   34.4797  -15.5131   36.6012 C   0  0  0  0  0  0  0  0  0  0  0  0
   35.4468  -14.8492   37.1338 O   0  0  0  0  0  0  0  0  0  0  0  0
   32.3987  -15.3228   36.2934 H   0  0  0  0  0  0  0  0  0  0  0  0
   34.7463  -16.8179   35.9975 C   0  0  0  0  0  0  0  0  0  0  0  0
   36.2139  -16.9642   35.9468 N   0  0  0  0  0  0  0  0  0  0  0  0
   36.7756  -18.1358   35.4711 C   0  0  0  0  0  0  0  0  0  0  0  0
   35.9366  -19.0386   35.0922 O   0  0  0  0  0  0  0  0  0  0  0  0
   36.7502  -16.1645   36.2764 H   0  0  0  0  0  0  0  0  0  0  0  0
   38.1732  -18.4753   35.3386 C   0  0  0  0  0  0  0  0  0  0  0  0
   38.9424  -18.1661   34.2628 N   0  0  0  0  0  0  0  0  0  0  0  0
   40.1998  -18.5594   34.4002 C   0  0  0  0  0  0  0  0  0  0  0  0
   41.3363  -18.4696   33.5928 C   0  0  0  0  0  0  0  0  0  0  0  0
   42.5363  -18.9763   34.0089 C   0  0  0  0  0  0  0  0  0  0  0  0
   42.6385  -19.5897   35.2469 C   0  0  0  0  0  0  0  0  0  0  0  0
   41.5060  -19.6686   36.0266 C   0  0  0  0  0  0  0  0  0  0  0  0
   40.2984  -19.1625   35.6167 C   0  0  0  0  0  0  0  0  0  0  0  0
   39.0169  -19.1179   36.2285 C   0  0  0  0  0  0  0  0  0  0  0  0
   38.8058  -19.6435   37.4501 O   0  0  0  0  0  0  0  0  0  0  0  0
   38.5976  -17.6624   33.3910 H   0  0  0  0  0  0  0  0  0  0  0  0
   38.0599  -19.7317   38.0375 H   0  0  0  0  0  0  0  0  0  0  0  0
   34.0812  -18.0001   36.5847 C   0  0  0  0  0  0  0  0  0  0  0  0
   33.0713  -18.6734   35.7721 C   0  0  0  0  0  0  0  0  0  0  0  0
   32.6939  -18.1765   34.5480 C   0  0  0  0  0  0  0  0  0  0  0  0
   31.7286  -18.8398   33.8058 C   0  0  0  0  0  0  0  0  0  0  0  0
   31.1132  -20.0063   34.2507 C   0  0  0  0  0  0  0  0  0  0  0  0
   31.5015  -20.4909   35.4750 C   0  0  0  0  0  0  0  0  0  0  0  0
   32.4737  -19.8256   36.2263 C   0  0  0  0  0  0  0  0  0  0  0  0
   33.6415  -12.4198   36.4461 C   0  0  0  0  0  0  0  0  0  0  0  0
   35.4643  -10.8777   36.1276 C   0  0  0  0  0  0  0  0  0  0  0  0
   34.4217  -11.3758   37.1537 C   0  0  0  0  0  0  0  0  0  0  0  0
   33.6593  -10.1561   37.5829 C   0  0  0  0  0  0  0  0  0  0  0  0
   29.4771  -14.8873   40.1690 C   0  0  0  0  0  0  0  0  0  0  0  0
   28.0346  -15.1051   40.0420 C   0  0  0  0  0  0  0  0  0  0  0  0
   27.5474  -15.8539   38.9864 O   0  0  0  0  0  0  0  0  0  0  0  0
   27.2175  -14.6324   40.8635 O   0  0  0  0  0  0  0  0  0  0  0  0
   27.8511  -16.8169   38.8743 H   0  0  0  0  0  0  0  0  0  0  0  0
 68 69  1  0  0  0
 69 70  1  0  0  0
 69 67  1  0  0  0
 67 38  1  0  0  0
 38 39  1  0  0  0
 39 40  1  0  0  0
 40 41  2  0  0  0
 40 43  1  0  0  0
 43 60  1  0  0  0
 60 61  1  0  0  0
 61 62  2  0  0  0
 62 63  1  0  0  0
 63 64  2  0  0  0
 64 65  1  0  0  0
 65 66  2  0  0  0
 43 44  1  0  0  0
 44 45  1  0  0  0
 45 46  2  0  0  0
 45 48  1  0  0  0
 48 49  1  0  0  0
 49 50  1  0  0  0
 50 51  2  0  0  0
 51 52  1  0  0  0
 52 53  2  0  0  0
 53 54  1  0  0  0
 54 55  2  0  0  0
 55 56  1  0  0  0
 56 57  1  0  0  0
 38 34  1  0  0  0
 34 35  2  0  0  0
 34 36  1  0  0  0
 36  1  1  0  0  0
  1 71  1  0  0  0
 71 72  1  0  0  0
 72 73  1  0  0  0
 72 74  2  0  0  0
  1  2  1  0  0  0
  2  3  2  0  0  0
  2  4  1  0  0  0
  4  5  1  0  0  0
  5  6  1  0  0  0
  6  7  1  0  0  0
  7  8  1  0  0  0
  8  9  1  0  0  0
  9 10  2  0  0  0
  9 11  1  0  0  0
 11 13  1  0  0  0
 13 31  1  0  0  0
 31 32  1  0  0  0
 31 33  1  0  0  0
 13 14  1  0  0  0
 14 15  2  0  0  0
 14 16  1  0  0  0
 16 18  1  0  0  0
 18 24  1  0  0  0
 24 25  1  0  0  0
 25 26  2  0  0  0
 26 27  1  0  0  0
 27 28  2  0  0  0
 28 29  1  0  0  0
 29 30  2  0  0  0
 18 19  1  0  0  0
 19 20  1  0  0  0
 19 21  2  0  0  0
 66 61  1  0  0  0
 56 48  2  0  0  0
  8  4  1  0  0  0
 30 25  1  0  0  0
 55 50  1  0  0  0
 39 42  1  0  0  0
 44 47  1  0  0  0
 49 58  1  0  0  0
 57 59  1  0  0  0
 36 37  1  0  0  0
 73 75  1  0  0  0
 11 12  1  0  0  0
 16 17  1  0  0  0
 20 22  1  0  0  0
 20 23  1  0  0  0
M  END
> <minimizedAffinity>
-7.24789

> <CNNscore>
0.2492769659

> <CNNaffinity>
6.9742226601

> <CNN_VS>
1.7385131121

> <CNNaffinity_variance>
0.0714315027

$$$$
[H]OC(=O)C([H])([H])[C@@]([H])(C(=O)N1C([H])([H])C([H])([H])C([H])([H])[C@@]1([H])C(=O)N([H])[C@]([H])(C(=O)N([H])[C@]([H])(C(=O)N([H])[H])C([H])([H])c1c([H])c([H])c([H])c([H])c1[H])C([H])(C([H])([H])[H])C([H])([H])[H])N([H])C(=O)[C@@]([H])(N([H])C(=O)[C@@]([H])(N([H])C(=O)c1c(O[H])c2c([H])c([H])c([H])c([H])c2n1[H])C([H])([H])c1c([H])c([H])c([H])c([H])c1[H])C([H])([H])C([H])(C([H])([H])[H])C([H])([H])[H]


 75 79  0  0  0  0  0  0  0  0999 V2000
   33.8337  -12.8054   37.3831 C   0  0  0  0  0  0  0  0  0  0  0  0
   33.9550  -13.8248   36.3447 C   0  0  0  0  0  0  0  0  0  0  0  0
   33.2542  -13.6792   35.2986 O   0  0  0  0  0  0  0  0  0  0  0  0
   34.7919  -14.9564   36.4207 N   0  0  0  0  0  0  0  0  0  0  0  0
   35.6986  -15.2386   37.5245 C   0  0  0  0  0  0  0  0  0  0  0  0
   36.7883  -16.1145   36.9244 C   0  0  0  0  0  0  0  0  0  0  0  0
   36.4350  -16.3361   35.4773 C   0  0  0  0  0  0  0  0  0  0  0  0
   34.9248  -16.0608   35.4539 C   0  0  0  0  0  0  0  0  0  0  0  0
   34.1762  -17.2410   35.9038 C   0  0  0  0  0  0  0  0  0  0  0  0
   32.9501  -17.1334   36.1472 O   0  0  0  0  0  0  0  0  0  0  0  0
   34.7936  -18.4869   36.0732 N   0  0  0  0  0  0  0  0  0  0  0  0
   35.8023  -18.5933   35.8676 H   0  0  0  0  0  0  0  0  0  0  0  0
   34.0651  -19.6574   36.5403 C   0  0  0  0  0  0  0  0  0  0  0  0
   35.0457  -20.5919   37.1466 C   0  0  0  0  0  0  0  0  0  0  0  0
   34.9324  -21.7967   36.8426 O   0  0  0  0  0  0  0  0  0  0  0  0
   36.0701  -20.1722   38.0221 N   0  0  0  0  0  0  0  0  0  0  0  0
   36.1458  -19.1699   38.2642 H   0  0  0  0  0  0  0  0  0  0  0  0
   36.9914  -21.1505   38.5620 C   0  0  0  0  0  0  0  0  0  0  0  0
   36.7045  -21.4107   39.9518 C   0  0  0  0  0  0  0  0  0  0  0  0
   37.6378  -21.4480   41.0282 N   0  0  0  0  0  0  0  0  0  0  0  0
   35.5039  -21.6420   40.3153 O   0  0  0  0  0  0  0  0  0  0  0  0
   37.4786  -20.9353   41.9133 H   0  0  0  0  0  0  0  0  0  0  0  0
   38.4953  -22.0062   40.9122 H   0  0  0  0  0  0  0  0  0  0  0  0
   38.3577  -20.7837   38.1329 C   0  0  0  0  0  0  0  0  0  0  0  0
   38.6151  -20.6200   36.7112 C   0  0  0  0  0  0  0  0  0  0  0  0
   38.6298  -21.6341   35.8086 C   0  0  0  0  0  0  0  0  0  0  0  0
   38.8423  -21.3698   34.4635 C   0  0  0  0  0  0  0  0  0  0  0  0
   39.0432  -20.0786   34.0061 C   0  0  0  0  0  0  0  0  0  0  0  0
   39.0320  -19.0319   34.9128 C   0  0  0  0  0  0  0  0  0  0  0  0
   38.8213  -19.3178   36.2269 C   0  0  0  0  0  0  0  0  0  0  0  0
   33.4381  -20.4070   35.3738 C   0  0  0  0  0  0  0  0  0  0  0  0
   31.9488  -20.5252   35.4995 C   0  0  0  0  0  0  0  0  0  0  0  0
   33.8791  -19.9292   34.0365 C   0  0  0  0  0  0  0  0  0  0  0  0
   33.0626  -10.4085   37.4004 C   0  0  0  0  0  0  0  0  0  0  0  0
   34.1582  -10.0888   37.9193 O   0  0  0  0  0  0  0  0  0  0  0  0
   32.8521  -11.7757   37.1126 N   0  0  0  0  0  0  0  0  0  0  0  0
   31.9536  -12.0483   36.6921 H   0  0  0  0  0  0  0  0  0  0  0  0
   32.0696   -9.3600   37.1323 C   0  0  0  0  0  0  0  0  0  0  0  0
   30.9989   -9.2802   38.0957 N   0  0  0  0  0  0  0  0  0  0  0  0
   29.8522  -10.1271   38.0088 C   0  0  0  0  0  0  0  0  0  0  0  0
   29.8905  -10.9444   37.0137 O   0  0  0  0  0  0  0  0  0  0  0  0
   31.0501   -8.6192   38.8764 H   0  0  0  0  0  0  0  0  0  0  0  0
   28.6988  -10.1374   38.9073 C   0  0  0  0  0  0  0  0  0  0  0  0
   28.9369  -11.2191   39.8825 N   0  0  0  0  0  0  0  0  0  0  0  0
   28.1913  -12.3829   39.8193 C   0  0  0  0  0  0  0  0  0  0  0  0
   27.3170  -12.4303   38.8727 O   0  0  0  0  0  0  0  0  0  0  0  0
   29.6641  -11.0415   40.5720 H   0  0  0  0  0  0  0  0  0  0  0  0
   28.2687  -13.5491   40.6679 C   0  0  0  0  0  0  0  0  0  0  0  0
   27.3970  -14.5898   40.6283 N   0  0  0  0  0  0  0  0  0  0  0  0
   27.7056  -15.5514   41.4855 C   0  0  0  0  0  0  0  0  0  0  0  0
   27.1332  -16.7853   41.8038 C   0  0  0  0  0  0  0  0  0  0  0  0
   27.6888  -17.5933   42.7570 C   0  0  0  0  0  0  0  0  0  0  0  0
   28.8357  -17.1928   43.4231 C   0  0  0  0  0  0  0  0  0  0  0  0
   29.3832  -15.9725   43.0948 C   0  0  0  0  0  0  0  0  0  0  0  0
   28.8323  -15.1562   42.1395 C   0  0  0  0  0  0  0  0  0  0  0  0
   29.2051  -13.8830   41.6314 C   0  0  0  0  0  0  0  0  0  0  0  0
   30.2912  -13.2354   42.0942 O   0  0  0  0  0  0  0  0  0  0  0  0
   26.5496  -14.6518   39.9873 H   0  0  0  0  0  0  0  0  0  0  0  0
   30.7192  -12.4023   41.9150 H   0  0  0  0  0  0  0  0  0  0  0  0
   28.3173   -8.8657   39.5571 C   0  0  0  0  0  0  0  0  0  0  0  0
   26.9867   -8.7915   40.1550 C   0  0  0  0  0  0  0  0  0  0  0  0
   25.9017   -9.3841   39.5555 C   0  0  0  0  0  0  0  0  0  0  0  0
   24.6524   -9.2894   40.1496 C   0  0  0  0  0  0  0  0  0  0  0  0
   24.4424   -8.6102   41.3463 C   0  0  0  0  0  0  0  0  0  0  0  0
   25.5362   -8.0243   41.9336 C   0  0  0  0  0  0  0  0  0  0  0  0
   26.7968   -8.1171   41.3383 C   0  0  0  0  0  0  0  0  0  0  0  0
   32.7113   -8.0272   36.8277 C   0  0  0  0  0  0  0  0  0  0  0  0
   33.1484   -6.5595   34.9684 C   0  0  0  0  0  0  0  0  0  0  0  0
   33.4994   -7.9370   35.5746 C   0  0  0  0  0  0  0  0  0  0  0  0
   34.9924   -7.9443   35.7292 C   0  0  0  0  0  0  0  0  0  0  0  0
   33.3157  -13.4436   38.6987 C   0  0  0  0  0  0  0  0  0  0  0  0
   31.9948  -12.9149   39.0452 C   0  0  0  0  0  0  0  0  0  0  0  0
   30.9061  -13.2223   38.2498 O   0  0  0  0  0  0  0  0  0  0  0  0
   31.8136  -12.1865   40.0464 O   0  0  0  0  0  0  0  0  0  0  0  0
   30.6438  -14.1945   38.1152 H   0  0  0  0  0  0  0  0  0  0  0  0
 68 69  1  0  0  0
 69 70  1  0  0  0
 69 67  1  0  0  0
 67 38  1  0  0  0
 38 39  1  0  0  0
 39 40  1  0  0  0
 40 41  2  0  0  0
 40 43  1  0  0  0
 43 60  1  0  0  0
 60 61  1  0  0  0
 61 62  2  0  0  0
 62 63  1  0  0  0
 63 64  2  0  0  0
 64 65  1  0  0  0
 65 66  2  0  0  0
 43 44  1  0  0  0
 44 45  1  0  0  0
 45 46  2  0  0  0
 45 48  1  0  0  0
 48 49  1  0  0  0
 49 50  1  0  0  0
 50 51  2  0  0  0
 51 52  1  0  0  0
 52 53  2  0  0  0
 53 54  1  0  0  0
 54 55  2  0  0  0
 55 56  1  0  0  0
 56 57  1  0  0  0
 38 34  1  0  0  0
 34 35  2  0  0  0
 34 36  1  0  0  0
 36  1  1  0  0  0
  1 71  1  0  0  0
 71 72  1  0  0  0
 72 73  1  0  0  0
 72 74  2  0  0  0
  1  2  1  0  0  0
  2  3  2  0  0  0
  2  4  1  0  0  0
  4  5  1  0  0  0
  5  6  1  0  0  0
  6  7  1  0  0  0
  7  8  1  0  0  0
  8  9  1  0  0  0
  9 10  2  0  0  0
  9 11  1  0  0  0
 11 13  1  0  0  0
 13 31  1  0  0  0
 31 32  1  0  0  0
 31 33  1  0  0  0
 13 14  1  0  0  0
 14 15  2  0  0  0
 14 16  1  0  0  0
 16 18  1  0  0  0
 18 24  1  0  0  0
 24 25  1  0  0  0
 25 26  2  0  0  0
 26 27  1  0  0  0
 27 28  2  0  0  0
 28 29  1  0  0  0
 29 30  2  0  0  0
 18 19  1  0  0  0
 19 20  1  0  0  0
 19 21  2  0  0  0
 66 61  1  0  0  0
 56 48  2  0  0  0
  8  4  1  0  0  0
 30 25  1  0  0  0
 55 50  1  0  0  0
 39 42  1  0  0  0
 44 47  1  0  0  0
 49 58  1  0  0  0
 57 59  1  0  0  0
 36 37  1  0  0  0
 73 75  1  0  0  0
 11 12  1  0  0  0
 16 17  1  0  0  0
 20 22  1  0  0  0
 20 23  1  0  0  0
M  END
> <minimizedAffinity>
-8.23170

> <CNNscore>
0.2176770270

> <CNNaffinity>
7.8485693932

> <CNN_VS>
1.7084532976

> <CNNaffinity_variance>
0.0226812176

$$$$
[H]N=C(N([H])[H])N([H])C([H])([H])C([H])([H])C([H])([H])[C@@]([H])(C(=O)N([H])[H])N([H])C(=O)[C@]([H])(N([H])C(=O)[C@@]([H])(N([H])C(=O)[C@]([H])(N([H])C(=O)[C@@]([H])(N([H])C(=O)[C@@]([H])(N([H])C(=O)[C@@]([H])(N([H])C(=O)C([H])(C([H])([H])O[H])C([H])([H])O[H])C([H])([H])O[H])C([H])([H])O[H])C([H])([H])O[H])C([H])([H])O[H])C([H])([H])O[H])C([H])([H])O[H]


 76 75  0  0  0  0  0  0  0  0999 V2000
   36.6553  -18.3975   35.3255 C   0  0  0  0  0  0  0  0  0  0  0  0
   36.1505  -16.1018   36.2264 N   0  0  0  0  0  0  0  0  0  0  0  0
   36.3287  -17.4899   36.4221 C   0  0  0  0  0  0  0  0  0  0  0  0
   36.2107  -18.0053   37.5947 O   0  0  0  0  0  0  0  0  0  0  0  0
   36.2179  -15.7023   35.2410 H   0  0  0  0  0  0  0  0  0  0  0  0
   35.8609  -15.1240   37.2376 C   0  0  0  0  0  0  0  0  0  0  0  0
   34.0852  -13.4268   37.9650 N   0  0  0  0  0  0  0  0  0  0  0  0
   34.6199  -14.3551   37.0303 C   0  0  0  0  0  0  0  0  0  0  0  0
   33.9811  -14.5155   35.9679 O   0  0  0  0  0  0  0  0  0  0  0  0
   34.6375  -13.2682   38.8506 H   0  0  0  0  0  0  0  0  0  0  0  0
   32.8679  -12.6846   37.7987 C   0  0  0  0  0  0  0  0  0  0  0  0
   30.5583  -12.8416   38.8824 N   0  0  0  0  0  0  0  0  0  0  0  0
   31.9782  -12.7557   38.9507 C   0  0  0  0  0  0  0  0  0  0  0  0
   32.5018  -12.7397   40.0957 O   0  0  0  0  0  0  0  0  0  0  0  0
   30.1396  -12.8642   37.9279 H   0  0  0  0  0  0  0  0  0  0  0  0
   29.7355  -12.8935   40.0725 C   0  0  0  0  0  0  0  0  0  0  0  0
   29.5382  -14.2423   40.6183 C   0  0  0  0  0  0  0  0  0  0  0  0
   29.1717  -15.3058   39.7654 N   0  0  0  0  0  0  0  0  0  0  0  0
   29.6788  -14.5365   41.8585 O   0  0  0  0  0  0  0  0  0  0  0  0
   28.5954  -16.0831   40.1185 H   0  0  0  0  0  0  0  0  0  0  0  0
   29.4922  -15.2931   38.7811 H   0  0  0  0  0  0  0  0  0  0  0  0
   28.5133  -12.0758   39.9295 C   0  0  0  0  0  0  0  0  0  0  0  0
   27.8472  -12.0068   38.5997 C   0  0  0  0  0  0  0  0  0  0  0  0
   26.6977  -11.0588   38.5091 C   0  0  0  0  0  0  0  0  0  0  0  0
   25.5413  -11.5217   39.2800 N   0  0  0  0  0  0  0  0  0  0  0  0
   25.6540  -11.6941   40.2807 H   0  0  0  0  0  0  0  0  0  0  0  0
   23.0625  -11.5582   39.2588 N   0  0  0  0  0  0  0  0  0  0  0  0
   24.3211  -11.7151   38.6230 C   0  0  0  0  0  0  0  0  0  0  0  0
   24.3004  -12.0582   37.3605 N   0  0  0  0  0  0  0  0  0  0  0  0
   22.3354  -12.2944   39.1922 H   0  0  0  0  0  0  0  0  0  0  0  0
   22.8614  -10.6956   39.7983 H   0  0  0  0  0  0  0  0  0  0  0  0
   23.4185  -12.2122   36.8330 H   0  0  0  0  0  0  0  0  0  0  0  0
   33.1995  -11.1807   37.6162 C   0  0  0  0  0  0  0  0  0  0  0  0
   32.0039  -10.4419   37.6288 O   0  0  0  0  0  0  0  0  0  0  0  0
   32.2145   -9.5516   37.2681 H   0  0  0  0  0  0  0  0  0  0  0  0
   37.0401  -14.2771   37.5960 C   0  0  0  0  0  0  0  0  0  0  0  0
   37.7415  -13.8022   36.5121 O   0  0  0  0  0  0  0  0  0  0  0  0
   38.6915  -13.7071   36.7126 H   0  0  0  0  0  0  0  0  0  0  0  0
   38.0959  -18.3144   35.0491 N   0  0  0  0  0  0  0  0  0  0  0  0
   38.8150  -19.5543   35.0534 C   0  0  0  0  0  0  0  0  0  0  0  0
   38.1968  -20.6339   35.2882 O   0  0  0  0  0  0  0  0  0  0  0  0
   38.5255  -17.3903   34.8659 H   0  0  0  0  0  0  0  0  0  0  0  0
   40.2643  -19.6009   34.7809 C   0  0  0  0  0  0  0  0  0  0  0  0
   40.6042  -20.9725   34.4990 N   0  0  0  0  0  0  0  0  0  0  0  0
   41.7660  -21.6576   34.9060 C   0  0  0  0  0  0  0  0  0  0  0  0
   42.6298  -21.0581   35.5914 O   0  0  0  0  0  0  0  0  0  0  0  0
   39.8997  -21.5172   33.9227 H   0  0  0  0  0  0  0  0  0  0  0  0
   41.9924  -23.0833   34.5338 C   0  0  0  0  0  0  0  0  0  0  0  0
   41.4806  -23.4518   33.2486 N   0  0  0  0  0  0  0  0  0  0  0  0
   40.6569  -24.6455   33.1287 C   0  0  0  0  0  0  0  0  0  0  0  0
   40.4176  -25.3012   34.1596 O   0  0  0  0  0  0  0  0  0  0  0  0
   41.6473  -22.9406   32.3599 H   0  0  0  0  0  0  0  0  0  0  0  0
   40.1010  -25.1028   31.8355 C   0  0  0  0  0  0  0  0  0  0  0  0
   41.0301  -24.6552   30.7917 N   0  0  0  0  0  0  0  0  0  0  0  0
   42.1423  -25.4194   30.3713 C   0  0  0  0  0  0  0  0  0  0  0  0
   42.3617  -26.5287   30.8968 O   0  0  0  0  0  0  0  0  0  0  0  0
   40.7736  -23.7082   30.3925 H   0  0  0  0  0  0  0  0  0  0  0  0
   43.0332  -24.9093   29.3193 C   0  0  0  0  0  0  0  0  0  0  0  0
   42.4621  -23.5735   28.8256 C   0  0  0  0  0  0  0  0  0  0  0  0
   41.5707  -23.8076   27.7791 O   0  0  0  0  0  0  0  0  0  0  0  0
   40.7480  -24.2528   28.0524 H   0  0  0  0  0  0  0  0  0  0  0  0
   43.0977  -25.8608   28.1487 C   0  0  0  0  0  0  0  0  0  0  0  0
   41.9414  -26.6159   28.0253 O   0  0  0  0  0  0  0  0  0  0  0  0
   41.5364  -26.5356   27.1174 H   0  0  0  0  0  0  0  0  0  0  0  0
   39.8614  -26.5702   31.8316 C   0  0  0  0  0  0  0  0  0  0  0  0
   39.1344  -26.8717   30.6733 O   0  0  0  0  0  0  0  0  0  0  0  0
   38.5468  -26.0947   30.5036 H   0  0  0  0  0  0  0  0  0  0  0  0
   43.4532  -23.4116   34.6959 C   0  0  0  0  0  0  0  0  0  0  0  0
   44.2015  -22.7562   33.7387 O   0  0  0  0  0  0  0  0  0  0  0  0
   44.1319  -23.2241   32.8715 H   0  0  0  0  0  0  0  0  0  0  0  0
   40.4881  -18.8489   33.4507 C   0  0  0  0  0  0  0  0  0  0  0  0
   41.1576  -17.6573   33.7139 O   0  0  0  0  0  0  0  0  0  0  0  0
   40.5550  -16.9127   33.8858 H   0  0  0  0  0  0  0  0  0  0  0  0
   35.9356  -17.9501   34.0253 C   0  0  0  0  0  0  0  0  0  0  0  0
   34.5888  -18.0127   34.2578 O   0  0  0  0  0  0  0  0  0  0  0  0
   34.1604  -17.1491   33.9658 H   0  0  0  0  0  0  0  0  0  0  0  0
 27 28  1  0  0  0
 28 29  2  0  0  0
 28 25  1  0  0  0
 25 24  1  0  0  0
 24 23  1  0  0  0
 23 22  1  0  0  0
 22 16  1  0  0  0
 16 12  1  0  0  0
 12 13  1  0  0  0
 13 14  2  0  0  0
 13 11  1  0  0  0
 11 33  1  0  0  0
 33 34  1  0  0  0
 11  7  1  0  0  0
  7  8  1  0  0  0
  8  9  2  0  0  0
  8  6  1  0  0  0
  6 36  1  0  0  0
 36 37  1  0  0  0
  6  2  1  0  0  0
  2  3  1  0  0  0
  3  4  2  0  0  0
  3  1  1  0  0  0
  1 74  1  0  0  0
 74 75  1  0  0  0
  1 39  1  0  0  0
 39 40  1  0  0  0
 40 41  2  0  0  0
 40 43  1  0  0  0
 43 71  1  0  0  0
 71 72  1  0  0  0
 43 44  1  0  0  0
 44 45  1  0  0  0
 45 46  2  0  0  0
 45 48  1  0  0  0
 48 68  1  0  0  0
 68 69  1  0  0  0
 48 49  1  0  0  0
 49 50  1  0  0  0
 50 51  2  0  0  0
 50 53  1  0  0  0
 53 65  1  0  0  0
 65 66  1  0  0  0
 53 54  1  0  0  0
 54 55  1  0  0  0
 55 56  2  0  0  0
 55 58  1  0  0  0
 58 62  1  0  0  0
 62 63  1  0  0  0
 58 59  1  0  0  0
 59 60  1  0  0  0
 16 17  1  0  0  0
 17 18  1  0  0  0
 17 19  2  0  0  0
 27 30  1  0  0  0
 27 31  1  0  0  0
 29 32  1  0  0  0
 25 26  1  0  0  0
 12 15  1  0  0  0
 34 35  1  0  0  0
  7 10  1  0  0  0
 37 38  1  0  0  0
  2  5  1  0  0  0
 75 76  1  0  0  0
 39 42  1  0  0  0
 72 73  1  0  0  0
 44 47  1  0  0  0
 69 70  1  0  0  0
 49 52  1  0  0  0
 66 67  1  0  0  0
 54 57  1  0  0  0
 63 64  1  0  0  0
 60 61  1  0  0  0
 18 20  1  0  0  0
 18 21  1  0  0  0
M  END
> <minimizedAffinity>
-6.41200

> <CNNscore>
0.5481103659

> <CNNaffinity>
5.5907969475

> <CNN_VS>
3.0643737316

> <CNNaffinity_variance>
0.4025019109

$$$$
[H]N=C(N([H])[H])N([H])C([H])([H])C([H])([H])C([H])([H])[C@@]([H])(C(=O)N([H])[H])N([H])C(=O)[C@]([H])(N([H])C(=O)[C@@]([H])(N([H])C(=O)[C@]([H])(N([H])C(=O)[C@@]([H])(N([H])C(=O)[C@@]([H])(N([H])C(=O)[C@@]([H])(N([H])C(=O)C([H])(C([H])([H])O[H])C([H])([H])O[H])C([H])([H])O[H])C([H])([H])O[H])C([H])([H])O[H])C([H])([H])O[H])C([H])([H])O[H])C([H])([H])O[H]


 76 75  0  0  0  0  0  0  0  0999 V2000
   33.6836  -11.8858   37.1515 C   0  0  0  0  0  0  0  0  0  0  0  0
   31.2338  -11.8263   37.7274 N   0  0  0  0  0  0  0  0  0  0  0  0
   32.5083  -12.4285   37.8276 C   0  0  0  0  0  0  0  0  0  0  0  0
   32.6759  -13.4903   38.5339 O   0  0  0  0  0  0  0  0  0  0  0  0
   31.1111  -10.9679   37.1083 H   0  0  0  0  0  0  0  0  0  0  0  0
   30.0278  -12.2601   38.3752 C   0  0  0  0  0  0  0  0  0  0  0  0
   28.4977  -10.4183   39.2860 N   0  0  0  0  0  0  0  0  0  0  0  0
   28.8882  -11.3306   38.2678 C   0  0  0  0  0  0  0  0  0  0  0  0
   28.2077  -11.3289   37.2193 O   0  0  0  0  0  0  0  0  0  0  0  0
   29.0876  -10.3976   40.1611 H   0  0  0  0  0  0  0  0  0  0  0  0
   27.3792   -9.5214   39.2167 C   0  0  0  0  0  0  0  0  0  0  0  0
   26.2277  -11.0645   40.8976 N   0  0  0  0  0  0  0  0  0  0  0  0
   26.2327   -9.9551   40.0048 C   0  0  0  0  0  0  0  0  0  0  0  0
   25.1629   -9.3012   39.8895 O   0  0  0  0  0  0  0  0  0  0  0  0
   27.1233  -11.5902   40.9907 H   0  0  0  0  0  0  0  0  0  0  0  0
   25.0439  -11.4471   41.6382 C   0  0  0  0  0  0  0  0  0  0  0  0
   24.1231  -12.3240   40.9041 C   0  0  0  0  0  0  0  0  0  0  0  0
   23.5609  -11.8976   39.6814 N   0  0  0  0  0  0  0  0  0  0  0  0
   23.7785  -13.4919   41.3065 O   0  0  0  0  0  0  0  0  0  0  0  0
   22.6258  -12.2215   39.3959 H   0  0  0  0  0  0  0  0  0  0  0  0
   24.1032  -11.2562   39.0762 H   0  0  0  0  0  0  0  0  0  0  0  0
   24.4230  -10.2895   42.3144 C   0  0  0  0  0  0  0  0  0  0  0  0
   23.1160  -10.4763   43.0026 C   0  0  0  0  0  0  0  0  0  0  0  0
   22.6922   -9.3503   43.8862 C   0  0  0  0  0  0  0  0  0  0  0  0
   22.4875   -8.1093   43.1352 N   0  0  0  0  0  0  0  0  0  0  0  0
   21.8168   -8.1055   42.3644 H   0  0  0  0  0  0  0  0  0  0  0  0
   24.6026   -6.8197   43.2311 N   0  0  0  0  0  0  0  0  0  0  0  0
   23.2167   -6.9705   43.4945 C   0  0  0  0  0  0  0  0  0  0  0  0
   22.6253   -5.9757   44.1050 N   0  0  0  0  0  0  0  0  0  0  0  0
   25.2604   -6.5348   43.9803 H   0  0  0  0  0  0  0  0  0  0  0  0
   24.9680   -6.9945   42.2764 H   0  0  0  0  0  0  0  0  0  0  0  0
   23.1270   -5.1115   44.3901 H   0  0  0  0  0  0  0  0  0  0  0  0
   27.7867   -8.1404   39.7928 C   0  0  0  0  0  0  0  0  0  0  0  0
   27.5175   -8.1205   41.1720 O   0  0  0  0  0  0  0  0  0  0  0  0
   27.5458   -7.1791   41.4550 H   0  0  0  0  0  0  0  0  0  0  0  0
   30.2536  -12.7768   39.7603 C   0  0  0  0  0  0  0  0  0  0  0  0
   30.1408  -14.1429   39.8760 O   0  0  0  0  0  0  0  0  0  0  0  0
   29.8020  -14.4023   40.7533 H   0  0  0  0  0  0  0  0  0  0  0  0
   34.8716  -12.6351   37.5827 N   0  0  0  0  0  0  0  0  0  0  0  0
   35.2259  -13.7741   36.7880 C   0  0  0  0  0  0  0  0  0  0  0  0
   34.5214  -14.0760   35.7804 O   0  0  0  0  0  0  0  0  0  0  0  0
   35.3941  -12.3211   38.4196 H   0  0  0  0  0  0  0  0  0  0  0  0
   36.4033  -14.6010   37.1154 C   0  0  0  0  0  0  0  0  0  0  0  0
   36.5925  -15.5277   36.0283 N   0  0  0  0  0  0  0  0  0  0  0  0
   36.6398  -16.9332   36.1125 C   0  0  0  0  0  0  0  0  0  0  0  0
   36.5058  -17.4910   37.2288 O   0  0  0  0  0  0  0  0  0  0  0  0
   36.7086  -15.0977   35.0656 H   0  0  0  0  0  0  0  0  0  0  0  0
   36.8508  -17.7731   34.8991 C   0  0  0  0  0  0  0  0  0  0  0  0
   37.7964  -18.8348   35.0668 N   0  0  0  0  0  0  0  0  0  0  0  0
   38.9305  -18.9245   34.1592 C   0  0  0  0  0  0  0  0  0  0  0  0
   39.0421  -18.0606   33.2698 O   0  0  0  0  0  0  0  0  0  0  0  0
   37.7521  -19.5778   35.7912 H   0  0  0  0  0  0  0  0  0  0  0  0
   39.9445  -19.9982   34.2557 C   0  0  0  0  0  0  0  0  0  0  0  0
   39.3132  -21.1162   34.9662 N   0  0  0  0  0  0  0  0  0  0  0  0
   39.6393  -21.4659   36.2962 C   0  0  0  0  0  0  0  0  0  0  0  0
   40.4988  -20.8064   36.9137 O   0  0  0  0  0  0  0  0  0  0  0  0
   38.5927  -21.6222   34.3773 H   0  0  0  0  0  0  0  0  0  0  0  0
   38.9672  -22.5994   36.9473 C   0  0  0  0  0  0  0  0  0  0  0  0
   38.7129  -22.2180   38.4116 C   0  0  0  0  0  0  0  0  0  0  0  0
   38.0414  -20.9970   38.4640 O   0  0  0  0  0  0  0  0  0  0  0  0
   37.1240  -21.0357   38.1373 H   0  0  0  0  0  0  0  0  0  0  0  0
   39.8327  -23.8364   36.9214 C   0  0  0  0  0  0  0  0  0  0  0  0
   40.9110  -23.7012   36.0604 O   0  0  0  0  0  0  0  0  0  0  0  0
   41.7797  -23.8793   36.5169 H   0  0  0  0  0  0  0  0  0  0  0  0
   40.4794  -20.3671   32.9183 C   0  0  0  0  0  0  0  0  0  0  0  0
   41.3671  -19.3561   32.5300 O   0  0  0  0  0  0  0  0  0  0  0  0
   41.0073  -18.5127   32.9002 H   0  0  0  0  0  0  0  0  0  0  0  0
   35.5170  -18.2547   34.3919 C   0  0  0  0  0  0  0  0  0  0  0  0
   34.4973  -17.7631   35.1819 O   0  0  0  0  0  0  0  0  0  0  0  0
   34.4331  -18.2831   36.0193 H   0  0  0  0  0  0  0  0  0  0  0  0
   37.6295  -13.6637   37.0639 C   0  0  0  0  0  0  0  0  0  0  0  0
   38.0724  -13.4295   38.3625 O   0  0  0  0  0  0  0  0  0  0  0  0
   37.6550  -12.6515   38.7719 H   0  0  0  0  0  0  0  0  0  0  0  0
   33.9180  -10.4128   37.5807 C   0  0  0  0  0  0  0  0  0  0  0  0
   32.8912   -9.6669   37.0699 O   0  0  0  0  0  0  0  0  0  0  0  0
   32.5056   -9.0885   37.7990 H   0  0  0  0  0  0  0  0  0  0  0  0
 27 28  1  0  0  0
 28 29  2  0  0  0
 28 25  1  0  0  0
 25 24  1  0  0  0
 24 23  1  0  0  0
 23 22  1  0  0  0
 22 16  1  0  0  0
 16 12  1  0  0  0
 12 13  1  0  0  0
 13 14  2  0  0  0
 13 11  1  0  0  0
 11 33  1  0  0  0
 33 34  1  0  0  0
 11  7  1  0  0  0
  7  8  1  0  0  0
  8  9  2  0  0  0
  8  6  1  0  0  0
  6 36  1  0  0  0
 36 37  1  0  0  0
  6  2  1  0  0  0
  2  3  1  0  0  0
  3  4  2  0  0  0
  3  1  1  0  0  0
  1 74  1  0  0  0
 74 75  1  0  0  0
  1 39  1  0  0  0
 39 40  1  0  0  0
 40 41  2  0  0  0
 40 43  1  0  0  0
 43 71  1  0  0  0
 71 72  1  0  0  0
 43 44  1  0  0  0
 44 45  1  0  0  0
 45 46  2  0  0  0
 45 48  1  0  0  0
 48 68  1  0  0  0
 68 69  1  0  0  0
 48 49  1  0  0  0
 49 50  1  0  0  0
 50 51  2  0  0  0
 50 53  1  0  0  0
 53 65  1  0  0  0
 65 66  1  0  0  0
 53 54  1  0  0  0
 54 55  1  0  0  0
 55 56  2  0  0  0
 55 58  1  0  0  0
 58 62  1  0  0  0
 62 63  1  0  0  0
 58 59  1  0  0  0
 59 60  1  0  0  0
 16 17  1  0  0  0
 17 18  1  0  0  0
 17 19  2  0  0  0
 27 30  1  0  0  0
 27 31  1  0  0  0
 29 32  1  0  0  0
 25 26  1  0  0  0
 12 15  1  0  0  0
 34 35  1  0  0  0
  7 10  1  0  0  0
 37 38  1  0  0  0
  2  5  1  0  0  0
 75 76  1  0  0  0
 39 42  1  0  0  0
 72 73  1  0  0  0
 44 47  1  0  0  0
 69 70  1  0  0  0
 49 52  1  0  0  0
 66 67  1  0  0  0
 54 57  1  0  0  0
 63 64  1  0  0  0
 60 61  1  0  0  0
 18 20  1  0  0  0
 18 21  1  0  0  0
M  END
> <minimizedAffinity>
-6.45340

> <CNNscore>
0.5034052730

> <CNNaffinity>
5.8648080826

> <CNN_VS>
2.9523754120

> <CNNaffinity_variance>
0.2753814757

$$$$
[H]N=C(N([H])[H])N([H])C([H])([H])C([H])([H])C([H])([H])[C@@]([H])(C(=O)N([H])[H])N([H])C(=O)[C@]([H])(N([H])C(=O)[C@@]([H])(N([H])C(=O)[C@]([H])(N([H])C(=O)[C@@]([H])(N([H])C(=O)[C@@]([H])(N([H])C(=O)[C@@]([H])(N([H])C(=O)C([H])(C([H])([H])O[H])C([H])([H])O[H])C([H])([H])O[H])C([H])([H])O[H])C([H])([H])O[H])C([H])([H])O[H])C([H])([H])O[H])C([H])([H])O[H]


 76 75  0  0  0  0  0  0  0  0999 V2000
   34.5287  -13.7145   37.1741 C   0  0  0  0  0  0  0  0  0  0  0  0
   35.4165  -16.0283   36.7327 N   0  0  0  0  0  0  0  0  0  0  0  0
   34.4947  -14.9911   36.4655 C   0  0  0  0  0  0  0  0  0  0  0  0
   33.5833  -15.1410   35.5704 O   0  0  0  0  0  0  0  0  0  0  0  0
   36.1404  -15.8955   37.5031 H   0  0  0  0  0  0  0  0  0  0  0  0
   35.4882  -17.3020   36.0732 C   0  0  0  0  0  0  0  0  0  0  0  0
   35.1378  -19.7860   36.5924 N   0  0  0  0  0  0  0  0  0  0  0  0
   35.5279  -18.4719   36.9697 C   0  0  0  0  0  0  0  0  0  0  0  0
   35.9289  -18.3191   38.1437 O   0  0  0  0  0  0  0  0  0  0  0  0
   34.8256  -19.9237   35.5934 H   0  0  0  0  0  0  0  0  0  0  0  0
   35.1435  -20.9358   37.4517 C   0  0  0  0  0  0  0  0  0  0  0  0
   33.3173  -22.1124   36.1049 N   0  0  0  0  0  0  0  0  0  0  0  0
   33.9479  -21.7604   37.3323 C   0  0  0  0  0  0  0  0  0  0  0  0
   33.4299  -22.1963   38.3940 O   0  0  0  0  0  0  0  0  0  0  0  0
   33.7631  -21.7529   35.2337 H   0  0  0  0  0  0  0  0  0  0  0  0
   32.1197  -22.9249   36.0639 C   0  0  0  0  0  0  0  0  0  0  0  0
   32.3353  -24.3053   35.6123 C   0  0  0  0  0  0  0  0  0  0  0  0
   33.5179  -24.9905   35.9656 N   0  0  0  0  0  0  0  0  0  0  0  0
   31.4980  -24.9587   34.8936 O   0  0  0  0  0  0  0  0  0  0  0  0
   33.9143  -25.7048   35.3383 H   0  0  0  0  0  0  0  0  0  0  0  0
   33.9790  -24.7653   36.8647 H   0  0  0  0  0  0  0  0  0  0  0  0
   30.9950  -22.2109   35.4252 C   0  0  0  0  0  0  0  0  0  0  0  0
   30.5771  -20.8919   35.9750 C   0  0  0  0  0  0  0  0  0  0  0  0
   30.5296  -19.7737   34.9872 C   0  0  0  0  0  0  0  0  0  0  0  0
   31.5213  -19.9389   33.9218 N   0  0  0  0  0  0  0  0  0  0  0  0
   31.2967  -20.5443   33.1300 H   0  0  0  0  0  0  0  0  0  0  0  0
   32.8451  -17.8648   34.2249 N   0  0  0  0  0  0  0  0  0  0  0  0
   32.7436  -19.2653   34.0221 C   0  0  0  0  0  0  0  0  0  0  0  0
   33.8690  -19.9263   33.9289 N   0  0  0  0  0  0  0  0  0  0  0  0
   33.4507  -17.2803   33.6194 H   0  0  0  0  0  0  0  0  0  0  0  0
   32.3084  -17.4143   34.9896 H   0  0  0  0  0  0  0  0  0  0  0  0
   34.7990  -19.4677   33.9975 H   0  0  0  0  0  0  0  0  0  0  0  0
   36.3302  -21.8593   37.0726 C   0  0  0  0  0  0  0  0  0  0  0  0
   35.8357  -23.1363   36.7561 O   0  0  0  0  0  0  0  0  0  0  0  0
   36.6035  -23.7506   36.7667 H   0  0  0  0  0  0  0  0  0  0  0  0
   36.5097  -17.3460   34.9818 C   0  0  0  0  0  0  0  0  0  0  0  0
   36.1947  -18.2008   33.9511 O   0  0  0  0  0  0  0  0  0  0  0  0
   36.9945  -18.5888   33.5492 H   0  0  0  0  0  0  0  0  0  0  0  0
   33.3860  -12.8978   36.7430 N   0  0  0  0  0  0  0  0  0  0  0  0
   32.4835  -12.4758   37.7734 C   0  0  0  0  0  0  0  0  0  0  0  0
   32.7033  -12.8148   38.9732 O   0  0  0  0  0  0  0  0  0  0  0  0
   33.2788  -12.6636   35.7402 H   0  0  0  0  0  0  0  0  0  0  0  0
   31.3038  -11.6446   37.4660 C   0  0  0  0  0  0  0  0  0  0  0  0
   30.3459  -11.8518   38.5223 N   0  0  0  0  0  0  0  0  0  0  0  0
   28.9481  -11.6962   38.4400 C   0  0  0  0  0  0  0  0  0  0  0  0
   28.4276  -11.3434   37.3537 O   0  0  0  0  0  0  0  0  0  0  0  0
   30.7437  -12.1527   39.4585 H   0  0  0  0  0  0  0  0  0  0  0  0
   28.0729  -11.9387   39.6223 C   0  0  0  0  0  0  0  0  0  0  0  0
   26.8994  -11.1203   39.6722 N   0  0  0  0  0  0  0  0  0  0  0  0
   26.2720  -10.8576   40.9588 C   0  0  0  0  0  0  0  0  0  0  0  0
   26.7904  -11.3505   41.9777 O   0  0  0  0  0  0  0  0  0  0  0  0
   26.4288  -10.6840   38.8555 H   0  0  0  0  0  0  0  0  0  0  0  0
   25.0498  -10.0342   41.0954 C   0  0  0  0  0  0  0  0  0  0  0  0
   25.4909   -8.6576   41.3471 N   0  0  0  0  0  0  0  0  0  0  0  0
   24.9524   -7.8523   42.3763 C   0  0  0  0  0  0  0  0  0  0  0  0
   24.0619   -8.3136   43.1174 O   0  0  0  0  0  0  0  0  0  0  0  0
   26.2510   -8.3418   40.6804 H   0  0  0  0  0  0  0  0  0  0  0  0
   25.4413   -6.4800   42.5721 C   0  0  0  0  0  0  0  0  0  0  0  0
   26.9557   -6.4801   42.3258 C   0  0  0  0  0  0  0  0  0  0  0  0
   27.3776   -5.1857   42.0241 O   0  0  0  0  0  0  0  0  0  0  0  0
   27.3285   -4.5681   42.7764 H   0  0  0  0  0  0  0  0  0  0  0  0
   25.1889   -6.0059   43.9833 C   0  0  0  0  0  0  0  0  0  0  0  0
   25.5410   -4.6763   44.1583 O   0  0  0  0  0  0  0  0  0  0  0  0
   24.7872   -4.1337   44.5217 H   0  0  0  0  0  0  0  0  0  0  0  0
   24.1640  -10.1693   39.9088 C   0  0  0  0  0  0  0  0  0  0  0  0
   24.6432   -9.2924   38.9278 O   0  0  0  0  0  0  0  0  0  0  0  0
   25.0067   -8.5086   39.4088 H   0  0  0  0  0  0  0  0  0  0  0  0
   27.7628  -13.4094   39.7158 C   0  0  0  0  0  0  0  0  0  0  0  0
   28.1679  -13.9085   40.9375 O   0  0  0  0  0  0  0  0  0  0  0  0
   29.1449  -14.0540   40.9400 H   0  0  0  0  0  0  0  0  0  0  0  0
   31.7503  -10.1733   37.6101 C   0  0  0  0  0  0  0  0  0  0  0  0
   33.0913  -10.1438   37.9820 O   0  0  0  0  0  0  0  0  0  0  0  0
   33.2182  -10.1433   38.9468 H   0  0  0  0  0  0  0  0  0  0  0  0
   35.8038  -12.9188   36.7868 C   0  0  0  0  0  0  0  0  0  0  0  0
   36.4238  -13.6014   35.7761 O   0  0  0  0  0  0  0  0  0  0  0  0
   36.6408  -12.9630   35.0278 H   0  0  0  0  0  0  0  0  0  0  0  0
 27 28  1  0  0  0
 28 29  2  0  0  0
 28 25  1  0  0  0
 25 24  1  0  0  0
 24 23  1  0  0  0
 23 22  1  0  0  0
 22 16  1  0  0  0
 16 12  1  0  0  0
 12 13  1  0  0  0
 13 14  2  0  0  0
 13 11  1  0  0  0
 11 33  1  0  0  0
 33 34  1  0  0  0
 11  7  1  0  0  0
  7  8  1  0  0  0
  8  9  2  0  0  0
  8  6  1  0  0  0
  6 36  1  0  0  0
 36 37  1  0  0  0
  6  2  1  0  0  0
  2  3  1  0  0  0
  3  4  2  0  0  0
  3  1  1  0  0  0
  1 74  1  0  0  0
 74 75  1  0  0  0
  1 39  1  0  0  0
 39 40  1  0  0  0
 40 41  2  0  0  0
 40 43  1  0  0  0
 43 71  1  0  0  0
 71 72  1  0  0  0
 43 44  1  0  0  0
 44 45  1  0  0  0
 45 46  2  0  0  0
 45 48  1  0  0  0
 48 68  1  0  0  0
 68 69  1  0  0  0
 48 49  1  0  0  0
 49 50  1  0  0  0
 50 51  2  0  0  0
 50 53  1  0  0  0
 53 65  1  0  0  0
 65 66  1  0  0  0
 53 54  1  0  0  0
 54 55  1  0  0  0
 55 56  2  0  0  0
 55 58  1  0  0  0
 58 62  1  0  0  0
 62 63  1  0  0  0
 58 59  1  0  0  0
 59 60  1  0  0  0
 16 17  1  0  0  0
 17 18  1  0  0  0
 17 19  2  0  0  0
 27 30  1  0  0  0
 27 31  1  0  0  0
 29 32  1  0  0  0
 25 26  1  0  0  0
 12 15  1  0  0  0
 34 35  1  0  0  0
  7 10  1  0  0  0
 37 38  1  0  0  0
  2  5  1  0  0  0
 75 76  1  0  0  0
 39 42  1  0  0  0
 72 73  1  0  0  0
 44 47  1  0  0  0
 69 70  1  0  0  0
 49 52  1  0  0  0
 66 67  1  0  0  0
 54 57  1  0  0  0
 63 64  1  0  0  0
 60 61  1  0  0  0
 18 20  1  0  0  0
 18 21  1  0  0  0
M  END
> <minimizedAffinity>
-7.05876

> <CNNscore>
0.3985352516

> <CNNaffinity>
5.9099130630

> <CNN_VS>
2.3553087711

> <CNNaffinity_variance>
0.5576556921

$$$$
[H]N=C(N([H])[H])N([H])C([H])([H])C([H])([H])C([H])([H])[C@@]([H])(C(=O)N([H])[H])N([H])C(=O)[C@]([H])(N([H])C(=O)[C@@]([H])(N([H])C(=O)[C@]([H])(N([H])C(=O)[C@@]([H])(N([H])C(=O)[C@@]([H])(N([H])C(=O)[C@@]([H])(N([H])C(=O)C([H])(C([H])([H])O[H])C([H])([H])O[H])C([H])([H])O[H])C([H])([H])O[H])C([H])([H])O[H])C([H])([H])O[H])C([H])([H])O[H])C([H])([H])O[H]


 76 75  0  0  0  0  0  0  0  0999 V2000
   34.9140  -14.9829   36.6668 C   0  0  0  0  0  0  0  0  0  0  0  0
   35.8255  -17.2257   35.9770 N   0  0  0  0  0  0  0  0  0  0  0  0
   34.7555  -16.3076   36.0726 C   0  0  0  0  0  0  0  0  0  0  0  0
   33.5887  -16.6147   35.6271 O   0  0  0  0  0  0  0  0  0  0  0  0
   36.7742  -16.9634   36.3848 H   0  0  0  0  0  0  0  0  0  0  0  0
   35.7822  -18.5334   35.3849 C   0  0  0  0  0  0  0  0  0  0  0  0
   37.7029  -20.0087   34.5501 N   0  0  0  0  0  0  0  0  0  0  0  0
   36.9881  -19.3563   35.5916 C   0  0  0  0  0  0  0  0  0  0  0  0
   37.4275  -19.5019   36.7528 O   0  0  0  0  0  0  0  0  0  0  0  0
   37.3508  -19.8644   33.5655 H   0  0  0  0  0  0  0  0  0  0  0  0
   38.8636  -20.8346   34.7267 C   0  0  0  0  0  0  0  0  0  0  0  0
   40.9301  -20.6192   36.2154 N   0  0  0  0  0  0  0  0  0  0  0  0
   40.0202  -20.1141   35.2432 C   0  0  0  0  0  0  0  0  0  0  0  0
   40.2342  -18.9559   34.7982 O   0  0  0  0  0  0  0  0  0  0  0  0
   40.7464  -21.5833   36.5672 H   0  0  0  0  0  0  0  0  0  0  0  0
   42.0515  -19.8386   36.6942 C   0  0  0  0  0  0  0  0  0  0  0  0
   43.2558  -19.9266   35.8589 C   0  0  0  0  0  0  0  0  0  0  0  0
   43.5214  -21.0990   35.1187 N   0  0  0  0  0  0  0  0  0  0  0  0
   44.1166  -18.9824   35.7481 O   0  0  0  0  0  0  0  0  0  0  0  0
   44.4917  -21.3859   34.9260 H   0  0  0  0  0  0  0  0  0  0  0  0
   42.7266  -21.6643   34.7717 H   0  0  0  0  0  0  0  0  0  0  0  0
   42.2644  -20.0184   38.1451 C   0  0  0  0  0  0  0  0  0  0  0  0
   41.5570  -21.1275   38.8425 C   0  0  0  0  0  0  0  0  0  0  0  0
   41.2687  -20.8925   40.2882 C   0  0  0  0  0  0  0  0  0  0  0  0
   41.6737  -19.5522   40.7187 N   0  0  0  0  0  0  0  0  0  0  0  0
   42.0744  -18.9138   40.0290 H   0  0  0  0  0  0  0  0  0  0  0  0
   42.4655  -18.4531   42.7951 N   0  0  0  0  0  0  0  0  0  0  0  0
   41.5014  -19.1890   42.0590 C   0  0  0  0  0  0  0  0  0  0  0  0
   40.4107  -19.5274   42.6977 N   0  0  0  0  0  0  0  0  0  0  0  0
   42.7884  -18.7776   43.7254 H   0  0  0  0  0  0  0  0  0  0  0  0
   42.8551  -17.5761   42.4017 H   0  0  0  0  0  0  0  0  0  0  0  0
   40.2404  -19.2793   43.6923 H   0  0  0  0  0  0  0  0  0  0  0  0
   38.5577  -21.9409   35.7696 C   0  0  0  0  0  0  0  0  0  0  0  0
   39.3204  -23.0817   35.4661 O   0  0  0  0  0  0  0  0  0  0  0  0
   38.9310  -23.8288   35.9733 H   0  0  0  0  0  0  0  0  0  0  0  0
   35.2942  -18.5265   33.9714 C   0  0  0  0  0  0  0  0  0  0  0  0
   36.1880  -17.9955   33.0706 O   0  0  0  0  0  0  0  0  0  0  0  0
   35.7319  -17.5538   32.3299 H   0  0  0  0  0  0  0  0  0  0  0  0
   33.7779  -14.1410   36.2680 N   0  0  0  0  0  0  0  0  0  0  0  0
   33.2102  -13.3151   37.2927 C   0  0  0  0  0  0  0  0  0  0  0  0
   33.6972  -13.3461   38.4609 O   0  0  0  0  0  0  0  0  0  0  0  0
   33.4399  -14.1740   35.2899 H   0  0  0  0  0  0  0  0  0  0  0  0
   32.0713  -12.4199   37.0125 C   0  0  0  0  0  0  0  0  0  0  0  0
   31.1270  -12.5767   38.0895 N   0  0  0  0  0  0  0  0  0  0  0  0
   29.8266  -12.0395   38.1602 C   0  0  0  0  0  0  0  0  0  0  0  0
   29.3918  -11.3442   37.2100 O   0  0  0  0  0  0  0  0  0  0  0  0
   31.4539  -13.1594   38.9134 H   0  0  0  0  0  0  0  0  0  0  0  0
   28.9557  -12.2776   39.3465 C   0  0  0  0  0  0  0  0  0  0  0  0
   27.5553  -12.1110   39.1004 N   0  0  0  0  0  0  0  0  0  0  0  0
   26.7101  -11.5660   40.1522 C   0  0  0  0  0  0  0  0  0  0  0  0
   27.2437  -11.2525   41.2325 O   0  0  0  0  0  0  0  0  0  0  0  0
   27.0613  -12.3533   38.2194 H   0  0  0  0  0  0  0  0  0  0  0  0
   25.2522  -11.3752   39.9835 C   0  0  0  0  0  0  0  0  0  0  0  0
   24.9646   -9.9770   40.3230 N   0  0  0  0  0  0  0  0  0  0  0  0
   23.8594   -9.5880   41.1135 C   0  0  0  0  0  0  0  0  0  0  0  0
   23.0813  -10.4568   41.5548 O   0  0  0  0  0  0  0  0  0  0  0  0
   25.6721   -9.3019   39.9160 H   0  0  0  0  0  0  0  0  0  0  0  0
   23.6307   -8.1676   41.4147 C   0  0  0  0  0  0  0  0  0  0  0  0
   24.8329   -7.6577   42.2203 C   0  0  0  0  0  0  0  0  0  0  0  0
   25.4061   -8.7182   42.9213 O   0  0  0  0  0  0  0  0  0  0  0  0
   25.8491   -9.3745   42.3531 H   0  0  0  0  0  0  0  0  0  0  0  0
   22.3855   -7.9790   42.2476 C   0  0  0  0  0  0  0  0  0  0  0  0
   22.5800   -8.3507   43.5692 O   0  0  0  0  0  0  0  0  0  0  0  0
   22.3439   -7.6180   44.2032 H   0  0  0  0  0  0  0  0  0  0  0  0
   24.8043  -11.7623   38.6196 C   0  0  0  0  0  0  0  0  0  0  0  0
   23.4669  -12.1657   38.7178 O   0  0  0  0  0  0  0  0  0  0  0  0
   23.3701  -12.5946   39.6035 H   0  0  0  0  0  0  0  0  0  0  0  0
   29.2875  -13.6200   39.9432 C   0  0  0  0  0  0  0  0  0  0  0  0
   30.2755  -13.4896   40.8984 O   0  0  0  0  0  0  0  0  0  0  0  0
   31.1588  -13.3975   40.4658 H   0  0  0  0  0  0  0  0  0  0  0  0
   32.6008  -10.9756   37.1480 C   0  0  0  0  0  0  0  0  0  0  0  0
   33.0328  -10.7750   38.4559 O   0  0  0  0  0  0  0  0  0  0  0  0
   32.3318  -10.4369   39.0401 H   0  0  0  0  0  0  0  0  0  0  0  0
   36.1860  -14.2917   36.1071 C   0  0  0  0  0  0  0  0  0  0  0  0
   36.6439  -13.4321   37.0679 O   0  0  0  0  0  0  0  0  0  0  0  0
   37.6305  -13.5819   37.2054 H   0  0  0  0  0  0  0  0  0  0  0  0
 27 28  1  0  0  0
 28 29  2  0  0  0
 28 25  1  0  0  0
 25 24  1  0  0  0
 24 23  1  0  0  0
 23 22  1  0  0  0
 22 16  1  0  0  0
 16 12  1  0  0  0
 12 13  1  0  0  0
 13 14  2  0  0  0
 13 11  1  0  0  0
 11 33  1  0  0  0
 33 34  1  0  0  0
 11  7  1  0  0  0
  7  8  1  0  0  0
  8  9  2  0  0  0
  8  6  1  0  0  0
  6 36  1  0  0  0
 36 37  1  0  0  0
  6  2  1  0  0  0
  2  3  1  0  0  0
  3  4  2  0  0  0
  3  1  1  0  0  0
  1 74  1  0  0  0
 74 75  1  0  0  0
  1 39  1  0  0  0
 39 40  1  0  0  0
 40 41  2  0  0  0
 40 43  1  0  0  0
 43 71  1  0  0  0
 71 72  1  0  0  0
 43 44  1  0  0  0
 44 45  1  0  0  0
 45 46  2  0  0  0
 45 48  1  0  0  0
 48 68  1  0  0  0
 68 69  1  0  0  0
 48 49  1  0  0  0
 49 50  1  0  0  0
 50 51  2  0  0  0
 50 53  1  0  0  0
 53 65  1  0  0  0
 65 66  1  0  0  0
 53 54  1  0  0  0
 54 55  1  0  0  0
 55 56  2  0  0  0
 55 58  1  0  0  0
 58 62  1  0  0  0
 62 63  1  0  0  0
 58 59  1  0  0  0
 59 60  1  0  0  0
 16 17  1  0  0  0
 17 18  1  0  0  0
 17 19  2  0  0  0
 27 30  1  0  0  0
 27 31  1  0  0  0
 29 32  1  0  0  0
 25 26  1  0  0  0
 12 15  1  0  0  0
 34 35  1  0  0  0
  7 10  1  0  0  0
 37 38  1  0  0  0
  2  5  1  0  0  0
 75 76  1  0  0  0
 39 42  1  0  0  0
 72 73  1  0  0  0
 44 47  1  0  0  0
 69 70  1  0  0  0
 49 52  1  0  0  0
 66 67  1  0  0  0
 54 57  1  0  0  0
 63 64  1  0  0  0
 60 61  1  0  0  0
 18 20  1  0  0  0
 18 21  1  0  0  0
M  END
> <minimizedAffinity>
-6.60555

> <CNNscore>
0.3706845641

> <CNNaffinity>
5.6165461540

> <CNN_VS>
2.0819668770

> <CNNaffinity_variance>
0.3273741901

$$$$
[H]N=C(N([H])[H])N([H])C([H])([H])C([H])([H])C([H])([H])[C@@]([H])(C(=O)N([H])[H])N([H])C(=O)[C@]([H])(N([H])C(=O)[C@@]([H])(N([H])C(=O)[C@]([H])(N([H])C(=O)[C@@]([H])(N([H])C(=O)[C@@]([H])(N([H])C(=O)[C@@]([H])(N([H])C(=O)C([H])(C([H])([H])O[H])C([H])([H])O[H])C([H])([H])O[H])C([H])([H])O[H])C([H])([H])O[H])C([H])([H])O[H])C([H])([H])O[H])C([H])([H])O[H]


 76 75  0  0  0  0  0  0  0  0999 V2000
   34.5339  -13.5248   37.1791 C   0  0  0  0  0  0  0  0  0  0  0  0
   35.4269  -15.8348   36.7284 N   0  0  0  0  0  0  0  0  0  0  0  0
   34.4692  -14.8197   36.5068 C   0  0  0  0  0  0  0  0  0  0  0  0
   33.4954  -15.0072   35.6877 O   0  0  0  0  0  0  0  0  0  0  0  0
   36.2047  -15.6705   37.4378 H   0  0  0  0  0  0  0  0  0  0  0  0
   35.4712  -17.1238   36.0967 C   0  0  0  0  0  0  0  0  0  0  0  0
   34.6973  -19.4824   36.7298 N   0  0  0  0  0  0  0  0  0  0  0  0
   35.3930  -18.2755   37.0141 C   0  0  0  0  0  0  0  0  0  0  0  0
   35.9707  -18.2060   38.1204 O   0  0  0  0  0  0  0  0  0  0  0  0
   34.2324  -19.5549   35.7849 H   0  0  0  0  0  0  0  0  0  0  0  0
   34.5851  -20.6075   37.6141 C   0  0  0  0  0  0  0  0  0  0  0  0
   32.6305  -21.5349   36.2532 N   0  0  0  0  0  0  0  0  0  0  0  0
   33.3300  -21.3352   37.4775 C   0  0  0  0  0  0  0  0  0  0  0  0
   32.8222  -21.8260   38.5199 O   0  0  0  0  0  0  0  0  0  0  0  0
   33.0680  -21.1319   35.3970 H   0  0  0  0  0  0  0  0  0  0  0  0
   31.3772  -22.2574   36.1956 C   0  0  0  0  0  0  0  0  0  0  0  0
   31.2274  -23.1245   35.0202 C   0  0  0  0  0  0  0  0  0  0  0  0
   32.0108  -22.8986   33.8678 N   0  0  0  0  0  0  0  0  0  0  0  0
   30.4066  -24.1081   34.9605 O   0  0  0  0  0  0  0  0  0  0  0  0
   31.6445  -23.1316   32.9338 H   0  0  0  0  0  0  0  0  0  0  0  0
   32.9589  -22.4971   33.9762 H   0  0  0  0  0  0  0  0  0  0  0  0
   30.2258  -21.3816   36.4958 C   0  0  0  0  0  0  0  0  0  0  0  0
   29.5785  -20.6388   35.3795 C   0  0  0  0  0  0  0  0  0  0  0  0
   30.2447  -19.3607   34.9912 C   0  0  0  0  0  0  0  0  0  0  0  0
   31.1942  -19.5478   33.8915 N   0  0  0  0  0  0  0  0  0  0  0  0
   30.8812  -20.0323   33.0481 H   0  0  0  0  0  0  0  0  0  0  0  0
   32.7955  -17.6938   34.2720 N   0  0  0  0  0  0  0  0  0  0  0  0
   32.4982  -19.0599   34.0304 C   0  0  0  0  0  0  0  0  0  0  0  0
   33.5187  -19.8736   33.9388 N   0  0  0  0  0  0  0  0  0  0  0  0
   33.4912  -17.1883   33.6927 H   0  0  0  0  0  0  0  0  0  0  0  0
   32.3134  -17.1891   35.0392 H   0  0  0  0  0  0  0  0  0  0  0  0
   34.5033  -19.5555   34.0354 H   0  0  0  0  0  0  0  0  0  0  0  0
   35.7027  -21.6330   37.2912 C   0  0  0  0  0  0  0  0  0  0  0  0
   35.1148  -22.8207   36.8228 O   0  0  0  0  0  0  0  0  0  0  0  0
   35.8067  -23.5182   36.8661 H   0  0  0  0  0  0  0  0  0  0  0  0
   36.5545  -17.2435   35.0727 C   0  0  0  0  0  0  0  0  0  0  0  0
   36.4553  -18.3616   34.2775 O   0  0  0  0  0  0  0  0  0  0  0  0
   37.3334  -18.6849   34.0013 H   0  0  0  0  0  0  0  0  0  0  0  0
   33.4106  -12.6938   36.7252 N   0  0  0  0  0  0  0  0  0  0  0  0
   32.4778  -12.2829   37.7330 C   0  0  0  0  0  0  0  0  0  0  0  0
   32.6567  -12.6431   38.9334 O   0  0  0  0  0  0  0  0  0  0  0  0
   33.3371  -12.4422   35.7235 H   0  0  0  0  0  0  0  0  0  0  0  0
   31.3136  -11.4392   37.4018 C   0  0  0  0  0  0  0  0  0  0  0  0
   30.3460  -11.6101   38.4558 N   0  0  0  0  0  0  0  0  0  0  0  0
   28.9436  -11.5498   38.3355 C   0  0  0  0  0  0  0  0  0  0  0  0
   28.4278  -11.3287   37.2128 O   0  0  0  0  0  0  0  0  0  0  0  0
   30.7397  -11.8006   39.4221 H   0  0  0  0  0  0  0  0  0  0  0  0
   28.0578  -11.7394   39.5195 C   0  0  0  0  0  0  0  0  0  0  0  0
   27.0265  -10.7558   39.6552 N   0  0  0  0  0  0  0  0  0  0  0  0
   27.2108   -9.6598   40.5947 C   0  0  0  0  0  0  0  0  0  0  0  0
   28.2726   -9.6129   41.2431 O   0  0  0  0  0  0  0  0  0  0  0  0
   26.1255  -10.7464   39.1386 H   0  0  0  0  0  0  0  0  0  0  0  0
   26.1883   -8.6106   40.8047 C   0  0  0  0  0  0  0  0  0  0  0  0
   24.9055   -9.2986   40.9897 N   0  0  0  0  0  0  0  0  0  0  0  0
   24.0136   -9.5644   39.9258 C   0  0  0  0  0  0  0  0  0  0  0  0
   24.3116   -9.2083   38.7685 O   0  0  0  0  0  0  0  0  0  0  0  0
   24.7281   -9.5724   41.9974 H   0  0  0  0  0  0  0  0  0  0  0  0
   22.7436  -10.2582   40.1831 C   0  0  0  0  0  0  0  0  0  0  0  0
   21.6143   -9.2239   40.0870 C   0  0  0  0  0  0  0  0  0  0  0  0
   22.1374   -7.9455   40.2781 O   0  0  0  0  0  0  0  0  0  0  0  0
   22.7097   -7.6394   39.5510 H   0  0  0  0  0  0  0  0  0  0  0  0
   22.7205  -10.8605   41.5675 C   0  0  0  0  0  0  0  0  0  0  0  0
   22.2777   -9.9579   42.5223 O   0  0  0  0  0  0  0  0  0  0  0  0
   21.5089  -10.3150   43.0477 H   0  0  0  0  0  0  0  0  0  0  0  0
   26.5509   -7.7114   41.9320 C   0  0  0  0  0  0  0  0  0  0  0  0
   27.3602   -6.6941   41.4112 O   0  0  0  0  0  0  0  0  0  0  0  0
   27.8882   -7.1043   40.6826 H   0  0  0  0  0  0  0  0  0  0  0  0
   27.5243  -13.1477   39.5186 C   0  0  0  0  0  0  0  0  0  0  0  0
   26.5187  -13.2793   38.5821 O   0  0  0  0  0  0  0  0  0  0  0  0
   25.6764  -12.8974   38.9294 H   0  0  0  0  0  0  0  0  0  0  0  0
   31.7830   -9.9727   37.5198 C   0  0  0  0  0  0  0  0  0  0  0  0
   33.1317   -9.9576   37.8634 O   0  0  0  0  0  0  0  0  0  0  0  0
   33.2788   -9.9481   38.8254 H   0  0  0  0  0  0  0  0  0  0  0  0
   35.8272  -12.7708   36.7695 C   0  0  0  0  0  0  0  0  0  0  0  0
   35.4820  -11.8461   35.8222 O   0  0  0  0  0  0  0  0  0  0  0  0
   35.8708  -10.9514   36.0735 H   0  0  0  0  0  0  0  0  0  0  0  0
 27 28  1  0  0  0
 28 29  2  0  0  0
 28 25  1  0  0  0
 25 24  1  0  0  0
 24 23  1  0  0  0
 23 22  1  0  0  0
 22 16  1  0  0  0
 16 12  1  0  0  0
 12 13  1  0  0  0
 13 14  2  0  0  0
 13 11  1  0  0  0
 11 33  1  0  0  0
 33 34  1  0  0  0
 11  7  1  0  0  0
  7  8  1  0  0  0
  8  9  2  0  0  0
  8  6  1  0  0  0
  6 36  1  0  0  0
 36 37  1  0  0  0
  6  2  1  0  0  0
  2  3  1  0  0  0
  3  4  2  0  0  0
  3  1  1  0  0  0
  1 74  1  0  0  0
 74 75  1  0  0  0
  1 39  1  0  0  0
 39 40  1  0  0  0
 40 41  2  0  0  0
 40 43  1  0  0  0
 43 71  1  0  0  0
 71 72  1  0  0  0
 43 44  1  0  0  0
 44 45  1  0  0  0
 45 46  2  0  0  0
 45 48  1  0  0  0
 48 68  1  0  0  0
 68 69  1  0  0  0
 48 49  1  0  0  0
 49 50  1  0  0  0
 50 51  2  0  0  0
 50 53  1  0  0  0
 53 65  1  0  0  0
 65 66  1  0  0  0
 53 54  1  0  0  0
 54 55  1  0  0  0
 55 56  2  0  0  0
 55 58  1  0  0  0
 58 62  1  0  0  0
 62 63  1  0  0  0
 58 59  1  0  0  0
 59 60  1  0  0  0
 16 17  1  0  0  0
 17 18  1  0  0  0
 17 19  2  0  0  0
 27 30  1  0  0  0
 27 31  1  0  0  0
 29 32  1  0  0  0
 25 26  1  0  0  0
 12 15  1  0  0  0
 34 35  1  0  0  0
  7 10  1  0  0  0
 37 38  1  0  0  0
  2  5  1  0  0  0
 75 76  1  0  0  0
 39 42  1  0  0  0
 72 73  1  0  0  0
 44 47  1  0  0  0
 69 70  1  0  0  0
 49 52  1  0  0  0
 66 67  1  0  0  0
 54 57  1  0  0  0
 63 64  1  0  0  0
 60 61  1  0  0  0
 18 20  1  0  0  0
 18 21  1  0  0  0
M  END
> <minimizedAffinity>
-7.52772

> <CNNscore>
0.3428761065

> <CNNaffinity>
5.6660056114

> <CNN_VS>
1.9427379370

> <CNNaffinity_variance>
1.1412719488

$$$$
[H]N=C(N([H])[H])N([H])C([H])([H])C([H])([H])C([H])([H])[C@@]([H])(C(=O)N([H])[H])N([H])C(=O)[C@]([H])(N([H])C(=O)[C@@]([H])(N([H])C(=O)[C@]([H])(N([H])C(=O)[C@@]([H])(N([H])C(=O)[C@@]([H])(N([H])C(=O)[C@@]([H])(N([H])C(=O)C([H])(C([H])([H])O[H])C([H])([H])O[H])C([H])([H])O[H])C([H])([H])O[H])C([H])([H])O[H])C([H])([H])O[H])C([H])([H])O[H])C([H])([H])O[H]


 76 75  0  0  0  0  0  0  0  0999 V2000
   28.0258  -11.5922   39.6235 C   0  0  0  0  0  0  0  0  0  0  0  0
   30.3896  -11.6949   38.7641 N   0  0  0  0  0  0  0  0  0  0  0  0
   29.0065  -11.5059   38.5448 C   0  0  0  0  0  0  0  0  0  0  0  0
   28.5613  -11.2429   37.3671 O   0  0  0  0  0  0  0  0  0  0  0  0
   30.7318  -11.9469   39.7411 H   0  0  0  0  0  0  0  0  0  0  0  0
   31.4337  -11.6000   37.7827 C   0  0  0  0  0  0  0  0  0  0  0  0
   33.2160  -13.2162   36.9028 N   0  0  0  0  0  0  0  0  0  0  0  0
   32.5539  -12.5413   37.9647 C   0  0  0  0  0  0  0  0  0  0  0  0
   32.9641  -12.7745   39.1223 O   0  0  0  0  0  0  0  0  0  0  0  0
   32.8905  -12.9995   35.9223 H   0  0  0  0  0  0  0  0  0  0  0  0
   34.2912  -14.1549   37.0543 C   0  0  0  0  0  0  0  0  0  0  0  0
   34.9233  -16.5112   36.2918 N   0  0  0  0  0  0  0  0  0  0  0  0
   34.2118  -15.2869   36.1401 C   0  0  0  0  0  0  0  0  0  0  0  0
   33.4573  -15.1774   35.1380 O   0  0  0  0  0  0  0  0  0  0  0  0
   35.5361  -16.5915   37.1315 H   0  0  0  0  0  0  0  0  0  0  0  0
   34.8065  -17.5895   35.3329 C   0  0  0  0  0  0  0  0  0  0  0  0
   33.7009  -18.5198   35.5940 C   0  0  0  0  0  0  0  0  0  0  0  0
   32.3640  -18.0930   35.4414 N   0  0  0  0  0  0  0  0  0  0  0  0
   33.8660  -19.7364   35.9647 O   0  0  0  0  0  0  0  0  0  0  0  0
   31.6172  -18.4984   36.0235 H   0  0  0  0  0  0  0  0  0  0  0  0
   32.1459  -17.3684   34.7350 H   0  0  0  0  0  0  0  0  0  0  0  0
   36.1150  -18.2141   35.0489 C   0  0  0  0  0  0  0  0  0  0  0  0
   37.1844  -18.1417   36.0822 C   0  0  0  0  0  0  0  0  0  0  0  0
   38.4600  -18.8332   35.7314 C   0  0  0  0  0  0  0  0  0  0  0  0
   38.2244  -20.1261   35.0841 N   0  0  0  0  0  0  0  0  0  0  0  0
   37.6192  -20.8059   35.5484 H   0  0  0  0  0  0  0  0  0  0  0  0
   38.8285  -19.4750   32.7695 N   0  0  0  0  0  0  0  0  0  0  0  0
   38.8357  -20.3903   33.8535 C   0  0  0  0  0  0  0  0  0  0  0  0
   39.4535  -21.5267   33.6559 N   0  0  0  0  0  0  0  0  0  0  0  0
   38.5418  -19.7751   31.8194 H   0  0  0  0  0  0  0  0  0  0  0  0
   39.1147  -18.4902   32.9244 H   0  0  0  0  0  0  0  0  0  0  0  0
   39.9209  -21.7652   32.7590 H   0  0  0  0  0  0  0  0  0  0  0  0
   35.6383  -13.4541   36.7391 C   0  0  0  0  0  0  0  0  0  0  0  0
   36.1200  -13.9194   35.5035 O   0  0  0  0  0  0  0  0  0  0  0  0
   37.0669  -13.6595   35.4499 H   0  0  0  0  0  0  0  0  0  0  0  0
   31.8674  -10.1940   37.5150 C   0  0  0  0  0  0  0  0  0  0  0  0
   30.9848   -9.2385   37.9627 O   0  0  0  0  0  0  0  0  0  0  0  0
   30.9964   -8.4449   37.3954 H   0  0  0  0  0  0  0  0  0  0  0  0
   26.7158  -11.1645   39.1141 N   0  0  0  0  0  0  0  0  0  0  0  0
   25.5870  -11.9404   39.5365 C   0  0  0  0  0  0  0  0  0  0  0  0
   25.7624  -12.9301   40.3061 O   0  0  0  0  0  0  0  0  0  0  0  0
   26.6582  -10.3419   38.4879 H   0  0  0  0  0  0  0  0  0  0  0  0
   24.2187  -11.6043   39.0985 C   0  0  0  0  0  0  0  0  0  0  0  0
   23.8807  -10.3322   39.6850 N   0  0  0  0  0  0  0  0  0  0  0  0
   23.1837  -10.1139   40.8897 C   0  0  0  0  0  0  0  0  0  0  0  0
   22.7944  -11.0969   41.5662 O   0  0  0  0  0  0  0  0  0  0  0  0
   24.1928   -9.4738   39.1457 H   0  0  0  0  0  0  0  0  0  0  0  0
   22.8948   -8.7346   41.3760 C   0  0  0  0  0  0  0  0  0  0  0  0
   24.0459   -7.8920   41.4957 N   0  0  0  0  0  0  0  0  0  0  0  0
   24.4662   -7.4487   42.8166 C   0  0  0  0  0  0  0  0  0  0  0  0
   23.8090   -7.8311   43.8023 O   0  0  0  0  0  0  0  0  0  0  0  0
   24.6295   -7.5469   40.7088 H   0  0  0  0  0  0  0  0  0  0  0  0
   25.6357   -6.5660   43.0254 C   0  0  0  0  0  0  0  0  0  0  0  0
   25.5583   -6.0780   44.4070 N   0  0  0  0  0  0  0  0  0  0  0  0
   25.9378   -4.7697   44.7841 C   0  0  0  0  0  0  0  0  0  0  0  0
   26.3589   -3.9768   43.9187 O   0  0  0  0  0  0  0  0  0  0  0  0
   25.1874   -6.8073   45.0798 H   0  0  0  0  0  0  0  0  0  0  0  0
   25.8347   -4.3470   46.1881 C   0  0  0  0  0  0  0  0  0  0  0  0
   25.2063   -2.9474   46.2134 C   0  0  0  0  0  0  0  0  0  0  0  0
   23.8168   -3.0613   46.1865 O   0  0  0  0  0  0  0  0  0  0  0  0
   23.4345   -3.4333   47.0022 H   0  0  0  0  0  0  0  0  0  0  0  0
   27.1959   -4.2690   46.8369 C   0  0  0  0  0  0  0  0  0  0  0  0
   27.6672   -5.5174   47.2134 O   0  0  0  0  0  0  0  0  0  0  0  0
   28.5670   -5.7099   46.8289 H   0  0  0  0  0  0  0  0  0  0  0  0
   26.9104   -7.2633   42.7096 C   0  0  0  0  0  0  0  0  0  0  0  0
   26.9874   -7.3825   41.3165 O   0  0  0  0  0  0  0  0  0  0  0  0
   26.0596   -7.5012   40.9957 H   0  0  0  0  0  0  0  0  0  0  0  0
   21.8121   -8.1258   40.5245 C   0  0  0  0  0  0  0  0  0  0  0  0
   22.1680   -8.1705   39.1914 O   0  0  0  0  0  0  0  0  0  0  0  0
   22.8150   -7.4527   38.9864 H   0  0  0  0  0  0  0  0  0  0  0  0
   24.2936  -11.3401   37.5788 C   0  0  0  0  0  0  0  0  0  0  0  0
   23.3714  -10.3516   37.2474 O   0  0  0  0  0  0  0  0  0  0  0  0
   22.4977  -10.7102   37.0127 H   0  0  0  0  0  0  0  0  0  0  0  0
   28.3932  -10.6054   40.7638 C   0  0  0  0  0  0  0  0  0  0  0  0
   28.8905   -9.4712   40.1824 O   0  0  0  0  0  0  0  0  0  0  0  0
   28.4304   -8.6664   40.5764 H   0  0  0  0  0  0  0  0  0  0  0  0
 27 28  1  0  0  0
 28 29  2  0  0  0
 28 25  1  0  0  0
 25 24  1  0  0  0
 24 23  1  0  0  0
 23 22  1  0  0  0
 22 16  1  0  0  0
 16 12  1  0  0  0
 12 13  1  0  0  0
 13 14  2  0  0  0
 13 11  1  0  0  0
 11 33  1  0  0  0
 33 34  1  0  0  0
 11  7  1  0  0  0
  7  8  1  0  0  0
  8  9  2  0  0  0
  8  6  1  0  0  0
  6 36  1  0  0  0
 36 37  1  0  0  0
  6  2  1  0  0  0
  2  3  1  0  0  0
  3  4  2  0  0  0
  3  1  1  0  0  0
  1 74  1  0  0  0
 74 75  1  0  0  0
  1 39  1  0  0  0
 39 40  1  0  0  0
 40 41  2  0  0  0
 40 43  1  0  0  0
 43 71  1  0  0  0
 71 72  1  0  0  0
 43 44  1  0  0  0
 44 45  1  0  0  0
 45 46  2  0  0  0
 45 48  1  0  0  0
 48 68  1  0  0  0
 68 69  1  0  0  0
 48 49  1  0  0  0
 49 50  1  0  0  0
 50 51  2  0  0  0
 50 53  1  0  0  0
 53 65  1  0  0  0
 65 66  1  0  0  0
 53 54  1  0  0  0
 54 55  1  0  0  0
 55 56  2  0  0  0
 55 58  1  0  0  0
 58 62  1  0  0  0
 62 63  1  0  0  0
 58 59  1  0  0  0
 59 60  1  0  0  0
 16 17  1  0  0  0
 17 18  1  0  0  0
 17 19  2  0  0  0
 27 30  1  0  0  0
 27 31  1  0  0  0
 29 32  1  0  0  0
 25 26  1  0  0  0
 12 15  1  0  0  0
 34 35  1  0  0  0
  7 10  1  0  0  0
 37 38  1  0  0  0
  2  5  1  0  0  0
 75 76  1  0  0  0
 39 42  1  0  0  0
 72 73  1  0  0  0
 44 47  1  0  0  0
 69 70  1  0  0  0
 49 52  1  0  0  0
 66 67  1  0  0  0
 54 57  1  0  0  0
 63 64  1  0  0  0
 60 61  1  0  0  0
 18 20  1  0  0  0
 18 21  1  0  0  0
M  END
> <minimizedAffinity>
-7.89612

> <CNNscore>
0.3354746699

> <CNNaffinity>
5.5572156906

> <CNN_VS>
1.8643051386

> <CNNaffinity_variance>
0.8133026958

$$$$
[H]N=C(N([H])[H])N([H])C([H])([H])C([H])([H])C([H])([H])[C@@]([H])(C(=O)N([H])[H])N([H])C(=O)[C@]([H])(N([H])C(=O)[C@@]([H])(N([H])C(=O)[C@]([H])(N([H])C(=O)[C@@]([H])(N([H])C(=O)[C@@]([H])(N([H])C(=O)[C@@]([H])(N([H])C(=O)C([H])(C([H])([H])O[H])C([H])([H])O[H])C([H])([H])O[H])C([H])([H])O[H])C([H])([H])O[H])C([H])([H])O[H])C([H])([H])O[H])C([H])([H])O[H]


 76 75  0  0  0  0  0  0  0  0999 V2000
   33.1819  -11.8620   37.3369 C   0  0  0  0  0  0  0  0  0  0  0  0
   31.3645  -12.3103   39.0199 N   0  0  0  0  0  0  0  0  0  0  0  0
   31.7902  -12.1375   37.6836 C   0  0  0  0  0  0  0  0  0  0  0  0
   30.9500  -12.2233   36.7135 O   0  0  0  0  0  0  0  0  0  0  0  0
   32.0711  -12.1996   39.8096 H   0  0  0  0  0  0  0  0  0  0  0  0
   30.0326  -12.6148   39.4624 C   0  0  0  0  0  0  0  0  0  0  0  0
   28.7975  -10.8254   40.8171 N   0  0  0  0  0  0  0  0  0  0  0  0
   29.1316  -11.4543   39.5865 C   0  0  0  0  0  0  0  0  0  0  0  0
   28.6174  -10.9763   38.5523 O   0  0  0  0  0  0  0  0  0  0  0  0
   29.2524  -11.2090   41.6889 H   0  0  0  0  0  0  0  0  0  0  0  0
   27.9050   -9.7114   40.9679 C   0  0  0  0  0  0  0  0  0  0  0  0
   25.8917   -9.9658   39.4139 N   0  0  0  0  0  0  0  0  0  0  0  0
   26.5114  -10.0379   40.6941 C   0  0  0  0  0  0  0  0  0  0  0  0
   25.7977  -10.4124   41.6614 O   0  0  0  0  0  0  0  0  0  0  0  0
   26.4975   -9.6642   38.6207 H   0  0  0  0  0  0  0  0  0  0  0  0
   24.4946  -10.2918   39.2192 C   0  0  0  0  0  0  0  0  0  0  0  0
   24.2278  -11.7175   38.9910 C   0  0  0  0  0  0  0  0  0  0  0  0
   24.9975  -12.4421   38.0555 N   0  0  0  0  0  0  0  0  0  0  0  0
   23.3130  -12.3776   39.6009 O   0  0  0  0  0  0  0  0  0  0  0  0
   24.5843  -13.2326   37.5403 H   0  0  0  0  0  0  0  0  0  0  0  0
   25.9831  -12.1680   37.8966 H   0  0  0  0  0  0  0  0  0  0  0  0
   23.8407   -9.3596   38.2778 C   0  0  0  0  0  0  0  0  0  0  0  0
   22.5601   -8.7148   38.6791 C   0  0  0  0  0  0  0  0  0  0  0  0
   22.2224   -8.8125   40.1298 C   0  0  0  0  0  0  0  0  0  0  0  0
   22.5496   -7.5822   40.8545 N   0  0  0  0  0  0  0  0  0  0  0  0
   22.2761   -6.6850   40.4495 H   0  0  0  0  0  0  0  0  0  0  0  0
   24.6159   -7.4207   42.2149 N   0  0  0  0  0  0  0  0  0  0  0  0
   23.2268   -7.6736   42.0756 C   0  0  0  0  0  0  0  0  0  0  0  0
   22.5804   -8.0062   43.1635 N   0  0  0  0  0  0  0  0  0  0  0  0
   25.2354   -8.0961   42.6997 H   0  0  0  0  0  0  0  0  0  0  0  0
   25.0223   -6.5480   41.8288 H   0  0  0  0  0  0  0  0  0  0  0  0
   23.0423   -8.0861   44.0910 H   0  0  0  0  0  0  0  0  0  0  0  0
   27.9395   -9.2159   42.4371 C   0  0  0  0  0  0  0  0  0  0  0  0
   27.5194   -7.8754   42.4797 O   0  0  0  0  0  0  0  0  0  0  0  0
   27.7851   -7.5205   43.3575 H   0  0  0  0  0  0  0  0  0  0  0  0
   29.9970  -13.5324   40.6427 C   0  0  0  0  0  0  0  0  0  0  0  0
   30.7400  -13.0975   41.7156 O   0  0  0  0  0  0  0  0  0  0  0  0
   31.1076  -13.8444   42.2243 H   0  0  0  0  0  0  0  0  0  0  0  0
   34.0384  -12.8895   37.9444 N   0  0  0  0  0  0  0  0  0  0  0  0
   34.8243  -13.6760   37.0399 C   0  0  0  0  0  0  0  0  0  0  0  0
   34.7484  -13.4581   35.7951 O   0  0  0  0  0  0  0  0  0  0  0  0
   34.0431  -13.0033   38.9736 H   0  0  0  0  0  0  0  0  0  0  0  0
   35.7296  -14.7328   37.5305 C   0  0  0  0  0  0  0  0  0  0  0  0
   36.0526  -15.5765   36.4079 N   0  0  0  0  0  0  0  0  0  0  0  0
   36.2980  -16.9635   36.4343 C   0  0  0  0  0  0  0  0  0  0  0  0
   36.2397  -17.5816   37.5252 O   0  0  0  0  0  0  0  0  0  0  0  0
   36.1106  -15.0940   35.4651 H   0  0  0  0  0  0  0  0  0  0  0  0
   36.6308  -17.7130   35.1893 C   0  0  0  0  0  0  0  0  0  0  0  0
   37.8910  -18.3914   35.2215 N   0  0  0  0  0  0  0  0  0  0  0  0
   38.6952  -18.4518   34.0102 C   0  0  0  0  0  0  0  0  0  0  0  0
   38.2577  -17.8971   32.9852 O   0  0  0  0  0  0  0  0  0  0  0  0
   38.3027  -18.8674   36.0478 H   0  0  0  0  0  0  0  0  0  0  0  0
   40.0017  -19.1450   33.9556 C   0  0  0  0  0  0  0  0  0  0  0  0
   40.7770  -18.6819   35.1122 N   0  0  0  0  0  0  0  0  0  0  0  0
   42.1701  -18.4485   35.0620 C   0  0  0  0  0  0  0  0  0  0  0  0
   42.7883  -18.6366   33.9955 O   0  0  0  0  0  0  0  0  0  0  0  0
   40.1807  -18.5413   35.9763 H   0  0  0  0  0  0  0  0  0  0  0  0
   42.8845  -17.9850   36.2601 C   0  0  0  0  0  0  0  0  0  0  0  0
   42.8823  -16.4507   36.2454 C   0  0  0  0  0  0  0  0  0  0  0  0
   42.9756  -15.9984   34.9296 O   0  0  0  0  0  0  0  0  0  0  0  0
   42.1808  -16.1740   34.3936 H   0  0  0  0  0  0  0  0  0  0  0  0
   44.3182  -18.4586   36.2590 C   0  0  0  0  0  0  0  0  0  0  0  0
   44.4121  -19.8391   36.1703 O   0  0  0  0  0  0  0  0  0  0  0  0
   44.9861  -20.1274   35.4074 H   0  0  0  0  0  0  0  0  0  0  0  0
   39.8355  -20.6216   33.9014 C   0  0  0  0  0  0  0  0  0  0  0  0
   38.4768  -20.8813   33.6840 O   0  0  0  0  0  0  0  0  0  0  0  0
   37.9786  -20.1661   34.1510 H   0  0  0  0  0  0  0  0  0  0  0  0
   35.4854  -18.6261   34.8397 C   0  0  0  0  0  0  0  0  0  0  0  0
   35.8372  -19.4595   33.7969 O   0  0  0  0  0  0  0  0  0  0  0  0
   35.7882  -18.9723   32.9389 H   0  0  0  0  0  0  0  0  0  0  0  0
   37.0563  -14.0381   37.9074 C   0  0  0  0  0  0  0  0  0  0  0  0
   37.3354  -13.0563   36.9611 O   0  0  0  0  0  0  0  0  0  0  0  0
   37.8678  -13.3865   36.2164 H   0  0  0  0  0  0  0  0  0  0  0  0
   33.6290  -10.5062   37.9458 C   0  0  0  0  0  0  0  0  0  0  0  0
   33.9346   -9.6693   36.9075 O   0  0  0  0  0  0  0  0  0  0  0  0
   33.4709   -8.7857   37.0450 H   0  0  0  0  0  0  0  0  0  0  0  0
 27 28  1  0  0  0
 28 29  2  0  0  0
 28 25  1  0  0  0
 25 24  1  0  0  0
 24 23  1  0  0  0
 23 22  1  0  0  0
 22 16  1  0  0  0
 16 12  1  0  0  0
 12 13  1  0  0  0
 13 14  2  0  0  0
 13 11  1  0  0  0
 11 33  1  0  0  0
 33 34  1  0  0  0
 11  7  1  0  0  0
  7  8  1  0  0  0
  8  9  2  0  0  0
  8  6  1  0  0  0
  6 36  1  0  0  0
 36 37  1  0  0  0
  6  2  1  0  0  0
  2  3  1  0  0  0
  3  4  2  0  0  0
  3  1  1  0  0  0
  1 74  1  0  0  0
 74 75  1  0  0  0
  1 39  1  0  0  0
 39 40  1  0  0  0
 40 41  2  0  0  0
 40 43  1  0  0  0
 43 71  1  0  0  0
 71 72  1  0  0  0
 43 44  1  0  0  0
 44 45  1  0  0  0
 45 46  2  0  0  0
 45 48  1  0  0  0
 48 68  1  0  0  0
 68 69  1  0  0  0
 48 49  1  0  0  0
 49 50  1  0  0  0
 50 51  2  0  0  0
 50 53  1  0  0  0
 53 65  1  0  0  0
 65 66  1  0  0  0
 53 54  1  0  0  0
 54 55  1  0  0  0
 55 56  2  0  0  0
 55 58  1  0  0  0
 58 62  1  0  0  0
 62 63  1  0  0  0
 58 59  1  0  0  0
 59 60  1  0  0  0
 16 17  1  0  0  0
 17 18  1  0  0  0
 17 19  2  0  0  0
 27 30  1  0  0  0
 27 31  1  0  0  0
 29 32  1  0  0  0
 25 26  1  0  0  0
 12 15  1  0  0  0
 34 35  1  0  0  0
  7 10  1  0  0  0
 37 38  1  0  0  0
  2  5  1  0  0  0
 75 76  1  0  0  0
 39 42  1  0  0  0
 72 73  1  0  0  0
 44 47  1  0  0  0
 69 70  1  0  0  0
 49 52  1  0  0  0
 66 67  1  0  0  0
 54 57  1  0  0  0
 63 64  1  0  0  0
 60 61  1  0  0  0
 18 20  1  0  0  0
 18 21  1  0  0  0
M  END
> <minimizedAffinity>
-8.13488

> <CNNscore>
0.2539986968

> <CNNaffinity>
5.3425898552

> <CNN_VS>
1.3570108414

> <CNNaffinity_variance>
0.7102789283

$$$$
[H]N=C(N([H])[H])N([H])C([H])([H])C([H])([H])C([H])([H])[C@@]([H])(C(=O)N([H])[H])N([H])C(=O)[C@]([H])(N([H])C(=O)[C@@]([H])(N([H])C(=O)[C@]([H])(N([H])C(=O)[C@@]([H])(N([H])C(=O)[C@@]([H])(N([H])C(=O)[C@@]([H])(N([H])C(=O)C([H])(C([H])([H])O[H])C([H])([H])O[H])C([H])([H])O[H])C([H])([H])O[H])C([H])([H])O[H])C([H])([H])O[H])C([H])([H])O[H])C([H])([H])O[H]


 76 75  0  0  0  0  0  0  0  0999 V2000
   34.5824  -13.8140   37.1841 C   0  0  0  0  0  0  0  0  0  0  0  0
   35.3973  -16.1381   36.6632 N   0  0  0  0  0  0  0  0  0  0  0  0
   34.4845  -15.0787   36.4602 C   0  0  0  0  0  0  0  0  0  0  0  0
   33.5241  -15.1965   35.6127 O   0  0  0  0  0  0  0  0  0  0  0  0
   36.1635  -16.0316   37.3959 H   0  0  0  0  0  0  0  0  0  0  0  0
   35.4075  -17.4027   35.9827 C   0  0  0  0  0  0  0  0  0  0  0  0
   34.7992  -19.8340   36.5132 N   0  0  0  0  0  0  0  0  0  0  0  0
   35.3893  -18.5878   36.8598 C   0  0  0  0  0  0  0  0  0  0  0  0
   35.9237  -18.5123   37.9873 O   0  0  0  0  0  0  0  0  0  0  0  0
   34.3722  -19.9095   35.5507 H   0  0  0  0  0  0  0  0  0  0  0  0
   34.7462  -20.9941   37.3569 C   0  0  0  0  0  0  0  0  0  0  0  0
   33.4430  -22.8224   36.1356 N   0  0  0  0  0  0  0  0  0  0  0  0
   33.5657  -21.8207   37.1403 C   0  0  0  0  0  0  0  0  0  0  0  0
   32.5766  -21.6374   37.8976 O   0  0  0  0  0  0  0  0  0  0  0  0
   34.2734  -22.9702   35.5228 H   0  0  0  0  0  0  0  0  0  0  0  0
   32.2308  -23.5964   35.9690 C   0  0  0  0  0  0  0  0  0  0  0  0
   32.4495  -25.0325   35.7555 C   0  0  0  0  0  0  0  0  0  0  0  0
   32.0277  -25.6432   34.5547 N   0  0  0  0  0  0  0  0  0  0  0  0
   33.0160  -25.8018   36.6110 O   0  0  0  0  0  0  0  0  0  0  0  0
   31.7332  -26.6302   34.5467 H   0  0  0  0  0  0  0  0  0  0  0  0
   32.0204  -25.0847   33.6831 H   0  0  0  0  0  0  0  0  0  0  0  0
   31.2900  -22.9462   35.0337 C   0  0  0  0  0  0  0  0  0  0  0  0
   30.0561  -22.3161   35.5787 C   0  0  0  0  0  0  0  0  0  0  0  0
   29.8579  -20.8814   35.2173 C   0  0  0  0  0  0  0  0  0  0  0  0
   30.9240  -20.0284   35.7481 N   0  0  0  0  0  0  0  0  0  0  0  0
   31.0533  -19.9747   36.7602 H   0  0  0  0  0  0  0  0  0  0  0  0
   32.0848  -19.7987   33.5696 N   0  0  0  0  0  0  0  0  0  0  0  0
   31.7294  -19.3136   34.8547 C   0  0  0  0  0  0  0  0  0  0  0  0
   32.1962  -18.1371   35.1859 N   0  0  0  0  0  0  0  0  0  0  0  0
   33.0729  -19.8033   33.2553 H   0  0  0  0  0  0  0  0  0  0  0  0
   31.3489  -20.1538   32.9309 H   0  0  0  0  0  0  0  0  0  0  0  0
   32.7973  -17.5714   34.5546 H   0  0  0  0  0  0  0  0  0  0  0  0
   35.9611  -21.9094   37.0551 C   0  0  0  0  0  0  0  0  0  0  0  0
   36.9237  -21.1748   36.3417 O   0  0  0  0  0  0  0  0  0  0  0  0
   37.5506  -21.8259   35.9544 H   0  0  0  0  0  0  0  0  0  0  0  0
   36.4267  -17.4784   34.8910 C   0  0  0  0  0  0  0  0  0  0  0  0
   36.7199  -18.7591   34.4834 O   0  0  0  0  0  0  0  0  0  0  0  0
   37.6463  -18.8388   34.1880 H   0  0  0  0  0  0  0  0  0  0  0  0
   33.5092  -12.9191   36.7302 N   0  0  0  0  0  0  0  0  0  0  0  0
   32.6514  -12.3899   37.7493 C   0  0  0  0  0  0  0  0  0  0  0  0
   32.8493  -12.7071   38.9588 O   0  0  0  0  0  0  0  0  0  0  0  0
   33.4158  -12.7092   35.7206 H   0  0  0  0  0  0  0  0  0  0  0  0
   31.5433  -11.4734   37.4189 C   0  0  0  0  0  0  0  0  0  0  0  0
   30.6183  -11.5027   38.5233 N   0  0  0  0  0  0  0  0  0  0  0  0
   29.2340  -11.2453   38.4753 C   0  0  0  0  0  0  0  0  0  0  0  0
   28.6959  -10.9572   37.3785 O   0  0  0  0  0  0  0  0  0  0  0  0
   31.0317  -11.7438   39.4699 H   0  0  0  0  0  0  0  0  0  0  0  0
   28.3941  -11.3041   39.7055 C   0  0  0  0  0  0  0  0  0  0  0  0
   28.7829  -12.3125   40.6444 N   0  0  0  0  0  0  0  0  0  0  0  0
   28.2624  -13.6628   40.4912 C   0  0  0  0  0  0  0  0  0  0  0  0
   27.5001  -13.8945   39.5345 O   0  0  0  0  0  0  0  0  0  0  0  0
   29.4158  -12.1738   41.4562 H   0  0  0  0  0  0  0  0  0  0  0  0
   28.6038  -14.7585   41.4257 C   0  0  0  0  0  0  0  0  0  0  0  0
   28.0775  -14.3749   42.7406 N   0  0  0  0  0  0  0  0  0  0  0  0
   28.9031  -13.9518   43.8070 C   0  0  0  0  0  0  0  0  0  0  0  0
   30.1380  -13.8928   43.6441 O   0  0  0  0  0  0  0  0  0  0  0  0
   27.0223  -14.4471   42.7974 H   0  0  0  0  0  0  0  0  0  0  0  0
   28.3082  -13.5822   45.0993 C   0  0  0  0  0  0  0  0  0  0  0  0
   28.5388  -12.0802   45.3112 C   0  0  0  0  0  0  0  0  0  0  0  0
   29.7737  -11.8821   45.9279 O   0  0  0  0  0  0  0  0  0  0  0  0
   30.5376  -12.0922   45.3603 H   0  0  0  0  0  0  0  0  0  0  0  0
   28.9634  -14.3291   46.2363 C   0  0  0  0  0  0  0  0  0  0  0  0
   28.6146  -13.8081   47.4729 O   0  0  0  0  0  0  0  0  0  0  0  0
   28.2356  -14.5034   48.0792 H   0  0  0  0  0  0  0  0  0  0  0  0
   28.0974  -16.0694   40.9398 C   0  0  0  0  0  0  0  0  0  0  0  0
   28.6985  -16.3156   39.6992 O   0  0  0  0  0  0  0  0  0  0  0  0
   28.8083  -15.4347   39.2636 H   0  0  0  0  0  0  0  0  0  0  0  0
   28.3201   -9.9316   40.3209 C   0  0  0  0  0  0  0  0  0  0  0  0
   29.1299   -9.0519   39.6308 O   0  0  0  0  0  0  0  0  0  0  0  0
   30.0742   -9.1819   39.8900 H   0  0  0  0  0  0  0  0  0  0  0  0
   32.1334  -10.0463   37.4253 C   0  0  0  0  0  0  0  0  0  0  0  0
   33.4199  -10.0932   37.9546 O   0  0  0  0  0  0  0  0  0  0  0  0
   33.4388   -9.9677   38.9194 H   0  0  0  0  0  0  0  0  0  0  0  0
   35.9180  -13.1012   36.8421 C   0  0  0  0  0  0  0  0  0  0  0  0
   36.4100  -13.6742   35.7013 O   0  0  0  0  0  0  0  0  0  0  0  0
   36.6608  -12.9505   35.0470 H   0  0  0  0  0  0  0  0  0  0  0  0
 27 28  1  0  0  0
 28 29  2  0  0  0
 28 25  1  0  0  0
 25 24  1  0  0  0
 24 23  1  0  0  0
 23 22  1  0  0  0
 22 16  1  0  0  0
 16 12  1  0  0  0
 12 13  1  0  0  0
 13 14  2  0  0  0
 13 11  1  0  0  0
 11 33  1  0  0  0
 33 34  1  0  0  0
 11  7  1  0  0  0
  7  8  1  0  0  0
  8  9  2  0  0  0
  8  6  1  0  0  0
  6 36  1  0  0  0
 36 37  1  0  0  0
  6  2  1  0  0  0
  2  3  1  0  0  0
  3  4  2  0  0  0
  3  1  1  0  0  0
  1 74  1  0  0  0
 74 75  1  0  0  0
  1 39  1  0  0  0
 39 40  1  0  0  0
 40 41  2  0  0  0
 40 43  1  0  0  0
 43 71  1  0  0  0
 71 72  1  0  0  0
 43 44  1  0  0  0
 44 45  1  0  0  0
 45 46  2  0  0  0
 45 48  1  0  0  0
 48 68  1  0  0  0
 68 69  1  0  0  0
 48 49  1  0  0  0
 49 50  1  0  0  0
 50 51  2  0  0  0
 50 53  1  0  0  0
 53 65  1  0  0  0
 65 66  1  0  0  0
 53 54  1  0  0  0
 54 55  1  0  0  0
 55 56  2  0  0  0
 55 58  1  0  0  0
 58 62  1  0  0  0
 62 63  1  0  0  0
 58 59  1  0  0  0
 59 60  1  0  0  0
 16 17  1  0  0  0
 17 18  1  0  0  0
 17 19  2  0  0  0
 27 30  1  0  0  0
 27 31  1  0  0  0
 29 32  1  0  0  0
 25 26  1  0  0  0
 12 15  1  0  0  0
 34 35  1  0  0  0
  7 10  1  0  0  0
 37 38  1  0  0  0
  2  5  1  0  0  0
 75 76  1  0  0  0
 39 42  1  0  0  0
 72 73  1  0  0  0
 44 47  1  0  0  0
 69 70  1  0  0  0
 49 52  1  0  0  0
 66 67  1  0  0  0
 54 57  1  0  0  0
 63 64  1  0  0  0
 60 61  1  0  0  0
 18 20  1  0  0  0
 18 21  1  0  0  0
M  END
> <minimizedAffinity>
-7.21479

> <CNNscore>
0.2510232329

> <CNNaffinity>
5.5511140823

> <CNN_VS>
1.3934586048

> <CNNaffinity_variance>
1.2043755054

$$$$
[H]N=C(N([H])[H])N([H])C([H])([H])C([H])([H])C([H])([H])[C@@]([H])(C(=O)N([H])[H])N([H])C(=O)[C@]([H])(N([H])C(=O)[C@@]([H])(N([H])C(=O)[C@]([H])(N([H])C(=O)[C@@]([H])(N([H])C(=O)[C@@]([H])(N([H])C(=O)[C@@]([H])(N([H])C(=O)C([H])(C([H])([H])O[H])C([H])([H])O[H])C([H])([H])O[H])C([H])([H])O[H])C([H])([H])O[H])C([H])([H])O[H])C([H])([H])O[H])C([H])([H])O[H]


 76 75  0  0  0  0  0  0  0  0999 V2000
   36.8152  -18.5668   35.5187 C   0  0  0  0  0  0  0  0  0  0  0  0
   36.4806  -16.2127   36.3452 N   0  0  0  0  0  0  0  0  0  0  0  0
   36.4107  -17.6098   36.5451 C   0  0  0  0  0  0  0  0  0  0  0  0
   35.9847  -18.0903   37.6596 O   0  0  0  0  0  0  0  0  0  0  0  0
   36.8029  -15.8376   35.4015 H   0  0  0  0  0  0  0  0  0  0  0  0
   36.1395  -15.1927   37.2968 C   0  0  0  0  0  0  0  0  0  0  0  0
   34.2945  -13.5019   37.8447 N   0  0  0  0  0  0  0  0  0  0  0  0
   34.9685  -14.3697   36.9424 C   0  0  0  0  0  0  0  0  0  0  0  0
   34.5237  -14.4241   35.7755 O   0  0  0  0  0  0  0  0  0  0  0  0
   34.6852  -13.4325   38.8229 H   0  0  0  0  0  0  0  0  0  0  0  0
   33.1390  -12.7097   37.5323 C   0  0  0  0  0  0  0  0  0  0  0  0
   30.7392  -12.5588   38.3991 N   0  0  0  0  0  0  0  0  0  0  0  0
   32.1441  -12.6824   38.5968 C   0  0  0  0  0  0  0  0  0  0  0  0
   32.5549  -12.7746   39.7835 O   0  0  0  0  0  0  0  0  0  0  0  0
   30.4130  -12.4938   37.4111 H   0  0  0  0  0  0  0  0  0  0  0  0
   29.8093  -12.5234   39.5082 C   0  0  0  0  0  0  0  0  0  0  0  0
   29.4106  -13.8440   40.0113 C   0  0  0  0  0  0  0  0  0  0  0  0
   30.0724  -14.4089   41.1229 N   0  0  0  0  0  0  0  0  0  0  0  0
   28.4710  -14.5486   39.4961 O   0  0  0  0  0  0  0  0  0  0  0  0
   30.1681  -15.4308   41.2092 H   0  0  0  0  0  0  0  0  0  0  0  0
   30.4581  -13.7808   41.8498 H   0  0  0  0  0  0  0  0  0  0  0  0
   28.7063  -11.5703   39.2680 C   0  0  0  0  0  0  0  0  0  0  0  0
   29.0070  -10.2814   38.5860 C   0  0  0  0  0  0  0  0  0  0  0  0
   28.7257   -9.0536   39.3869 C   0  0  0  0  0  0  0  0  0  0  0  0
   27.2911   -8.8603   39.6114 N   0  0  0  0  0  0  0  0  0  0  0  0
   26.6518   -8.9569   38.8203 H   0  0  0  0  0  0  0  0  0  0  0  0
   26.0515   -9.4291   41.6817 N   0  0  0  0  0  0  0  0  0  0  0  0
   26.8417   -8.5480   40.8992 C   0  0  0  0  0  0  0  0  0  0  0  0
   27.1450   -7.3963   41.4410 N   0  0  0  0  0  0  0  0  0  0  0  0
   25.1752   -9.1041   42.1305 H   0  0  0  0  0  0  0  0  0  0  0  0
   26.3513  -10.4136   41.8108 H   0  0  0  0  0  0  0  0  0  0  0  0
   26.8333   -7.1225   42.3937 H   0  0  0  0  0  0  0  0  0  0  0  0
   33.5657  -11.2342   37.3182 C   0  0  0  0  0  0  0  0  0  0  0  0
   32.7302  -10.3993   38.0799 O   0  0  0  0  0  0  0  0  0  0  0  0
   32.8533   -9.4849   37.7397 H   0  0  0  0  0  0  0  0  0  0  0  0
   37.3179  -14.3950   37.7564 C   0  0  0  0  0  0  0  0  0  0  0  0
   37.5023  -13.2176   37.0694 O   0  0  0  0  0  0  0  0  0  0  0  0
   38.4470  -12.9821   37.0074 H   0  0  0  0  0  0  0  0  0  0  0  0
   38.1957  -18.2744   35.1098 N   0  0  0  0  0  0  0  0  0  0  0  0
   39.1721  -19.2803   35.4084 C   0  0  0  0  0  0  0  0  0  0  0  0
   38.8137  -20.3441   35.9938 O   0  0  0  0  0  0  0  0  0  0  0  0
   38.4057  -17.3790   34.6341 H   0  0  0  0  0  0  0  0  0  0  0  0
   40.5901  -19.1057   35.0397 C   0  0  0  0  0  0  0  0  0  0  0  0
   41.2761  -20.3255   35.3829 N   0  0  0  0  0  0  0  0  0  0  0  0
   42.6530  -20.4793   35.6381 C   0  0  0  0  0  0  0  0  0  0  0  0
   43.4093  -19.4795   35.5762 O   0  0  0  0  0  0  0  0  0  0  0  0
   40.6731  -21.1958   35.4475 H   0  0  0  0  0  0  0  0  0  0  0  0
   43.2319  -21.8107   35.9768 C   0  0  0  0  0  0  0  0  0  0  0  0
   43.0523  -22.8119   34.9694 N   0  0  0  0  0  0  0  0  0  0  0  0
   41.8637  -23.6507   35.0068 C   0  0  0  0  0  0  0  0  0  0  0  0
   41.0353  -23.4570   35.9158 O   0  0  0  0  0  0  0  0  0  0  0  0
   43.7090  -23.0130   34.1902 H   0  0  0  0  0  0  0  0  0  0  0  0
   41.6097  -24.7166   34.0121 C   0  0  0  0  0  0  0  0  0  0  0  0
   40.6763  -25.6635   34.6329 N   0  0  0  0  0  0  0  0  0  0  0  0
   40.7706  -27.0632   34.4603 C   0  0  0  0  0  0  0  0  0  0  0  0
   41.6824  -27.5367   33.7536 O   0  0  0  0  0  0  0  0  0  0  0  0
   39.9358  -25.1848   35.2198 H   0  0  0  0  0  0  0  0  0  0  0  0
   39.8003  -27.9543   35.1120 C   0  0  0  0  0  0  0  0  0  0  0  0
   38.6111  -27.1002   35.5711 C   0  0  0  0  0  0  0  0  0  0  0  0
   38.9086  -26.5115   36.7996 O   0  0  0  0  0  0  0  0  0  0  0  0
   39.6008  -25.8269   36.7531 H   0  0  0  0  0  0  0  0  0  0  0  0
   40.4014  -28.6236   36.3247 C   0  0  0  0  0  0  0  0  0  0  0  0
   41.5036  -27.9355   36.8084 O   0  0  0  0  0  0  0  0  0  0  0  0
   41.4080  -27.7061   37.7742 H   0  0  0  0  0  0  0  0  0  0  0  0
   41.1228  -24.1572   32.7233 C   0  0  0  0  0  0  0  0  0  0  0  0
   40.7324  -22.8340   32.9632 O   0  0  0  0  0  0  0  0  0  0  0  0
   40.3715  -22.8129   33.8836 H   0  0  0  0  0  0  0  0  0  0  0  0
   44.6735  -21.6370   36.3762 C   0  0  0  0  0  0  0  0  0  0  0  0
   44.8112  -21.7641   37.7439 O   0  0  0  0  0  0  0  0  0  0  0  0
   44.5247  -20.9331   38.1946 H   0  0  0  0  0  0  0  0  0  0  0  0
   40.6401  -19.0355   33.4978 C   0  0  0  0  0  0  0  0  0  0  0  0
   40.6227  -17.6998   33.1068 O   0  0  0  0  0  0  0  0  0  0  0  0
   39.7230  -17.3567   32.9658 H   0  0  0  0  0  0  0  0  0  0  0  0
   35.9390  -18.3952   34.2491 C   0  0  0  0  0  0  0  0  0  0  0  0
   36.6963  -17.7490   33.3106 O   0  0  0  0  0  0  0  0  0  0  0  0
   36.6388  -18.2467   32.4367 H   0  0  0  0  0  0  0  0  0  0  0  0
 27 28  1  0  0  0
 28 29  2  0  0  0
 28 25  1  0  0  0
 25 24  1  0  0  0
 24 23  1  0  0  0
 23 22  1  0  0  0
 22 16  1  0  0  0
 16 12  1  0  0  0
 12 13  1  0  0  0
 13 14  2  0  0  0
 13 11  1  0  0  0
 11 33  1  0  0  0
 33 34  1  0  0  0
 11  7  1  0  0  0
  7  8  1  0  0  0
  8  9  2  0  0  0
  8  6  1  0  0  0
  6 36  1  0  0  0
 36 37  1  0  0  0
  6  2  1  0  0  0
  2  3  1  0  0  0
  3  4  2  0  0  0
  3  1  1  0  0  0
  1 74  1  0  0  0
 74 75  1  0  0  0
  1 39  1  0  0  0
 39 40  1  0  0  0
 40 41  2  0  0  0
 40 43  1  0  0  0
 43 71  1  0  0  0
 71 72  1  0  0  0
 43 44  1  0  0  0
 44 45  1  0  0  0
 45 46  2  0  0  0
 45 48  1  0  0  0
 48 68  1  0  0  0
 68 69  1  0  0  0
 48 49  1  0  0  0
 49 50  1  0  0  0
 50 51  2  0  0  0
 50 53  1  0  0  0
 53 65  1  0  0  0
 65 66  1  0  0  0
 53 54  1  0  0  0
 54 55  1  0  0  0
 55 56  2  0  0  0
 55 58  1  0  0  0
 58 62  1  0  0  0
 62 63  1  0  0  0
 58 59  1  0  0  0
 59 60  1  0  0  0
 16 17  1  0  0  0
 17 18  1  0  0  0
 17 19  2  0  0  0
 27 30  1  0  0  0
 27 31  1  0  0  0
 29 32  1  0  0  0
 25 26  1  0  0  0
 12 15  1  0  0  0
 34 35  1  0  0  0
  7 10  1  0  0  0
 37 38  1  0  0  0
  2  5  1  0  0  0
 75 76  1  0  0  0
 39 42  1  0  0  0
 72 73  1  0  0  0
 44 47  1  0  0  0
 69 70  1  0  0  0
 49 52  1  0  0  0
 66 67  1  0  0  0
 54 57  1  0  0  0
 63 64  1  0  0  0
 60 61  1  0  0  0
 18 20  1  0  0  0
 18 21  1  0  0  0
M  END
> <minimizedAffinity>
-5.97032

> <CNNscore>
0.2450920343

> <CNNaffinity>
5.2830858231

> <CNN_VS>
1.2948422432

> <CNNaffinity_variance>
0.2693908513

$$$$
[H]Oc1c([H])c(O[H])c(C(C([H])([H])[H])(C([H])([H])[H])C([H])([H])[H])c([H])c1C(=O)N1C([H])([H])c2c([H])c([H])c([H])c([H])c2C1([H])[H]


 25 27  0  0  0  0  0  0  0  0999 V2000
   33.1347  -19.2539   35.6711 C   0  0  0  0  0  0  0  0  0  0  0  0
   33.7982  -19.8803   36.7356 C   0  0  0  0  0  0  0  0  0  0  0  0
   34.8915  -19.3340   37.3747 C   0  0  0  0  0  0  0  0  0  0  0  0
   35.3178  -18.0837   36.8923 C   0  0  0  0  0  0  0  0  0  0  0  0
   36.4231  -17.4848   37.5056 O   0  0  0  0  0  0  0  0  0  0  0  0
   34.6607  -17.4822   35.8516 C   0  0  0  0  0  0  0  0  0  0  0  0
   33.5713  -18.0301   35.2166 C   0  0  0  0  0  0  0  0  0  0  0  0
   32.9412  -17.3711   34.1604 O   0  0  0  0  0  0  0  0  0  0  0  0
   36.7574  -16.5962   37.1921 H   0  0  0  0  0  0  0  0  0  0  0  0
   33.3207  -16.4780   33.8860 H   0  0  0  0  0  0  0  0  0  0  0  0
   35.6022  -19.9170   38.4834 C   0  0  0  0  0  0  0  0  0  0  0  0
   35.0013  -19.8452   39.6242 O   0  0  0  0  0  0  0  0  0  0  0  0
   36.8478  -20.5549   38.5401 N   0  0  0  0  0  0  0  0  0  0  0  0
   37.3989  -21.1061   39.7816 C   0  0  0  0  0  0  0  0  0  0  0  0
   38.7790  -21.5037   39.4438 C   0  0  0  0  0  0  0  0  0  0  0  0
   39.7594  -22.0062   40.2984 C   0  0  0  0  0  0  0  0  0  0  0  0
   40.9964  -22.3221   39.7810 C   0  0  0  0  0  0  0  0  0  0  0  0
   41.2897  -22.1551   38.4443 C   0  0  0  0  0  0  0  0  0  0  0  0
   40.2841  -21.6550   37.6449 C   0  0  0  0  0  0  0  0  0  0  0  0
   39.0419  -21.3304   38.1283 C   0  0  0  0  0  0  0  0  0  0  0  0
   37.8004  -20.7797   37.5002 C   0  0  0  0  0  0  0  0  0  0  0  0
   31.5748  -21.1303   35.8449 C   0  0  0  0  0  0  0  0  0  0  0  0
   31.9723  -19.8999   35.0347 C   0  0  0  0  0  0  0  0  0  0  0  0
   32.3267  -20.3627   33.6573 C   0  0  0  0  0  0  0  0  0  0  0  0
   30.7525  -18.9952   35.0325 C   0  0  0  0  0  0  0  0  0  0  0  0
 22 23  1  0  0  0
 23 24  1  0  0  0
 23 25  1  0  0  0
 23  1  1  0  0  0
  1  2  2  0  0  0
  2  3  1  0  0  0
  3 11  1  0  0  0
 11 12  2  0  0  0
 11 13  1  0  0  0
 13 14  1  0  0  0
 14 15  1  0  0  0
 15 16  2  0  0  0
 16 17  1  0  0  0
 17 18  2  0  0  0
 18 19  1  0  0  0
 19 20  2  0  0  0
 20 21  1  0  0  0
  3  4  2  0  0  0
  4  5  1  0  0  0
  4  6  1  0  0  0
  6  7  2  0  0  0
  7  8  1  0  0  0
  7  1  1  0  0  0
 21 13  1  0  0  0
 20 15  1  0  0  0
  5  9  1  0  0  0
  8 10  1  0  0  0
M  END
> <minimizedAffinity>
-5.12807

> <CNNscore>
0.5888165236

> <CNNaffinity>
3.9948532581

> <CNN_VS>
2.3522355556

> <CNNaffinity_variance>
0.2614839077

$$$$
[H]Oc1c([H])c(O[H])c(C(C([H])([H])[H])(C([H])([H])[H])C([H])([H])[H])c([H])c1C(=O)N1C([H])([H])c2c([H])c([H])c([H])c([H])c2C1([H])[H]


 25 27  0  0  0  0  0  0  0  0999 V2000
   32.7915  -20.8240   36.0809 C   0  0  0  0  0  0  0  0  0  0  0  0
   33.7993  -19.8492   36.0945 C   0  0  0  0  0  0  0  0  0  0  0  0
   34.6634  -19.6663   37.1537 C   0  0  0  0  0  0  0  0  0  0  0  0
   34.4782  -20.5303   38.2478 C   0  0  0  0  0  0  0  0  0  0  0  0
   35.3285  -20.3873   39.3493 O   0  0  0  0  0  0  0  0  0  0  0  0
   33.4900  -21.4786   38.2219 C   0  0  0  0  0  0  0  0  0  0  0  0
   32.6300  -21.6577   37.1643 C   0  0  0  0  0  0  0  0  0  0  0  0
   31.6408  -22.6413   37.1934 O   0  0  0  0  0  0  0  0  0  0  0  0
   35.2295  -20.9819   40.1470 H   0  0  0  0  0  0  0  0  0  0  0  0
   31.5865  -23.2121   38.0230 H   0  0  0  0  0  0  0  0  0  0  0  0
   35.7282  -18.6988   37.2198 C   0  0  0  0  0  0  0  0  0  0  0  0
   36.8762  -19.1646   37.5843 O   0  0  0  0  0  0  0  0  0  0  0  0
   35.7345  -17.3234   36.9555 N   0  0  0  0  0  0  0  0  0  0  0  0
   36.9439  -16.5022   37.0645 C   0  0  0  0  0  0  0  0  0  0  0  0
   36.4788  -15.1123   36.8946 C   0  0  0  0  0  0  0  0  0  0  0  0
   37.2265  -13.9399   36.9968 C   0  0  0  0  0  0  0  0  0  0  0  0
   36.5991  -12.7298   36.7984 C   0  0  0  0  0  0  0  0  0  0  0  0
   35.2552  -12.6474   36.5022 C   0  0  0  0  0  0  0  0  0  0  0  0
   34.5641  -13.8369   36.4132 C   0  0  0  0  0  0  0  0  0  0  0  0
   35.1585  -15.0583   36.6051 C   0  0  0  0  0  0  0  0  0  0  0  0
   34.6570  -16.4678   36.5732 C   0  0  0  0  0  0  0  0  0  0  0  0
   31.9710  -22.3931   34.3930 C   0  0  0  0  0  0  0  0  0  0  0  0
   31.9027  -20.9600   34.9125 C   0  0  0  0  0  0  0  0  0  0  0  0
   32.3567  -20.0585   33.8088 C   0  0  0  0  0  0  0  0  0  0  0  0
   30.4478  -20.7218   35.2770 C   0  0  0  0  0  0  0  0  0  0  0  0
 22 23  1  0  0  0
 23 24  1  0  0  0
 23 25  1  0  0  0
 23  1  1  0  0  0
  1  2  2  0  0  0
  2  3  1  0  0  0
  3 11  1  0  0  0
 11 12  2  0  0  0
 11 13  1  0  0  0
 13 14  1  0  0  0
 14 15  1  0  0  0
 15 16  2  0  0  0
 16 17  1  0  0  0
 17 18  2  0  0  0
 18 19  1  0  0  0
 19 20  2  0  0  0
 20 21  1  0  0  0
  3  4  2  0  0  0
  4  5  1  0  0  0
  4  6  1  0  0  0
  6  7  2  0  0  0
  7  8  1  0  0  0
  7  1  1  0  0  0
 21 13  1  0  0  0
 20 15  1  0  0  0
  5  9  1  0  0  0
  8 10  1  0  0  0
M  END
> <minimizedAffinity>
-6.54915

> <CNNscore>
0.4797804952

> <CNNaffinity>
4.3589177132

> <CNN_VS>
2.0913236141

> <CNNaffinity_variance>
0.1624277383

$$$$
[H]Oc1c([H])c(O[H])c(C(C([H])([H])[H])(C([H])([H])[H])C([H])([H])[H])c([H])c1C(=O)N1C([H])([H])c2c([H])c([H])c([H])c([H])c2C1([H])[H]


 25 27  0  0  0  0  0  0  0  0999 V2000
   35.1266  -15.2176   36.5896 C   0  0  0  0  0  0  0  0  0  0  0  0
   36.0048  -16.2797   36.8481 C   0  0  0  0  0  0  0  0  0  0  0  0
   35.7736  -17.5738   36.4311 C   0  0  0  0  0  0  0  0  0  0  0  0
   34.5814  -17.7794   35.7139 C   0  0  0  0  0  0  0  0  0  0  0  0
   34.2983  -19.0743   35.2673 O   0  0  0  0  0  0  0  0  0  0  0  0
   33.7320  -16.7331   35.4678 C   0  0  0  0  0  0  0  0  0  0  0  0
   33.9657  -15.4443   35.8856 C   0  0  0  0  0  0  0  0  0  0  0  0
   33.0637  -14.4173   35.6057 O   0  0  0  0  0  0  0  0  0  0  0  0
   33.4610  -19.2621   34.7541 H   0  0  0  0  0  0  0  0  0  0  0  0
   32.2360  -14.6636   35.0850 H   0  0  0  0  0  0  0  0  0  0  0  0
   36.6437  -18.7008   36.6475 C   0  0  0  0  0  0  0  0  0  0  0  0
   36.4651  -19.3311   37.7605 O   0  0  0  0  0  0  0  0  0  0  0  0
   37.6633  -19.2378   35.8514 N   0  0  0  0  0  0  0  0  0  0  0  0
   38.4353  -20.4200   36.2453 C   0  0  0  0  0  0  0  0  0  0  0  0
   39.5098  -20.5273   35.2399 C   0  0  0  0  0  0  0  0  0  0  0  0
   40.5669  -21.4359   35.2091 C   0  0  0  0  0  0  0  0  0  0  0  0
   41.4717  -21.3710   34.1724 C   0  0  0  0  0  0  0  0  0  0  0  0
   41.3598  -20.4339   33.1673 C   0  0  0  0  0  0  0  0  0  0  0  0
   40.2963  -19.5604   33.2472 C   0  0  0  0  0  0  0  0  0  0  0  0
   39.3780  -19.5981   34.2657 C   0  0  0  0  0  0  0  0  0  0  0  0
   38.1626  -18.7882   34.5913 C   0  0  0  0  0  0  0  0  0  0  0  0
   35.6430  -12.9372   35.8703 C   0  0  0  0  0  0  0  0  0  0  0  0
   35.4396  -13.8591   37.0691 C   0  0  0  0  0  0  0  0  0  0  0  0
   36.7136  -13.8670   37.8526 C   0  0  0  0  0  0  0  0  0  0  0  0
   34.2907  -13.2593   37.8608 C   0  0  0  0  0  0  0  0  0  0  0  0
 22 23  1  0  0  0
 23 24  1  0  0  0
 23 25  1  0  0  0
 23  1  1  0  0  0
  1  2  2  0  0  0
  2  3  1  0  0  0
  3 11  1  0  0  0
 11 12  2  0  0  0
 11 13  1  0  0  0
 13 14  1  0  0  0
 14 15  1  0  0  0
 15 16  2  0  0  0
 16 17  1  0  0  0
 17 18  2  0  0  0
 18 19  1  0  0  0
 19 20  2  0  0  0
 20 21  1  0  0  0
  3  4  2  0  0  0
  4  5  1  0  0  0
  4  6  1  0  0  0
  6  7  2  0  0  0
  7  8  1  0  0  0
  7  1  1  0  0  0
 21 13  1  0  0  0
 20 15  1  0  0  0
  5  9  1  0  0  0
  8 10  1  0  0  0
M  END
> <minimizedAffinity>
-7.05827

> <CNNscore>
0.4719478786

> <CNNaffinity>
4.4190073013

> <CNN_VS>
2.0855410099

> <CNNaffinity_variance>
0.2659944892

$$$$
[H]Oc1c([H])c(O[H])c(C(C([H])([H])[H])(C([H])([H])[H])C([H])([H])[H])c([H])c1C(=O)N1C([H])([H])c2c([H])c([H])c([H])c([H])c2C1([H])[H]


 25 27  0  0  0  0  0  0  0  0999 V2000
   35.1426  -18.7604   35.6457 C   0  0  0  0  0  0  0  0  0  0  0  0
   34.3726  -19.9129   35.4341 C   0  0  0  0  0  0  0  0  0  0  0  0
   33.0483  -19.8803   35.0500 C   0  0  0  0  0  0  0  0  0  0  0  0
   32.4953  -18.5990   34.8761 C   0  0  0  0  0  0  0  0  0  0  0  0
   31.1548  -18.5092   34.4866 O   0  0  0  0  0  0  0  0  0  0  0  0
   33.2585  -17.4809   35.0858 C   0  0  0  0  0  0  0  0  0  0  0  0
   34.5784  -17.5174   35.4692 C   0  0  0  0  0  0  0  0  0  0  0  0
   35.3074  -16.3445   35.6686 O   0  0  0  0  0  0  0  0  0  0  0  0
   30.7244  -17.6168   34.3524 H   0  0  0  0  0  0  0  0  0  0  0  0
   34.8230  -15.4728   35.5190 H   0  0  0  0  0  0  0  0  0  0  0  0
   32.2118  -21.0254   34.7985 C   0  0  0  0  0  0  0  0  0  0  0  0
   32.5183  -21.7140   33.7499 O   0  0  0  0  0  0  0  0  0  0  0  0
   31.1092  -21.5272   35.5016 N   0  0  0  0  0  0  0  0  0  0  0  0
   30.3906  -22.7361   35.0883 C   0  0  0  0  0  0  0  0  0  0  0  0
   29.2085  -22.7979   35.9690 C   0  0  0  0  0  0  0  0  0  0  0  0
   28.1573  -23.7131   35.9293 C   0  0  0  0  0  0  0  0  0  0  0  0
   27.1396  -23.5997   36.8507 C   0  0  0  0  0  0  0  0  0  0  0  0
   27.1332  -22.6081   37.8086 C   0  0  0  0  0  0  0  0  0  0  0  0
   28.1964  -21.7307   37.8023 C   0  0  0  0  0  0  0  0  0  0  0  0
   29.2254  -21.8157   36.8989 C   0  0  0  0  0  0  0  0  0  0  0  0
   30.4678  -21.0139   36.6697 C   0  0  0  0  0  0  0  0  0  0  0  0
   37.4510  -18.6559   34.8428 C   0  0  0  0  0  0  0  0  0  0  0  0
   36.5537  -18.8730   36.0577 C   0  0  0  0  0  0  0  0  0  0  0  0
   36.8317  -20.2452   36.5838 C   0  0  0  0  0  0  0  0  0  0  0  0
   36.9404  -17.7944   37.0545 C   0  0  0  0  0  0  0  0  0  0  0  0
 22 23  1  0  0  0
 23 24  1  0  0  0
 23 25  1  0  0  0
 23  1  1  0  0  0
  1  2  2  0  0  0
  2  3  1  0  0  0
  3 11  1  0  0  0
 11 12  2  0  0  0
 11 13  1  0  0  0
 13 14  1  0  0  0
 14 15  1  0  0  0
 15 16  2  0  0  0
 16 17  1  0  0  0
 17 18  2  0  0  0
 18 19  1  0  0  0
 19 20  2  0  0  0
 20 21  1  0  0  0
  3  4  2  0  0  0
  4  5  1  0  0  0
  4  6  1  0  0  0
  6  7  2  0  0  0
  7  8  1  0  0  0
  7  1  1  0  0  0
 21 13  1  0  0  0
 20 15  1  0  0  0
  5  9  1  0  0  0
  8 10  1  0  0  0
M  END
> <minimizedAffinity>
-5.43136

> <CNNscore>
0.4195394218

> <CNNaffinity>
4.1551818848

> <CNN_VS>
1.7432626486

> <CNNaffinity_variance>
0.2756046355

$$$$
[H]Oc1c([H])c(O[H])c(C(C([H])([H])[H])(C([H])([H])[H])C([H])([H])[H])c([H])c1C(=O)N1C([H])([H])c2c([H])c([H])c([H])c([H])c2C1([H])[H]


 25 27  0  0  0  0  0  0  0  0999 V2000
   35.1134  -15.1453   36.5034 C   0  0  0  0  0  0  0  0  0  0  0  0
   36.0828  -16.1322   36.7318 C   0  0  0  0  0  0  0  0  0  0  0  0
   35.9653  -17.4298   36.2794 C   0  0  0  0  0  0  0  0  0  0  0  0
   34.7936  -17.7202   35.5578 C   0  0  0  0  0  0  0  0  0  0  0  0
   34.6244  -19.0224   35.0760 O   0  0  0  0  0  0  0  0  0  0  0  0
   33.8543  -16.7468   35.3415 C   0  0  0  0  0  0  0  0  0  0  0  0
   33.9747  -15.4543   35.7945 C   0  0  0  0  0  0  0  0  0  0  0  0
   32.9846  -14.5037   35.5439 O   0  0  0  0  0  0  0  0  0  0  0  0
   33.8053  -19.2692   34.5585 H   0  0  0  0  0  0  0  0  0  0  0  0
   32.1801  -14.8078   35.0173 H   0  0  0  0  0  0  0  0  0  0  0  0
   36.9323  -18.4811   36.4638 C   0  0  0  0  0  0  0  0  0  0  0  0
   37.8758  -18.5248   35.5832 O   0  0  0  0  0  0  0  0  0  0  0  0
   37.0273  -19.4773   37.4438 N   0  0  0  0  0  0  0  0  0  0  0  0
   38.1145  -20.4602   37.4701 C   0  0  0  0  0  0  0  0  0  0  0  0
   37.7355  -21.4213   38.5234 C   0  0  0  0  0  0  0  0  0  0  0  0
   38.3926  -22.5955   38.8887 C   0  0  0  0  0  0  0  0  0  0  0  0
   37.8729  -23.3601   39.9099 C   0  0  0  0  0  0  0  0  0  0  0  0
   36.7235  -22.9960   40.5785 C   0  0  0  0  0  0  0  0  0  0  0  0
   36.1146  -21.8262   40.1766 C   0  0  0  0  0  0  0  0  0  0  0  0
   36.6059  -21.0422   39.1637 C   0  0  0  0  0  0  0  0  0  0  0  0
   36.1544  -19.7601   38.5379 C   0  0  0  0  0  0  0  0  0  0  0  0
   36.5914  -13.7281   37.8418 C   0  0  0  0  0  0  0  0  0  0  0  0
   35.3067  -13.7780   37.0200 C   0  0  0  0  0  0  0  0  0  0  0  0
   34.1774  -13.4020   37.9257 C   0  0  0  0  0  0  0  0  0  0  0  0
   35.4942  -12.7705   35.8992 C   0  0  0  0  0  0  0  0  0  0  0  0
 22 23  1  0  0  0
 23 24  1  0  0  0
 23 25  1  0  0  0
 23  1  1  0  0  0
  1  2  2  0  0  0
  2  3  1  0  0  0
  3 11  1  0  0  0
 11 12  2  0  0  0
 11 13  1  0  0  0
 13 14  1  0  0  0
 14 15  1  0  0  0
 15 16  2  0  0  0
 16 17  1  0  0  0
 17 18  2  0  0  0
 18 19  1  0  0  0
 19 20  2  0  0  0
 20 21  1  0  0  0
  3  4  2  0  0  0
  4  5  1  0  0  0
  4  6  1  0  0  0
  6  7  2  0  0  0
  7  8  1  0  0  0
  7  1  1  0  0  0
 21 13  1  0  0  0
 20 15  1  0  0  0
  5  9  1  0  0  0
  8 10  1  0  0  0
M  END
> <minimizedAffinity>
-6.28751

> <CNNscore>
0.3632042110

> <CNNaffinity>
4.2513666153

> <CNN_VS>
1.5441142321

> <CNNaffinity_variance>
0.2467024028

$$$$
[H]Oc1c([H])c(O[H])c(C(C([H])([H])[H])(C([H])([H])[H])C([H])([H])[H])c([H])c1C(=O)N1C([H])([H])c2c([H])c([H])c([H])c([H])c2C1([H])[H]


 25 27  0  0  0  0  0  0  0  0999 V2000
   33.2739  -19.8237   35.5764 C   0  0  0  0  0  0  0  0  0  0  0  0
   34.6749  -19.8606   35.6178 C   0  0  0  0  0  0  0  0  0  0  0  0
   35.4632  -18.7290   35.6367 C   0  0  0  0  0  0  0  0  0  0  0  0
   34.7724  -17.5043   35.6126 C   0  0  0  0  0  0  0  0  0  0  0  0
   35.5246  -16.3251   35.6304 O   0  0  0  0  0  0  0  0  0  0  0  0
   33.4032  -17.4820   35.5724 C   0  0  0  0  0  0  0  0  0  0  0  0
   32.6207  -18.6123   35.5531 C   0  0  0  0  0  0  0  0  0  0  0  0
   31.2285  -18.5289   35.5119 O   0  0  0  0  0  0  0  0  0  0  0  0
   35.0713  -15.4341   35.6142 H   0  0  0  0  0  0  0  0  0  0  0  0
   30.8251  -17.6048   35.4970 H   0  0  0  0  0  0  0  0  0  0  0  0
   36.9018  -18.7008   35.6988 C   0  0  0  0  0  0  0  0  0  0  0  0
   37.4829  -18.0416   34.7525 O   0  0  0  0  0  0  0  0  0  0  0  0
   37.7909  -19.2724   36.6178 N   0  0  0  0  0  0  0  0  0  0  0  0
   39.2445  -19.1120   36.5173 C   0  0  0  0  0  0  0  0  0  0  0  0
   39.8005  -20.0132   37.5447 C   0  0  0  0  0  0  0  0  0  0  0  0
   41.1414  -20.2947   37.8027 C   0  0  0  0  0  0  0  0  0  0  0  0
   41.4552  -21.1711   38.8180 C   0  0  0  0  0  0  0  0  0  0  0  0
   40.4810  -21.7755   39.5838 C   0  0  0  0  0  0  0  0  0  0  0  0
   39.1721  -21.4616   39.2859 C   0  0  0  0  0  0  0  0  0  0  0  0
   38.8258  -20.5934   38.2818 C   0  0  0  0  0  0  0  0  0  0  0  0
   37.5181  -20.0915   37.7553 C   0  0  0  0  0  0  0  0  0  0  0  0
   33.2974  -22.1763   36.2464 C   0  0  0  0  0  0  0  0  0  0  0  0
   32.4963  -21.0761   35.5563 C   0  0  0  0  0  0  0  0  0  0  0  0
   32.2534  -21.5124   34.1465 C   0  0  0  0  0  0  0  0  0  0  0  0
   31.2028  -20.9523   36.3424 C   0  0  0  0  0  0  0  0  0  0  0  0
 22 23  1  0  0  0
 23 24  1  0  0  0
 23 25  1  0  0  0
 23  1  1  0  0  0
  1  2  2  0  0  0
  2  3  1  0  0  0
  3 11  1  0  0  0
 11 12  2  0  0  0
 11 13  1  0  0  0
 13 14  1  0  0  0
 14 15  1  0  0  0
 15 16  2  0  0  0
 16 17  1  0  0  0
 17 18  2  0  0  0
 18 19  1  0  0  0
 19 20  2  0  0  0
 20 21  1  0  0  0
  3  4  2  0  0  0
  4  5  1  0  0  0
  4  6  1  0  0  0
  6  7  2  0  0  0
  7  8  1  0  0  0
  7  1  1  0  0  0
 21 13  1  0  0  0
 20 15  1  0  0  0
  5  9  1  0  0  0
  8 10  1  0  0  0
M  END
> <minimizedAffinity>
-5.59302

> <CNNscore>
0.3631054163

> <CNNaffinity>
4.1413478851

> <CNN_VS>
1.5037457943

> <CNNaffinity_variance>
0.1907271147

$$$$
[H]Oc1c([H])c(O[H])c(C(C([H])([H])[H])(C([H])([H])[H])C([H])([H])[H])c([H])c1C(=O)N1C([H])([H])c2c([H])c([H])c([H])c([H])c2C1([H])[H]


 25 27  0  0  0  0  0  0  0  0999 V2000
   35.3384  -15.1195   36.2239 C   0  0  0  0  0  0  0  0  0  0  0  0
   36.4020  -15.9849   35.9311 C   0  0  0  0  0  0  0  0  0  0  0  0
   36.2361  -17.2126   35.3249 C   0  0  0  0  0  0  0  0  0  0  0  0
   34.9114  -17.5611   35.0062 C   0  0  0  0  0  0  0  0  0  0  0  0
   34.6872  -18.7964   34.3895 O   0  0  0  0  0  0  0  0  0  0  0  0
   33.8812  -16.7064   35.2974 C   0  0  0  0  0  0  0  0  0  0  0  0
   34.0504  -15.4834   35.9023 C   0  0  0  0  0  0  0  0  0  0  0  0
   32.9625  -14.6535   36.1752 O   0  0  0  0  0  0  0  0  0  0  0  0
   33.7600  -19.0813   34.1469 H   0  0  0  0  0  0  0  0  0  0  0  0
   32.0504  -14.9913   35.9090 H   0  0  0  0  0  0  0  0  0  0  0  0
   37.2869  -18.1355   34.9811 C   0  0  0  0  0  0  0  0  0  0  0  0
   37.6401  -18.1331   33.7389 O   0  0  0  0  0  0  0  0  0  0  0  0
   38.0002  -19.0473   35.7695 N   0  0  0  0  0  0  0  0  0  0  0  0
   39.0628  -19.8997   35.2282 C   0  0  0  0  0  0  0  0  0  0  0  0
   39.4072  -20.8244   36.3251 C   0  0  0  0  0  0  0  0  0  0  0  0
   40.3041  -21.8915   36.2966 C   0  0  0  0  0  0  0  0  0  0  0  0
   40.4873  -22.6390   37.4391 C   0  0  0  0  0  0  0  0  0  0  0  0
   39.8091  -22.3606   38.6067 C   0  0  0  0  0  0  0  0  0  0  0  0
   38.9349  -21.2951   38.5790 C   0  0  0  0  0  0  0  0  0  0  0  0
   38.7294  -20.5309   37.4584 C   0  0  0  0  0  0  0  0  0  0  0  0
   37.8589  -19.3514   37.1576 C   0  0  0  0  0  0  0  0  0  0  0  0
   35.5294  -12.7127   35.8296 C   0  0  0  0  0  0  0  0  0  0  0  0
   35.5922  -13.8217   36.8758 C   0  0  0  0  0  0  0  0  0  0  0  0
   36.9636  -13.8012   37.4724 C   0  0  0  0  0  0  0  0  0  0  0  0
   34.5231  -13.4839   37.9002 C   0  0  0  0  0  0  0  0  0  0  0  0
 22 23  1  0  0  0
 23 24  1  0  0  0
 23 25  1  0  0  0
 23  1  1  0  0  0
  1  2  2  0  0  0
  2  3  1  0  0  0
  3 11  1  0  0  0
 11 12  2  0  0  0
 11 13  1  0  0  0
 13 14  1  0  0  0
 14 15  1  0  0  0
 15 16  2  0  0  0
 16 17  1  0  0  0
 17 18  2  0  0  0
 18 19  1  0  0  0
 19 20  2  0  0  0
 20 21  1  0  0  0
  3  4  2  0  0  0
  4  5  1  0  0  0
  4  6  1  0  0  0
  6  7  2  0  0  0
  7  8  1  0  0  0
  7  1  1  0  0  0
 21 13  1  0  0  0
 20 15  1  0  0  0
  5  9  1  0  0  0
  8 10  1  0  0  0
M  END
> <minimizedAffinity>
-6.66987

> <CNNscore>
0.3598936200

> <CNNaffinity>
4.4202647209

> <CNN_VS>
1.5908250809

> <CNNaffinity_variance>
0.1732125282

$$$$
[H]Oc1c([H])c(O[H])c(C(C([H])([H])[H])(C([H])([H])[H])C([H])([H])[H])c([H])c1C(=O)N1C([H])([H])c2c([H])c([H])c([H])c([H])c2C1([H])[H]


 25 27  0  0  0  0  0  0  0  0999 V2000
   34.1763  -18.9322   35.5025 C   0  0  0  0  0  0  0  0  0  0  0  0
   35.2996  -19.5724   36.0451 C   0  0  0  0  0  0  0  0  0  0  0  0
   36.4156  -18.8965   36.4922 C   0  0  0  0  0  0  0  0  0  0  0  0
   36.3682  -17.4959   36.3740 C   0  0  0  0  0  0  0  0  0  0  0  0
   37.4748  -16.7616   36.8129 O   0  0  0  0  0  0  0  0  0  0  0  0
   35.2646  -16.8828   35.8423 C   0  0  0  0  0  0  0  0  0  0  0  0
   34.1540  -17.5600   35.3971 C   0  0  0  0  0  0  0  0  0  0  0  0
   33.0574  -16.8818   34.8638 O   0  0  0  0  0  0  0  0  0  0  0  0
   37.4804  -15.7640   36.7461 H   0  0  0  0  0  0  0  0  0  0  0  0
   33.1174  -15.8761   34.8205 H   0  0  0  0  0  0  0  0  0  0  0  0
   37.5892  -19.4935   37.0757 C   0  0  0  0  0  0  0  0  0  0  0  0
   37.4072  -20.0684   38.2177 O   0  0  0  0  0  0  0  0  0  0  0  0
   38.9102  -19.5585   36.6146 N   0  0  0  0  0  0  0  0  0  0  0  0
   39.9752  -20.2383   37.3578 C   0  0  0  0  0  0  0  0  0  0  0  0
   41.2174  -19.9086   36.6332 C   0  0  0  0  0  0  0  0  0  0  0  0
   42.5261  -20.2415   36.9804 C   0  0  0  0  0  0  0  0  0  0  0  0
   43.5566  -19.8371   36.1606 C   0  0  0  0  0  0  0  0  0  0  0  0
   43.3288  -19.1140   35.0091 C   0  0  0  0  0  0  0  0  0  0  0  0
   42.0165  -18.8123   34.7138 C   0  0  0  0  0  0  0  0  0  0  0  0
   40.9675  -19.1996   35.5085 C   0  0  0  0  0  0  0  0  0  0  0  0
   39.4855  -19.0084   35.4290 C   0  0  0  0  0  0  0  0  0  0  0  0
   33.0454  -21.0909   35.7157 C   0  0  0  0  0  0  0  0  0  0  0  0
   33.0190  -19.7216   35.0429 C   0  0  0  0  0  0  0  0  0  0  0  0
   33.0972  -19.9436   33.5659 C   0  0  0  0  0  0  0  0  0  0  0  0
   31.7017  -19.0860   35.4518 C   0  0  0  0  0  0  0  0  0  0  0  0
 22 23  1  0  0  0
 23 24  1  0  0  0
 23 25  1  0  0  0
 23  1  1  0  0  0
  1  2  2  0  0  0
  2  3  1  0  0  0
  3 11  1  0  0  0
 11 12  2  0  0  0
 11 13  1  0  0  0
 13 14  1  0  0  0
 14 15  1  0  0  0
 15 16  2  0  0  0
 16 17  1  0  0  0
 17 18  2  0  0  0
 18 19  1  0  0  0
 19 20  2  0  0  0
 20 21  1  0  0  0
  3  4  2  0  0  0
  4  5  1  0  0  0
  4  6  1  0  0  0
  6  7  2  0  0  0
  7  8  1  0  0  0
  7  1  1  0  0  0
 21 13  1  0  0  0
 20 15  1  0  0  0
  5  9  1  0  0  0
  8 10  1  0  0  0
M  END
> <minimizedAffinity>
-5.69928

> <CNNscore>
0.3575224280

> <CNNaffinity>
4.0132622719

> <CNN_VS>
1.4348312616

> <CNNaffinity_variance>
0.3140566945

$$$$
[H]Oc1c([H])c(O[H])c(C(C([H])([H])[H])(C([H])([H])[H])C([H])([H])[H])c([H])c1C(=O)N1C([H])([H])c2c([H])c([H])c([H])c([H])c2C1([H])[H]


 25 27  0  0  0  0  0  0  0  0999 V2000
   36.3291  -19.2525   35.7999 C   0  0  0  0  0  0  0  0  0  0  0  0
   37.6703  -19.6568   35.8604 C   0  0  0  0  0  0  0  0  0  0  0  0
   38.1206  -20.6709   36.6795 C   0  0  0  0  0  0  0  0  0  0  0  0
   37.1405  -21.2957   37.4712 C   0  0  0  0  0  0  0  0  0  0  0  0
   37.5439  -22.3313   38.3205 O   0  0  0  0  0  0  0  0  0  0  0  0
   35.8334  -20.8913   37.4026 C   0  0  0  0  0  0  0  0  0  0  0  0
   35.3883  -19.8795   36.5850 C   0  0  0  0  0  0  0  0  0  0  0  0
   34.0432  -19.5098   36.5567 O   0  0  0  0  0  0  0  0  0  0  0  0
   36.8777  -22.8010   38.8996 H   0  0  0  0  0  0  0  0  0  0  0  0
   33.4157  -20.0172   37.1614 H   0  0  0  0  0  0  0  0  0  0  0  0
   39.4776  -21.1444   36.7721 C   0  0  0  0  0  0  0  0  0  0  0  0
   39.7375  -22.2127   36.0948 O   0  0  0  0  0  0  0  0  0  0  0  0
   40.5774  -20.6420   37.4790 N   0  0  0  0  0  0  0  0  0  0  0  0
   41.9025  -21.2670   37.4296 C   0  0  0  0  0  0  0  0  0  0  0  0
   42.6999  -20.5532   38.4452 C   0  0  0  0  0  0  0  0  0  0  0  0
   44.0064  -20.8205   38.8521 C   0  0  0  0  0  0  0  0  0  0  0  0
   44.5778  -20.0274   39.8226 C   0  0  0  0  0  0  0  0  0  0  0  0
   43.8938  -18.9791   40.4006 C   0  0  0  0  0  0  0  0  0  0  0  0
   42.6057  -18.7595   39.9612 C   0  0  0  0  0  0  0  0  0  0  0  0
   42.0075  -19.5305   38.9970 C   0  0  0  0  0  0  0  0  0  0  0  0
   40.6563  -19.5163   38.3542 C   0  0  0  0  0  0  0  0  0  0  0  0
   37.1104  -17.7469   34.0372 C   0  0  0  0  0  0  0  0  0  0  0  0
   35.9212  -18.1578   34.9004 C   0  0  0  0  0  0  0  0  0  0  0  0
   35.5070  -16.9609   35.6959 C   0  0  0  0  0  0  0  0  0  0  0  0
   34.8384  -18.5961   33.9299 C   0  0  0  0  0  0  0  0  0  0  0  0
 22 23  1  0  0  0
 23 24  1  0  0  0
 23 25  1  0  0  0
 23  1  1  0  0  0
  1  2  2  0  0  0
  2  3  1  0  0  0
  3 11  1  0  0  0
 11 12  2  0  0  0
 11 13  1  0  0  0
 13 14  1  0  0  0
 14 15  1  0  0  0
 15 16  2  0  0  0
 16 17  1  0  0  0
 17 18  2  0  0  0
 18 19  1  0  0  0
 19 20  2  0  0  0
 20 21  1  0  0  0
  3  4  2  0  0  0
  4  5  1  0  0  0
  4  6  1  0  0  0
  6  7  2  0  0  0
  7  8  1  0  0  0
  7  1  1  0  0  0
 21 13  1  0  0  0
 20 15  1  0  0  0
  5  9  1  0  0  0
  8 10  1  0  0  0
M  END
> <minimizedAffinity>
-4.63812

> <CNNscore>
0.3564562201

> <CNNaffinity>
4.1221179962

> <CNN_VS>
1.4693546295

> <CNNaffinity_variance>
0.0590574667

$$$$
[H]c1c([H])c(N([H])C(=O)N([H])c2c([H])c([H])c(-c3c([H])c([H])c([H])c4c3c(N([H])[H])nn4[H])c([H])c2[H])c([H])c(C(F)(F)F)c1[H]


 35 38  0  0  0  0  0  0  0  0999 V2000
   35.1398  -19.8870   37.2844 C   0  0  0  0  0  0  0  0  0  0  0  0
   36.5163  -19.9833   36.9454 C   0  0  0  0  0  0  0  0  0  0  0  0
   37.3853  -20.4854   37.8611 C   0  0  0  0  0  0  0  0  0  0  0  0
   36.9912  -20.9217   39.1450 C   0  0  0  0  0  0  0  0  0  0  0  0
   35.7009  -20.8293   39.4618 C   0  0  0  0  0  0  0  0  0  0  0  0
   34.7679  -20.3000   38.4979 C   0  0  0  0  0  0  0  0  0  0  0  0
   33.4668  -22.2105   36.0492 N   0  0  0  0  0  0  0  0  0  0  0  0
   33.0991  -21.1542   35.1784 C   0  0  0  0  0  0  0  0  0  0  0  0
   32.3044  -21.1942   34.1167 N   0  0  0  0  0  0  0  0  0  0  0  0
   32.1664  -20.0100   33.5693 N   0  0  0  0  0  0  0  0  0  0  0  0
   32.9211  -19.1270   34.3203 C   0  0  0  0  0  0  0  0  0  0  0  0
   33.1328  -17.8166   34.2013 C   0  0  0  0  0  0  0  0  0  0  0  0
   33.9373  -17.1881   35.1019 C   0  0  0  0  0  0  0  0  0  0  0  0
   34.5501  -17.8541   36.1398 C   0  0  0  0  0  0  0  0  0  0  0  0
   34.3335  -19.2432   36.2674 C   0  0  0  0  0  0  0  0  0  0  0  0
   33.5231  -19.8368   35.3434 C   0  0  0  0  0  0  0  0  0  0  0  0
   34.4502  -22.5430   36.0664 H   0  0  0  0  0  0  0  0  0  0  0  0
   32.7838  -22.6746   36.6910 H   0  0  0  0  0  0  0  0  0  0  0  0
   31.5987  -19.7209   32.7167 H   0  0  0  0  0  0  0  0  0  0  0  0
   38.0875  -21.3007   39.9418 N   0  0  0  0  0  0  0  0  0  0  0  0
   38.4284  -22.7843   39.6921 C   0  0  0  0  0  0  0  0  0  0  0  0
   37.6935  -23.3522   39.0407 O   0  0  0  0  0  0  0  0  0  0  0  0
   39.6367  -23.0752   40.3593 N   0  0  0  0  0  0  0  0  0  0  0  0
   38.6293  -20.7743   40.5908 H   0  0  0  0  0  0  0  0  0  0  0  0
   39.3685  -24.4499   40.0893 H   0  0  0  0  0  0  0  0  0  0  0  0
   40.7311  -23.3850   40.9469 C   0  0  0  0  0  0  0  0  0  0  0  0
   41.3026  -24.6940   40.9530 C   0  0  0  0  0  0  0  0  0  0  0  0
   42.4767  -25.0272   41.5060 C   0  0  0  0  0  0  0  0  0  0  0  0
   43.2424  -24.0677   42.1395 C   0  0  0  0  0  0  0  0  0  0  0  0
   42.7285  -22.7829   42.1573 C   0  0  0  0  0  0  0  0  0  0  0  0
   41.5560  -22.4385   41.6060 C   0  0  0  0  0  0  0  0  0  0  0  0
   43.5697  -21.7342   42.8325 C   0  0  0  0  0  0  0  0  0  0  0  0
   44.1753  -21.0265   41.8143 F   0  0  0  0  0  0  0  0  0  0  0  0
   44.5676  -22.3714   43.5766 F   0  0  0  0  0  0  0  0  0  0  0  0
   42.7513  -20.9682   43.5842 F   0  0  0  0  0  0  0  0  0  0  0  0
  7  8  1  0  0  0
  8  9  2  0  0  0
  9 10  1  0  0  0
 10 11  1  0  0  0
 11 12  2  0  0  0
 12 13  1  0  0  0
 13 14  2  0  0  0
 14 15  1  0  0  0
 15  1  1  0  0  0
  1  2  2  0  0  0
  2  3  1  0  0  0
  3  4  2  0  0  0
  4 20  1  0  0  0
 20 21  1  0  0  0
 21 22  2  0  0  0
 21 23  1  0  0  0
 23 26  1  0  0  0
 26 27  2  0  0  0
 27 28  1  0  0  0
 28 29  2  0  0  0
 29 30  1  0  0  0
 30 31  2  0  0  0
 30 32  1  0  0  0
 32 33  1  0  0  0
 32 34  1  0  0  0
 32 35  1  0  0  0
  4  5  1  0  0  0
  5  6  2  0  0  0
 15 16  2  0  0  0
 16  8  1  0  0  0
 16 11  1  0  0  0
  6  1  1  0  0  0
 31 26  1  0  0  0
  7 17  1  0  0  0
  7 18  1  0  0  0
 10 19  1  0  0  0
 20 24  1  0  0  0
 23 25  1  0  0  0
M  END
> <minimizedAffinity>
-4.74024

> <CNNscore>
0.5406533480

> <CNNaffinity>
4.9465904236

> <CNN_VS>
2.6743905544

> <CNNaffinity_variance>
0.0578858852

$$$$
[H]c1c([H])c(N([H])C(=O)N([H])c2c([H])c([H])c(-c3c([H])c([H])c([H])c4c3c(N([H])[H])nn4[H])c([H])c2[H])c([H])c(C(F)(F)F)c1[H]


 35 38  0  0  0  0  0  0  0  0999 V2000
   33.2468  -21.9231   37.0818 C   0  0  0  0  0  0  0  0  0  0  0  0
   33.7530  -20.9835   38.0199 C   0  0  0  0  0  0  0  0  0  0  0  0
   34.9535  -21.2240   38.6087 C   0  0  0  0  0  0  0  0  0  0  0  0
   35.7343  -22.3687   38.3365 C   0  0  0  0  0  0  0  0  0  0  0  0
   35.2577  -23.2492   37.4583 C   0  0  0  0  0  0  0  0  0  0  0  0
   33.9855  -23.0047   36.8247 C   0  0  0  0  0  0  0  0  0  0  0  0
   33.7407  -20.1185   34.5873 N   0  0  0  0  0  0  0  0  0  0  0  0
   32.3290  -20.0291   34.6785 C   0  0  0  0  0  0  0  0  0  0  0  0
   31.4931  -19.3243   33.9270 N   0  0  0  0  0  0  0  0  0  0  0  0
   30.2446  -19.5119   34.2836 N   0  0  0  0  0  0  0  0  0  0  0  0
   30.2558  -20.4013   35.3427 C   0  0  0  0  0  0  0  0  0  0  0  0
   29.2714  -20.9226   36.0744 C   0  0  0  0  0  0  0  0  0  0  0  0
   29.5758  -21.7932   37.0757 C   0  0  0  0  0  0  0  0  0  0  0  0
   30.8697  -22.1610   37.3703 C   0  0  0  0  0  0  0  0  0  0  0  0
   31.9167  -21.6078   36.6020 C   0  0  0  0  0  0  0  0  0  0  0  0
   31.5708  -20.7371   35.6094 C   0  0  0  0  0  0  0  0  0  0  0  0
   34.3301  -19.7258   35.3465 H   0  0  0  0  0  0  0  0  0  0  0  0
   34.2249  -20.5748   33.7804 H   0  0  0  0  0  0  0  0  0  0  0  0
   29.3547  -19.0931   33.8766 H   0  0  0  0  0  0  0  0  0  0  0  0
   36.8823  -22.4393   39.1474 N   0  0  0  0  0  0  0  0  0  0  0  0
   38.0516  -21.6996   38.4654 C   0  0  0  0  0  0  0  0  0  0  0  0
   37.8561  -21.3485   37.4045 O   0  0  0  0  0  0  0  0  0  0  0  0
   39.1211  -21.6298   39.3824 N   0  0  0  0  0  0  0  0  0  0  0  0
   37.0227  -22.8680   40.0353 H   0  0  0  0  0  0  0  0  0  0  0  0
   39.9279  -21.1842   38.2938 H   0  0  0  0  0  0  0  0  0  0  0  0
   40.1174  -21.5409   40.1814 C   0  0  0  0  0  0  0  0  0  0  0  0
   40.5714  -22.5980   41.0279 C   0  0  0  0  0  0  0  0  0  0  0  0
   41.6482  -22.5490   41.8238 C   0  0  0  0  0  0  0  0  0  0  0  0
   42.4223  -21.4060   41.8739 C   0  0  0  0  0  0  0  0  0  0  0  0
   42.0209  -20.3546   41.0684 C   0  0  0  0  0  0  0  0  0  0  0  0
   40.9464  -20.3937   40.2677 C   0  0  0  0  0  0  0  0  0  0  0  0
   42.8731  -19.1155   41.1101 C   0  0  0  0  0  0  0  0  0  0  0  0
   44.1763  -19.5524   40.9873 F   0  0  0  0  0  0  0  0  0  0  0  0
   42.7290  -18.5150   42.3647 F   0  0  0  0  0  0  0  0  0  0  0  0
   42.4930  -18.3175   40.0902 F   0  0  0  0  0  0  0  0  0  0  0  0
  7  8  1  0  0  0
  8  9  2  0  0  0
  9 10  1  0  0  0
 10 11  1  0  0  0
 11 12  2  0  0  0
 12 13  1  0  0  0
 13 14  2  0  0  0
 14 15  1  0  0  0
 15  1  1  0  0  0
  1  2  2  0  0  0
  2  3  1  0  0  0
  3  4  2  0  0  0
  4 20  1  0  0  0
 20 21  1  0  0  0
 21 22  2  0  0  0
 21 23  1  0  0  0
 23 26  1  0  0  0
 26 27  2  0  0  0
 27 28  1  0  0  0
 28 29  2  0  0  0
 29 30  1  0  0  0
 30 31  2  0  0  0
 30 32  1  0  0  0
 32 33  1  0  0  0
 32 34  1  0  0  0
 32 35  1  0  0  0
  4  5  1  0  0  0
  5  6  2  0  0  0
 15 16  2  0  0  0
 16  8  1  0  0  0
 16 11  1  0  0  0
  6  1  1  0  0  0
 31 26  1  0  0  0
  7 17  1  0  0  0
  7 18  1  0  0  0
 10 19  1  0  0  0
 20 24  1  0  0  0
 23 25  1  0  0  0
M  END
> <minimizedAffinity>
-5.31480

> <CNNscore>
0.5221653581

> <CNNaffinity>
4.6851553917

> <CNN_VS>
2.4464259148

> <CNNaffinity_variance>
0.0620299652

$$$$
[H]c1c([H])c(N([H])C(=O)N([H])c2c([H])c([H])c(-c3c([H])c([H])c([H])c4c3c(N([H])[H])nn4[H])c([H])c2[H])c([H])c(C(F)(F)F)c1[H]


 35 38  0  0  0  0  0  0  0  0999 V2000
   33.3125  -20.9459   36.6115 C   0  0  0  0  0  0  0  0  0  0  0  0
   34.0238  -19.9059   37.2685 C   0  0  0  0  0  0  0  0  0  0  0  0
   35.2164  -20.1923   37.8527 C   0  0  0  0  0  0  0  0  0  0  0  0
   35.7942  -21.4808   37.8426 C   0  0  0  0  0  0  0  0  0  0  0  0
   35.1256  -22.4548   37.2279 C   0  0  0  0  0  0  0  0  0  0  0  0
   33.8594  -22.1634   36.6020 C   0  0  0  0  0  0  0  0  0  0  0  0
   31.3098  -22.7874   38.1349 N   0  0  0  0  0  0  0  0  0  0  0  0
   30.4172  -22.1373   37.2462 C   0  0  0  0  0  0  0  0  0  0  0  0
   29.1120  -22.3244   37.0986 N   0  0  0  0  0  0  0  0  0  0  0  0
   28.6050  -21.5163   36.1980 N   0  0  0  0  0  0  0  0  0  0  0  0
   29.6457  -20.7422   35.7176 C   0  0  0  0  0  0  0  0  0  0  0  0
   29.6836  -19.7776   34.7988 C   0  0  0  0  0  0  0  0  0  0  0  0
   30.8700  -19.1712   34.5193 C   0  0  0  0  0  0  0  0  0  0  0  0
   32.0451  -19.5158   35.1490 C   0  0  0  0  0  0  0  0  0  0  0  0
   32.0117  -20.5406   36.1192 C   0  0  0  0  0  0  0  0  0  0  0  0
   30.8041  -21.1256   36.3690 C   0  0  0  0  0  0  0  0  0  0  0  0
   32.0450  -23.4149   37.7561 H   0  0  0  0  0  0  0  0  0  0  0  0
   31.2659  -22.6577   39.1717 H   0  0  0  0  0  0  0  0  0  0  0  0
   27.5996  -21.4248   35.8608 H   0  0  0  0  0  0  0  0  0  0  0  0
   36.9774  -21.5432   38.6019 N   0  0  0  0  0  0  0  0  0  0  0  0
   38.1881  -21.1856   37.7154 C   0  0  0  0  0  0  0  0  0  0  0  0
   37.9666  -21.0682   36.6090 O   0  0  0  0  0  0  0  0  0  0  0  0
   39.3229  -21.0757   38.5460 N   0  0  0  0  0  0  0  0  0  0  0  0
   37.1200  -21.7670   39.5618 H   0  0  0  0  0  0  0  0  0  0  0  0
   40.1015  -21.0370   37.3515 H   0  0  0  0  0  0  0  0  0  0  0  0
   40.3793  -20.9635   39.2603 C   0  0  0  0  0  0  0  0  0  0  0  0
   40.6997  -21.8072   40.3674 C   0  0  0  0  0  0  0  0  0  0  0  0
   41.8275  -21.7492   41.0885 C   0  0  0  0  0  0  0  0  0  0  0  0
   42.7980  -20.8143   40.7844 C   0  0  0  0  0  0  0  0  0  0  0  0
   42.5313  -19.9748   39.7170 C   0  0  0  0  0  0  0  0  0  0  0  0
   41.4072  -20.0253   38.9883 C   0  0  0  0  0  0  0  0  0  0  0  0
   43.5951  -18.9674   39.3750 C   0  0  0  0  0  0  0  0  0  0  0  0
   42.9377  -17.9229   38.7577 F   0  0  0  0  0  0  0  0  0  0  0  0
   44.4731  -19.5402   38.4495 F   0  0  0  0  0  0  0  0  0  0  0  0
   44.1987  -18.5969   40.5238 F   0  0  0  0  0  0  0  0  0  0  0  0
  7  8  1  0  0  0
  8  9  2  0  0  0
  9 10  1  0  0  0
 10 11  1  0  0  0
 11 12  2  0  0  0
 12 13  1  0  0  0
 13 14  2  0  0  0
 14 15  1  0  0  0
 15  1  1  0  0  0
  1  2  2  0  0  0
  2  3  1  0  0  0
  3  4  2  0  0  0
  4 20  1  0  0  0
 20 21  1  0  0  0
 21 22  2  0  0  0
 21 23  1  0  0  0
 23 26  1  0  0  0
 26 27  2  0  0  0
 27 28  1  0  0  0
 28 29  2  0  0  0
 29 30  1  0  0  0
 30 31  2  0  0  0
 30 32  1  0  0  0
 32 33  1  0  0  0
 32 34  1  0  0  0
 32 35  1  0  0  0
  4  5  1  0  0  0
  5  6  2  0  0  0
 15 16  2  0  0  0
 16  8  1  0  0  0
 16 11  1  0  0  0
  6  1  1  0  0  0
 31 26  1  0  0  0
  7 17  1  0  0  0
  7 18  1  0  0  0
 10 19  1  0  0  0
 20 24  1  0  0  0
 23 25  1  0  0  0
M  END
> <minimizedAffinity>
-5.10995

> <CNNscore>
0.5204772949

> <CNNaffinity>
4.8519091606

> <CNN_VS>
2.5253086090

> <CNNaffinity_variance>
0.0298808925

$$$$
[H]c1c([H])c(N([H])C(=O)N([H])c2c([H])c([H])c(-c3c([H])c([H])c([H])c4c3c(N([H])[H])nn4[H])c([H])c2[H])c([H])c(C(F)(F)F)c1[H]


 35 38  0  0  0  0  0  0  0  0999 V2000
   34.9709  -20.4050   37.2210 C   0  0  0  0  0  0  0  0  0  0  0  0
   36.3584  -20.3537   36.9186 C   0  0  0  0  0  0  0  0  0  0  0  0
   37.2555  -20.6438   37.8968 C   0  0  0  0  0  0  0  0  0  0  0  0
   36.8807  -20.9972   39.2115 C   0  0  0  0  0  0  0  0  0  0  0  0
   35.5800  -21.0432   39.4938 C   0  0  0  0  0  0  0  0  0  0  0  0
   34.6173  -20.7395   38.4638 C   0  0  0  0  0  0  0  0  0  0  0  0
   35.5807  -17.3615   36.9235 N   0  0  0  0  0  0  0  0  0  0  0  0
   34.5135  -17.4889   35.9993 C   0  0  0  0  0  0  0  0  0  0  0  0
   33.9317  -16.5454   35.2702 N   0  0  0  0  0  0  0  0  0  0  0  0
   32.9937  -17.0391   34.4972 N   0  0  0  0  0  0  0  0  0  0  0  0
   32.9527  -18.4017   34.7310 C   0  0  0  0  0  0  0  0  0  0  0  0
   32.1898  -19.3674   34.2195 C   0  0  0  0  0  0  0  0  0  0  0  0
   32.3699  -20.6500   34.6389 C   0  0  0  0  0  0  0  0  0  0  0  0
   33.3137  -20.9967   35.5797 C   0  0  0  0  0  0  0  0  0  0  0  0
   34.1209  -19.9771   36.1286 C   0  0  0  0  0  0  0  0  0  0  0  0
   33.9080  -18.7042   35.6845 C   0  0  0  0  0  0  0  0  0  0  0  0
   35.4062  -17.5214   37.9343 H   0  0  0  0  0  0  0  0  0  0  0  0
   36.5538  -17.1158   36.6294 H   0  0  0  0  0  0  0  0  0  0  0  0
   32.3570  -16.5419   33.8042 H   0  0  0  0  0  0  0  0  0  0  0  0
   37.9911  -21.1480   40.0628 N   0  0  0  0  0  0  0  0  0  0  0  0
   38.4374  -22.6245   40.0850 C   0  0  0  0  0  0  0  0  0  0  0  0
   37.7516  -23.3510   39.5476 O   0  0  0  0  0  0  0  0  0  0  0  0
   39.6549  -22.7042   40.7929 N   0  0  0  0  0  0  0  0  0  0  0  0
   38.4872  -20.4762   40.6055 H   0  0  0  0  0  0  0  0  0  0  0  0
   39.4863  -24.1205   40.7759 H   0  0  0  0  0  0  0  0  0  0  0  0
   40.7611  -22.8249   41.4258 C   0  0  0  0  0  0  0  0  0  0  0  0
   41.3330  -24.0720   41.8230 C   0  0  0  0  0  0  0  0  0  0  0  0
   42.5182  -24.2261   42.4289 C   0  0  0  0  0  0  0  0  0  0  0  0
   43.2963  -23.1230   42.7215 C   0  0  0  0  0  0  0  0  0  0  0  0
   42.7826  -21.8918   42.3534 C   0  0  0  0  0  0  0  0  0  0  0  0
   41.5990  -21.7266   41.7457 C   0  0  0  0  0  0  0  0  0  0  0  0
   43.6371  -20.6914   42.6568 C   0  0  0  0  0  0  0  0  0  0  0  0
   44.2579  -20.3630   41.4689 F   0  0  0  0  0  0  0  0  0  0  0  0
   44.6218  -21.0639   43.5771 F   0  0  0  0  0  0  0  0  0  0  0  0
   42.8276  -19.7112   43.1099 F   0  0  0  0  0  0  0  0  0  0  0  0
  7  8  1  0  0  0
  8  9  2  0  0  0
  9 10  1  0  0  0
 10 11  1  0  0  0
 11 12  2  0  0  0
 12 13  1  0  0  0
 13 14  2  0  0  0
 14 15  1  0  0  0
 15  1  1  0  0  0
  1  2  2  0  0  0
  2  3  1  0  0  0
  3  4  2  0  0  0
  4 20  1  0  0  0
 20 21  1  0  0  0
 21 22  2  0  0  0
 21 23  1  0  0  0
 23 26  1  0  0  0
 26 27  2  0  0  0
 27 28  1  0  0  0
 28 29  2  0  0  0
 29 30  1  0  0  0
 30 31  2  0  0  0
 30 32  1  0  0  0
 32 33  1  0  0  0
 32 34  1  0  0  0
 32 35  1  0  0  0
  4  5  1  0  0  0
  5  6  2  0  0  0
 15 16  2  0  0  0
 16  8  1  0  0  0
 16 11  1  0  0  0
  6  1  1  0  0  0
 31 26  1  0  0  0
  7 17  1  0  0  0
  7 18  1  0  0  0
 10 19  1  0  0  0
 20 24  1  0  0  0
 23 25  1  0  0  0
M  END
> <minimizedAffinity>
-4.73514

> <CNNscore>
0.5187338591

> <CNNaffinity>
4.9557013512

> <CNN_VS>
2.5706901550

> <CNNaffinity_variance>
0.0706775412

$$$$
[H]c1c([H])c(N([H])C(=O)N([H])c2c([H])c([H])c(-c3c([H])c([H])c([H])c4c3c(N([H])[H])nn4[H])c([H])c2[H])c([H])c(C(F)(F)F)c1[H]


 35 38  0  0  0  0  0  0  0  0999 V2000
   33.6405  -22.6907   36.1766 C   0  0  0  0  0  0  0  0  0  0  0  0
   34.1683  -21.3843   36.3603 C   0  0  0  0  0  0  0  0  0  0  0  0
   35.4834  -21.2443   36.6715 C   0  0  0  0  0  0  0  0  0  0  0  0
   36.3639  -22.3377   36.8239 C   0  0  0  0  0  0  0  0  0  0  0  0
   35.8673  -23.5616   36.6530 C   0  0  0  0  0  0  0  0  0  0  0  0
   34.4735  -23.7238   36.3204 C   0  0  0  0  0  0  0  0  0  0  0  0
   32.4168  -22.8904   39.0377 N   0  0  0  0  0  0  0  0  0  0  0  0
   31.2407  -23.0263   38.2583 C   0  0  0  0  0  0  0  0  0  0  0  0
   29.9951  -23.2312   38.6667 N   0  0  0  0  0  0  0  0  0  0  0  0
   29.1551  -23.2721   37.6598 N   0  0  0  0  0  0  0  0  0  0  0  0
   29.8956  -23.0811   36.5074 C   0  0  0  0  0  0  0  0  0  0  0  0
   29.5428  -23.0363   35.2230 C   0  0  0  0  0  0  0  0  0  0  0  0
   30.4996  -22.8281   34.2771 C   0  0  0  0  0  0  0  0  0  0  0  0
   31.8298  -22.6622   34.5921 C   0  0  0  0  0  0  0  0  0  0  0  0
   32.2097  -22.7140   35.9506 C   0  0  0  0  0  0  0  0  0  0  0  0
   31.2220  -22.9273   36.8681 C   0  0  0  0  0  0  0  0  0  0  0  0
   33.1524  -23.6214   38.9888 H   0  0  0  0  0  0  0  0  0  0  0  0
   32.5844  -22.0711   39.6658 H   0  0  0  0  0  0  0  0  0  0  0  0
   28.1008  -23.4181   37.6640 H   0  0  0  0  0  0  0  0  0  0  0  0
   37.6452  -21.9385   37.2476 N   0  0  0  0  0  0  0  0  0  0  0  0
   37.5324  -21.0976   38.5359 C   0  0  0  0  0  0  0  0  0  0  0  0
   36.4774  -20.8260   38.8521 O   0  0  0  0  0  0  0  0  0  0  0  0
   38.8347  -20.8762   39.0307 N   0  0  0  0  0  0  0  0  0  0  0  0
   38.5425  -22.1189   36.8551 H   0  0  0  0  0  0  0  0  0  0  0  0
   38.2532  -19.9322   39.9280 H   0  0  0  0  0  0  0  0  0  0  0  0
   39.9970  -20.6514   39.5180 C   0  0  0  0  0  0  0  0  0  0  0  0
   40.3875  -20.9673   40.8551 C   0  0  0  0  0  0  0  0  0  0  0  0
   41.6145  -20.7999   41.3669 C   0  0  0  0  0  0  0  0  0  0  0  0
   42.6276  -20.2805   40.5845 C   0  0  0  0  0  0  0  0  0  0  0  0
   42.2955  -19.9605   39.2797 C   0  0  0  0  0  0  0  0  0  0  0  0
   41.0718  -20.1252   38.7574 C   0  0  0  0  0  0  0  0  0  0  0  0
   43.4025  -19.4102   38.4223 C   0  0  0  0  0  0  0  0  0  0  0  0
   43.0695  -19.7382   37.1239 F   0  0  0  0  0  0  0  0  0  0  0  0
   44.5917  -20.0694   38.7492 F   0  0  0  0  0  0  0  0  0  0  0  0
   43.4589  -18.0771   38.6248 F   0  0  0  0  0  0  0  0  0  0  0  0
  7  8  1  0  0  0
  8  9  2  0  0  0
  9 10  1  0  0  0
 10 11  1  0  0  0
 11 12  2  0  0  0
 12 13  1  0  0  0
 13 14  2  0  0  0
 14 15  1  0  0  0
 15  1  1  0  0  0
  1  2  2  0  0  0
  2  3  1  0  0  0
  3  4  2  0  0  0
  4 20  1  0  0  0
 20 21  1  0  0  0
 21 22  2  0  0  0
 21 23  1  0  0  0
 23 26  1  0  0  0
 26 27  2  0  0  0
 27 28  1  0  0  0
 28 29  2  0  0  0
 29 30  1  0  0  0
 30 31  2  0  0  0
 30 32  1  0  0  0
 32 33  1  0  0  0
 32 34  1  0  0  0
 32 35  1  0  0  0
  4  5  1  0  0  0
  5  6  2  0  0  0
 15 16  2  0  0  0
 16  8  1  0  0  0
 16 11  1  0  0  0
  6  1  1  0  0  0
 31 26  1  0  0  0
  7 17  1  0  0  0
  7 18  1  0  0  0
 10 19  1  0  0  0
 20 24  1  0  0  0
 23 25  1  0  0  0
M  END
> <minimizedAffinity>
-1.85957

> <CNNscore>
0.4317687452

> <CNNaffinity>
5.1563758850

> <CNN_VS>
2.2263619900

> <CNNaffinity_variance>
1.1652091742

$$$$
[H]c1c([H])c(N([H])C(=O)N([H])c2c([H])c([H])c(-c3c([H])c([H])c([H])c4c3c(N([H])[H])nn4[H])c([H])c2[H])c([H])c(C(F)(F)F)c1[H]


 35 38  0  0  0  0  0  0  0  0999 V2000
   39.3858  -20.0920   36.8029 C   0  0  0  0  0  0  0  0  0  0  0  0
   38.1281  -19.4468   36.9472 C   0  0  0  0  0  0  0  0  0  0  0  0
   37.1236  -20.1004   37.5873 C   0  0  0  0  0  0  0  0  0  0  0  0
   37.2626  -21.3996   38.1228 C   0  0  0  0  0  0  0  0  0  0  0  0
   38.4415  -22.0035   37.9853 C   0  0  0  0  0  0  0  0  0  0  0  0
   39.5166  -21.3198   37.3097 C   0  0  0  0  0  0  0  0  0  0  0  0
   38.7792  -20.9252   33.8600 N   0  0  0  0  0  0  0  0  0  0  0  0
   39.9377  -20.1340   33.6566 C   0  0  0  0  0  0  0  0  0  0  0  0
   40.5822  -19.8844   32.5242 N   0  0  0  0  0  0  0  0  0  0  0  0
   41.6002  -19.0786   32.7130 N   0  0  0  0  0  0  0  0  0  0  0  0
   41.6306  -18.7748   34.0620 C   0  0  0  0  0  0  0  0  0  0  0  0
   42.4522  -18.0108   34.7814 C   0  0  0  0  0  0  0  0  0  0  0  0
   42.2427  -17.8861   36.1208 C   0  0  0  0  0  0  0  0  0  0  0  0
   41.2101  -18.5230   36.7721 C   0  0  0  0  0  0  0  0  0  0  0  0
   40.3400  -19.3377   36.0158 C   0  0  0  0  0  0  0  0  0  0  0  0
   40.5849  -19.4392   34.6769 C   0  0  0  0  0  0  0  0  0  0  0  0
   38.8497  -21.8094   34.3995 H   0  0  0  0  0  0  0  0  0  0  0  0
   37.8394  -20.6525   33.4911 H   0  0  0  0  0  0  0  0  0  0  0  0
   42.3002  -18.6965   32.0081 H   0  0  0  0  0  0  0  0  0  0  0  0
   36.0530  -21.8969   38.6426 N   0  0  0  0  0  0  0  0  0  0  0  0
   36.0361  -21.7348   40.1765 C   0  0  0  0  0  0  0  0  0  0  0  0
   37.0094  -21.3844   40.6422 O   0  0  0  0  0  0  0  0  0  0  0  0
   34.7455  -22.0671   40.6386 N   0  0  0  0  0  0  0  0  0  0  0  0
   35.2689  -22.3035   38.1825 H   0  0  0  0  0  0  0  0  0  0  0  0
   35.2918  -22.0431   41.9560 H   0  0  0  0  0  0  0  0  0  0  0  0
   33.5886  -22.3575   41.1037 C   0  0  0  0  0  0  0  0  0  0  0  0
   33.0872  -21.9062   42.3627 C   0  0  0  0  0  0  0  0  0  0  0  0
   31.8583  -22.1443   42.8408 C   0  0  0  0  0  0  0  0  0  0  0  0
   30.9571  -22.8842   42.1001 C   0  0  0  0  0  0  0  0  0  0  0  0
   31.3991  -23.3419   40.8711 C   0  0  0  0  0  0  0  0  0  0  0  0
   32.6256  -23.1083   40.3828 C   0  0  0  0  0  0  0  0  0  0  0  0
   30.4125  -24.1336   40.0567 C   0  0  0  0  0  0  0  0  0  0  0  0
   29.7416  -24.9361   40.9569 F   0  0  0  0  0  0  0  0  0  0  0  0
   31.1189  -24.9590   39.1762 F   0  0  0  0  0  0  0  0  0  0  0  0
   29.5974  -23.2594   39.4299 F   0  0  0  0  0  0  0  0  0  0  0  0
  7  8  1  0  0  0
  8  9  2  0  0  0
  9 10  1  0  0  0
 10 11  1  0  0  0
 11 12  2  0  0  0
 12 13  1  0  0  0
 13 14  2  0  0  0
 14 15  1  0  0  0
 15  1  1  0  0  0
  1  2  2  0  0  0
  2  3  1  0  0  0
  3  4  2  0  0  0
  4 20  1  0  0  0
 20 21  1  0  0  0
 21 22  2  0  0  0
 21 23  1  0  0  0
 23 26  1  0  0  0
 26 27  2  0  0  0
 27 28  1  0  0  0
 28 29  2  0  0  0
 29 30  1  0  0  0
 30 31  2  0  0  0
 30 32  1  0  0  0
 32 33  1  0  0  0
 32 34  1  0  0  0
 32 35  1  0  0  0
  4  5  1  0  0  0
  5  6  2  0  0  0
 15 16  2  0  0  0
 16  8  1  0  0  0
 16 11  1  0  0  0
  6  1  1  0  0  0
 31 26  1  0  0  0
  7 17  1  0  0  0
  7 18  1  0  0  0
 10 19  1  0  0  0
 20 24  1  0  0  0
 23 25  1  0  0  0
M  END
> <minimizedAffinity>
-4.56432

> <CNNscore>
0.4200717211

> <CNNaffinity>
4.9430589676

> <CNN_VS>
2.0764393806

> <CNNaffinity_variance>
0.1216775402

$$$$
[H]c1c([H])c(N([H])C(=O)N([H])c2c([H])c([H])c(-c3c([H])c([H])c([H])c4c3c(N([H])[H])nn4[H])c([H])c2[H])c([H])c(C(F)(F)F)c1[H]


 35 38  0  0  0  0  0  0  0  0999 V2000
   32.5848  -21.7269   37.0209 C   0  0  0  0  0  0  0  0  0  0  0  0
   33.3851  -21.0594   36.0550 C   0  0  0  0  0  0  0  0  0  0  0  0
   34.6241  -20.6302   36.4109 C   0  0  0  0  0  0  0  0  0  0  0  0
   35.1659  -20.8133   37.7020 C   0  0  0  0  0  0  0  0  0  0  0  0
   34.4139  -21.4376   38.6067 C   0  0  0  0  0  0  0  0  0  0  0  0
   33.0977  -21.8999   38.2410 C   0  0  0  0  0  0  0  0  0  0  0  0
   32.8194  -24.6486   35.9572 N   0  0  0  0  0  0  0  0  0  0  0  0
   31.4916  -24.3496   35.5610 C   0  0  0  0  0  0  0  0  0  0  0  0
   30.6383  -25.1074   34.8843 N   0  0  0  0  0  0  0  0  0  0  0  0
   29.4801  -24.5116   34.7267 N   0  0  0  0  0  0  0  0  0  0  0  0
   29.5740  -23.2761   35.3413 C   0  0  0  0  0  0  0  0  0  0  0  0
   28.6969  -22.2814   35.4728 C   0  0  0  0  0  0  0  0  0  0  0  0
   29.0643  -21.1546   36.1427 C   0  0  0  0  0  0  0  0  0  0  0  0
   30.3160  -20.9949   36.6941 C   0  0  0  0  0  0  0  0  0  0  0  0
   31.2506  -22.0432   36.5532 C   0  0  0  0  0  0  0  0  0  0  0  0
   30.8452  -23.1548   35.8728 C   0  0  0  0  0  0  0  0  0  0  0  0
   33.6109  -24.1256   35.5355 H   0  0  0  0  0  0  0  0  0  0  0  0
   33.0428  -25.3795   36.6710 H   0  0  0  0  0  0  0  0  0  0  0  0
   28.6023  -24.8587   34.2349 H   0  0  0  0  0  0  0  0  0  0  0  0
   36.4189  -20.1901   37.8503 N   0  0  0  0  0  0  0  0  0  0  0  0
   37.5457  -21.2104   37.5874 C   0  0  0  0  0  0  0  0  0  0  0  0
   37.2108  -22.2865   37.4575 O   0  0  0  0  0  0  0  0  0  0  0  0
   38.7715  -20.5130   37.5601 N   0  0  0  0  0  0  0  0  0  0  0  0
   36.6513  -19.2496   38.0809 H   0  0  0  0  0  0  0  0  0  0  0  0
   39.4119  -21.7873   37.5839 H   0  0  0  0  0  0  0  0  0  0  0  0
   39.9068  -19.9224   37.5249 C   0  0  0  0  0  0  0  0  0  0  0  0
   40.3204  -19.0275   36.4914 C   0  0  0  0  0  0  0  0  0  0  0  0
   41.4761  -18.3499   36.4661 C   0  0  0  0  0  0  0  0  0  0  0  0
   42.3848  -18.4894   37.4972 C   0  0  0  0  0  0  0  0  0  0  0  0
   42.0257  -19.3464   38.5227 C   0  0  0  0  0  0  0  0  0  0  0  0
   40.8717  -20.0279   38.5586 C   0  0  0  0  0  0  0  0  0  0  0  0
   43.0076  -19.4860   39.6540 C   0  0  0  0  0  0  0  0  0  0  0  0
   44.1638  -19.9830   39.0878 F   0  0  0  0  0  0  0  0  0  0  0  0
   42.5187  -20.4357   40.5565 F   0  0  0  0  0  0  0  0  0  0  0  0
   43.1800  -18.2662   40.2050 F   0  0  0  0  0  0  0  0  0  0  0  0
  7  8  1  0  0  0
  8  9  2  0  0  0
  9 10  1  0  0  0
 10 11  1  0  0  0
 11 12  2  0  0  0
 12 13  1  0  0  0
 13 14  2  0  0  0
 14 15  1  0  0  0
 15  1  1  0  0  0
  1  2  2  0  0  0
  2  3  1  0  0  0
  3  4  2  0  0  0
  4 20  1  0  0  0
 20 21  1  0  0  0
 21 22  2  0  0  0
 21 23  1  0  0  0
 23 26  1  0  0  0
 26 27  2  0  0  0
 27 28  1  0  0  0
 28 29  2  0  0  0
 29 30  1  0  0  0
 30 31  2  0  0  0
 30 32  1  0  0  0
 32 33  1  0  0  0
 32 34  1  0  0  0
 32 35  1  0  0  0
  4  5  1  0  0  0
  5  6  2  0  0  0
 15 16  2  0  0  0
 16  8  1  0  0  0
 16 11  1  0  0  0
  6  1  1  0  0  0
 31 26  1  0  0  0
  7 17  1  0  0  0
  7 18  1  0  0  0
 10 19  1  0  0  0
 20 24  1  0  0  0
 23 25  1  0  0  0
M  END
> <minimizedAffinity>
-5.31350

> <CNNscore>
0.3572579920

> <CNNaffinity>
4.5434627533

> <CNN_VS>
1.6231883764

> <CNNaffinity_variance>
0.0533481613

$$$$
[H]c1c([H])c(N([H])C(=O)N([H])c2c([H])c([H])c(-c3c([H])c([H])c([H])c4c3c(N([H])[H])nn4[H])c([H])c2[H])c([H])c(C(F)(F)F)c1[H]


 35 38  0  0  0  0  0  0  0  0999 V2000
   40.0734  -20.6942   37.6172 C   0  0  0  0  0  0  0  0  0  0  0  0
   39.0815  -21.0005   38.5874 C   0  0  0  0  0  0  0  0  0  0  0  0
   37.7926  -21.1510   38.1850 C   0  0  0  0  0  0  0  0  0  0  0  0
   37.3803  -21.0185   36.8409 C   0  0  0  0  0  0  0  0  0  0  0  0
   38.3110  -20.7298   35.9330 C   0  0  0  0  0  0  0  0  0  0  0  0
   39.6831  -20.5695   36.3469 C   0  0  0  0  0  0  0  0  0  0  0  0
   41.4381  -23.4977   37.5819 N   0  0  0  0  0  0  0  0  0  0  0  0
   42.4204  -22.7561   38.2851 C   0  0  0  0  0  0  0  0  0  0  0  0
   43.5621  -23.1820   38.8097 N   0  0  0  0  0  0  0  0  0  0  0  0
   44.2378  -22.2021   39.3612 N   0  0  0  0  0  0  0  0  0  0  0  0
   43.4922  -21.0499   39.1894 C   0  0  0  0  0  0  0  0  0  0  0  0
   43.7115  -19.7877   39.5569 C   0  0  0  0  0  0  0  0  0  0  0  0
   42.7891  -18.8351   39.2487 C   0  0  0  0  0  0  0  0  0  0  0  0
   41.6263  -19.1216   38.5689 C   0  0  0  0  0  0  0  0  0  0  0  0
   41.3865  -20.4577   38.1819 C   0  0  0  0  0  0  0  0  0  0  0  0
   42.3336  -21.3836   38.5116 C   0  0  0  0  0  0  0  0  0  0  0  0
   40.5013  -23.6402   38.0060 H   0  0  0  0  0  0  0  0  0  0  0  0
   41.6135  -23.9099   36.6369 H   0  0  0  0  0  0  0  0  0  0  0  0
   45.1796  -22.2247   39.8566 H   0  0  0  0  0  0  0  0  0  0  0  0
   35.9839  -21.1172   36.6967 N   0  0  0  0  0  0  0  0  0  0  0  0
   35.3567  -19.7078   36.6942 C   0  0  0  0  0  0  0  0  0  0  0  0
   36.0661  -18.8562   36.9361 O   0  0  0  0  0  0  0  0  0  0  0  0
   33.9918  -19.8357   36.3622 N   0  0  0  0  0  0  0  0  0  0  0  0
   35.3976  -21.9164   36.6001 H   0  0  0  0  0  0  0  0  0  0  0  0
   33.8471  -18.4693   36.7451 H   0  0  0  0  0  0  0  0  0  0  0  0
   32.7488  -19.9027   36.0630 C   0  0  0  0  0  0  0  0  0  0  0  0
   32.0330  -18.8913   35.3525 C   0  0  0  0  0  0  0  0  0  0  0  0
   30.7501  -18.9675   34.9732 C   0  0  0  0  0  0  0  0  0  0  0  0
   30.0054  -20.0931   35.2676 C   0  0  0  0  0  0  0  0  0  0  0  0
   30.6586  -21.1013   35.9548 C   0  0  0  0  0  0  0  0  0  0  0  0
   31.9418  -21.0358   36.3376 C   0  0  0  0  0  0  0  0  0  0  0  0
   29.8529  -22.3343   36.2611 C   0  0  0  0  0  0  0  0  0  0  0  0
   28.6092  -22.1175   35.7037 F   0  0  0  0  0  0  0  0  0  0  0  0
   29.6997  -22.4361   37.6473 F   0  0  0  0  0  0  0  0  0  0  0  0
   30.4909  -23.3914   35.7162 F   0  0  0  0  0  0  0  0  0  0  0  0
  7  8  1  0  0  0
  8  9  2  0  0  0
  9 10  1  0  0  0
 10 11  1  0  0  0
 11 12  2  0  0  0
 12 13  1  0  0  0
 13 14  2  0  0  0
 14 15  1  0  0  0
 15  1  1  0  0  0
  1  2  2  0  0  0
  2  3  1  0  0  0
  3  4  2  0  0  0
  4 20  1  0  0  0
 20 21  1  0  0  0
 21 22  2  0  0  0
 21 23  1  0  0  0
 23 26  1  0  0  0
 26 27  2  0  0  0
 27 28  1  0  0  0
 28 29  2  0  0  0
 29 30  1  0  0  0
 30 31  2  0  0  0
 30 32  1  0  0  0
 32 33  1  0  0  0
 32 34  1  0  0  0
 32 35  1  0  0  0
  4  5  1  0  0  0
  5  6  2  0  0  0
 15 16  2  0  0  0
 16  8  1  0  0  0
 16 11  1  0  0  0
  6  1  1  0  0  0
 31 26  1  0  0  0
  7 17  1  0  0  0
  7 18  1  0  0  0
 10 19  1  0  0  0
 20 24  1  0  0  0
 23 25  1  0  0  0
M  END
> <minimizedAffinity>
-5.37959

> <CNNscore>
0.3571166098

> <CNNaffinity>
4.7416911125

> <CNN_VS>
1.6933366060

> <CNNaffinity_variance>
0.0288883541

$$$$
[H]c1c([H])c(N([H])C(=O)N([H])c2c([H])c([H])c(-c3c([H])c([H])c([H])c4c3c(N([H])[H])nn4[H])c([H])c2[H])c([H])c(C(F)(F)F)c1[H]


 35 38  0  0  0  0  0  0  0  0999 V2000
   40.0175  -20.0563   37.4590 C   0  0  0  0  0  0  0  0  0  0  0  0
   38.9808  -19.1149   37.2179 C   0  0  0  0  0  0  0  0  0  0  0  0
   37.7330  -19.5701   36.9317 C   0  0  0  0  0  0  0  0  0  0  0  0
   37.4065  -20.9420   36.8602 C   0  0  0  0  0  0  0  0  0  0  0  0
   38.3797  -21.8230   37.0849 C   0  0  0  0  0  0  0  0  0  0  0  0
   39.7081  -21.3529   37.3916 C   0  0  0  0  0  0  0  0  0  0  0  0
   40.5779  -20.3970   40.5074 N   0  0  0  0  0  0  0  0  0  0  0  0
   41.6918  -19.6005   40.1413 C   0  0  0  0  0  0  0  0  0  0  0  0
   42.6528  -19.1139   40.9157 N   0  0  0  0  0  0  0  0  0  0  0  0
   43.5426  -18.4445   40.2219 N   0  0  0  0  0  0  0  0  0  0  0  0
   43.1427  -18.4920   38.8987 C   0  0  0  0  0  0  0  0  0  0  0  0
   43.6772  -17.9787   37.7910 C   0  0  0  0  0  0  0  0  0  0  0  0
   43.0594  -18.1869   36.5959 C   0  0  0  0  0  0  0  0  0  0  0  0
   41.8932  -18.9100   36.4802 C   0  0  0  0  0  0  0  0  0  0  0  0
   41.3199  -19.4514   37.6510 C   0  0  0  0  0  0  0  0  0  0  0  0
   41.9677  -19.2184   38.8296 C   0  0  0  0  0  0  0  0  0  0  0  0
   39.6197  -20.0041   40.4343 H   0  0  0  0  0  0  0  0  0  0  0  0
   40.6769  -21.3809   40.8479 H   0  0  0  0  0  0  0  0  0  0  0  0
   44.4210  -17.9430   40.5532 H   0  0  0  0  0  0  0  0  0  0  0  0
   36.0784  -21.1557   36.4469 N   0  0  0  0  0  0  0  0  0  0  0  0
   35.1576  -21.2662   37.6796 C   0  0  0  0  0  0  0  0  0  0  0  0
   35.6853  -21.2958   38.6833 O   0  0  0  0  0  0  0  0  0  0  0  0
   33.8214  -21.2912   37.2283 N   0  0  0  0  0  0  0  0  0  0  0  0
   35.6889  -21.2342   35.5337 H   0  0  0  0  0  0  0  0  0  0  0  0
   33.4570  -21.6551   38.5585 H   0  0  0  0  0  0  0  0  0  0  0  0
   32.5939  -21.3153   36.8656 C   0  0  0  0  0  0  0  0  0  0  0  0
   31.6469  -22.2996   37.2836 C   0  0  0  0  0  0  0  0  0  0  0  0
   30.3446  -22.3089   36.9685 C   0  0  0  0  0  0  0  0  0  0  0  0
   29.8159  -21.3101   36.1742 C   0  0  0  0  0  0  0  0  0  0  0  0
   30.6971  -20.3326   35.7460 C   0  0  0  0  0  0  0  0  0  0  0  0
   32.0011  -20.3130   36.0565 C   0  0  0  0  0  0  0  0  0  0  0  0
   30.1185  -19.2354   34.8946 C   0  0  0  0  0  0  0  0  0  0  0  0
   29.4529  -19.8705   33.8660 F   0  0  0  0  0  0  0  0  0  0  0  0
   31.1691  -18.4942   34.3447 F   0  0  0  0  0  0  0  0  0  0  0  0
   29.2961  -18.4992   35.6712 F   0  0  0  0  0  0  0  0  0  0  0  0
  7  8  1  0  0  0
  8  9  2  0  0  0
  9 10  1  0  0  0
 10 11  1  0  0  0
 11 12  2  0  0  0
 12 13  1  0  0  0
 13 14  2  0  0  0
 14 15  1  0  0  0
 15  1  1  0  0  0
  1  2  2  0  0  0
  2  3  1  0  0  0
  3  4  2  0  0  0
  4 20  1  0  0  0
 20 21  1  0  0  0
 21 22  2  0  0  0
 21 23  1  0  0  0
 23 26  1  0  0  0
 26 27  2  0  0  0
 27 28  1  0  0  0
 28 29  2  0  0  0
 29 30  1  0  0  0
 30 31  2  0  0  0
 30 32  1  0  0  0
 32 33  1  0  0  0
 32 34  1  0  0  0
 32 35  1  0  0  0
  4  5  1  0  0  0
  5  6  2  0  0  0
 15 16  2  0  0  0
 16  8  1  0  0  0
 16 11  1  0  0  0
  6  1  1  0  0  0
 31 26  1  0  0  0
  7 17  1  0  0  0
  7 18  1  0  0  0
 10 19  1  0  0  0
 20 24  1  0  0  0
 23 25  1  0  0  0
M  END
> <minimizedAffinity>
-5.92178

> <CNNscore>
0.3493095934

> <CNNaffinity>
4.7027335167

> <CNN_VS>
1.6427099705

> <CNNaffinity_variance>
0.0473958664

$$$$
[H]OC(=O)[C@@]1([H])N(C(=O)[C@@]([H])(N([H])C(=O)[C@@]([H])(N([H])[H])C([H])([H])c2c([H])c([H])c(O[H])c([H])c2[H])C([H])([H])c2c([H])n([H])c3c([H])c([H])c([H])c([H])c23)C([H])([H])C([H])([H])C1([H])[H]


 40 43  0  0  0  0  0  0  0  0999 V2000
   35.4472  -19.0040   37.3974 C   0  0  0  0  0  0  0  0  0  0  0  0
   34.3091  -19.9313   37.2460 C   0  0  0  0  0  0  0  0  0  0  0  0
   33.8838  -20.4747   38.3322 O   0  0  0  0  0  0  0  0  0  0  0  0
   33.6260  -20.2833   36.0548 N   0  0  0  0  0  0  0  0  0  0  0  0
   33.8982  -19.9653   34.6674 C   0  0  0  0  0  0  0  0  0  0  0  0
   32.7250  -20.3994   33.8315 C   0  0  0  0  0  0  0  0  0  0  0  0
   31.6234  -20.6261   34.8400 C   0  0  0  0  0  0  0  0  0  0  0  0
   32.3435  -21.0264   36.1092 C   0  0  0  0  0  0  0  0  0  0  0  0
   32.5272  -22.4766   36.1303 C   0  0  0  0  0  0  0  0  0  0  0  0
   32.6886  -23.2222   34.9883 O   0  0  0  0  0  0  0  0  0  0  0  0
   32.5432  -23.1158   37.2261 O   0  0  0  0  0  0  0  0  0  0  0  0
   33.5469  -23.4910   34.5628 H   0  0  0  0  0  0  0  0  0  0  0  0
   37.5259  -20.3644   37.1094 C   0  0  0  0  0  0  0  0  0  0  0  0
   37.4199  -20.4153   35.8607 O   0  0  0  0  0  0  0  0  0  0  0  0
   36.5892  -19.6810   37.9238 N   0  0  0  0  0  0  0  0  0  0  0  0
   36.7644  -19.6717   38.9426 H   0  0  0  0  0  0  0  0  0  0  0  0
   38.5230  -22.4849   37.7154 N   0  0  0  0  0  0  0  0  0  0  0  0
   38.7010  -21.0669   37.7114 C   0  0  0  0  0  0  0  0  0  0  0  0
   38.7174  -22.9792   38.5910 H   0  0  0  0  0  0  0  0  0  0  0  0
   38.8269  -22.9735   36.8445 H   0  0  0  0  0  0  0  0  0  0  0  0
   39.9306  -20.5771   37.0138 C   0  0  0  0  0  0  0  0  0  0  0  0
   40.8956  -19.9618   37.9717 C   0  0  0  0  0  0  0  0  0  0  0  0
   40.8070  -20.3240   39.2894 C   0  0  0  0  0  0  0  0  0  0  0  0
   41.6675  -19.7705   40.2220 C   0  0  0  0  0  0  0  0  0  0  0  0
   42.6242  -18.8475   39.8290 C   0  0  0  0  0  0  0  0  0  0  0  0
   43.5097  -18.2685   40.7497 O   0  0  0  0  0  0  0  0  0  0  0  0
   42.7021  -18.4933   38.4969 C   0  0  0  0  0  0  0  0  0  0  0  0
   41.8348  -19.0548   37.5741 C   0  0  0  0  0  0  0  0  0  0  0  0
   44.4036  -18.6533   40.9781 H   0  0  0  0  0  0  0  0  0  0  0  0
   35.6663  -18.1622   36.2105 C   0  0  0  0  0  0  0  0  0  0  0  0
   35.0134  -16.8596   36.1399 C   0  0  0  0  0  0  0  0  0  0  0  0
   33.7629  -16.5819   35.6458 C   0  0  0  0  0  0  0  0  0  0  0  0
   33.6011  -15.2508   35.7345 N   0  0  0  0  0  0  0  0  0  0  0  0
   34.6808  -14.6558   36.2607 C   0  0  0  0  0  0  0  0  0  0  0  0
   34.9633  -13.3342   36.5568 C   0  0  0  0  0  0  0  0  0  0  0  0
   36.1561  -12.9753   37.1252 C   0  0  0  0  0  0  0  0  0  0  0  0
   37.0936  -13.9509   37.4082 C   0  0  0  0  0  0  0  0  0  0  0  0
   36.7929  -15.2775   37.1033 C   0  0  0  0  0  0  0  0  0  0  0  0
   35.5809  -15.6504   36.5226 C   0  0  0  0  0  0  0  0  0  0  0  0
   32.7417  -14.7431   35.4305 H   0  0  0  0  0  0  0  0  0  0  0  0
 17 18  1  0  0  0
 18 21  1  0  0  0
 21 22  1  0  0  0
 22 23  2  0  0  0
 23 24  1  0  0  0
 24 25  2  0  0  0
 25 26  1  0  0  0
 25 27  1  0  0  0
 27 28  2  0  0  0
 18 13  1  0  0  0
 13 14  2  0  0  0
 13 15  1  0  0  0
 15  1  1  0  0  0
  1 30  1  0  0  0
 30 31  1  0  0  0
 31 32  2  0  0  0
 32 33  1  0  0  0
 33 34  1  0  0  0
 34 35  2  0  0  0
 35 36  1  0  0  0
 36 37  2  0  0  0
 37 38  1  0  0  0
 38 39  2  0  0  0
  1  2  1  0  0  0
  2  3  2  0  0  0
  2  4  1  0  0  0
  4  5  1  0  0  0
  5  6  1  0  0  0
  6  7  1  0  0  0
  7  8  1  0  0  0
  8  9  1  0  0  0
  9 10  1  0  0  0
  9 11  2  0  0  0
 28 22  1  0  0  0
 39 31  1  0  0  0
  8  4  1  0  0  0
 39 34  1  0  0  0
 17 19  1  0  0  0
 17 20  1  0  0  0
 26 29  1  0  0  0
 15 16  1  0  0  0
 33 40  1  0  0  0
 10 12  1  0  0  0
M  END
> <minimizedAffinity>
-7.63658

> <CNNscore>
0.4887617528

> <CNNaffinity>
5.6720986366

> <CNN_VS>
2.7723047733

> <CNNaffinity_variance>
0.1943292767

$$$$
[H]OC(=O)[C@@]1([H])N(C(=O)[C@@]([H])(N([H])C(=O)[C@@]([H])(N([H])[H])C([H])([H])c2c([H])c([H])c(O[H])c([H])c2[H])C([H])([H])c2c([H])n([H])c3c([H])c([H])c([H])c([H])c23)C([H])([H])C([H])([H])C1([H])[H]


 40 43  0  0  0  0  0  0  0  0999 V2000
   35.4053  -19.2669   35.5271 C   0  0  0  0  0  0  0  0  0  0  0  0
   36.4102  -19.6560   36.5354 C   0  0  0  0  0  0  0  0  0  0  0  0
   37.4164  -18.8629   36.6553 O   0  0  0  0  0  0  0  0  0  0  0  0
   36.3928  -20.7870   37.3899 N   0  0  0  0  0  0  0  0  0  0  0  0
   35.5000  -21.9270   37.4484 C   0  0  0  0  0  0  0  0  0  0  0  0
   35.7992  -22.7134   38.6956 C   0  0  0  0  0  0  0  0  0  0  0  0
   36.6321  -21.7693   39.5304 C   0  0  0  0  0  0  0  0  0  0  0  0
   37.3452  -20.8950   38.5219 C   0  0  0  0  0  0  0  0  0  0  0  0
   38.6111  -21.5197   38.1421 C   0  0  0  0  0  0  0  0  0  0  0  0
   38.8801  -21.9356   36.8611 O   0  0  0  0  0  0  0  0  0  0  0  0
   39.5282  -21.7074   38.9985 O   0  0  0  0  0  0  0  0  0  0  0  0
   39.3454  -21.4212   36.1479 H   0  0  0  0  0  0  0  0  0  0  0  0
   33.0071  -19.8792   35.1685 C   0  0  0  0  0  0  0  0  0  0  0  0
   33.1471  -20.0445   33.9332 O   0  0  0  0  0  0  0  0  0  0  0  0
   34.0819  -19.5003   36.0106 N   0  0  0  0  0  0  0  0  0  0  0  0
   33.8826  -19.4061   37.0206 H   0  0  0  0  0  0  0  0  0  0  0  0
   30.7953  -18.9636   35.5258 N   0  0  0  0  0  0  0  0  0  0  0  0
   31.6363  -20.1021   35.7234 C   0  0  0  0  0  0  0  0  0  0  0  0
   30.2634  -18.6279   36.3340 H   0  0  0  0  0  0  0  0  0  0  0  0
   30.2923  -18.9357   34.6116 H   0  0  0  0  0  0  0  0  0  0  0  0
   31.1193  -21.3868   35.1573 C   0  0  0  0  0  0  0  0  0  0  0  0
   30.0508  -21.9742   36.0179 C   0  0  0  0  0  0  0  0  0  0  0  0
   30.3814  -22.3191   37.3014 C   0  0  0  0  0  0  0  0  0  0  0  0
   29.4319  -22.8828   38.1364 C   0  0  0  0  0  0  0  0  0  0  0  0
   28.1413  -23.1011   37.6801 C   0  0  0  0  0  0  0  0  0  0  0  0
   27.1573  -23.6708   38.5013 O   0  0  0  0  0  0  0  0  0  0  0  0
   27.8227  -22.7471   36.3843 C   0  0  0  0  0  0  0  0  0  0  0  0
   28.7825  -22.1839   35.5593 C   0  0  0  0  0  0  0  0  0  0  0  0
   26.5436  -23.1386   39.0838 H   0  0  0  0  0  0  0  0  0  0  0  0
   35.6684  -17.9476   34.9309 C   0  0  0  0  0  0  0  0  0  0  0  0
   34.9706  -16.7819   35.4626 C   0  0  0  0  0  0  0  0  0  0  0  0
   33.6549  -16.4408   35.2695 C   0  0  0  0  0  0  0  0  0  0  0  0
   33.4646  -15.2695   35.9004 N   0  0  0  0  0  0  0  0  0  0  0  0
   34.5880  -14.8381   36.4907 C   0  0  0  0  0  0  0  0  0  0  0  0
   34.8669  -13.7189   37.2547 C   0  0  0  0  0  0  0  0  0  0  0  0
   36.1156  -13.5108   37.7761 C   0  0  0  0  0  0  0  0  0  0  0  0
   37.1144  -14.4356   37.5351 C   0  0  0  0  0  0  0  0  0  0  0  0
   36.8163  -15.5575   36.7632 C   0  0  0  0  0  0  0  0  0  0  0  0
   35.5473  -15.7753   36.2273 C   0  0  0  0  0  0  0  0  0  0  0  0
   32.5552  -14.7586   35.9265 H   0  0  0  0  0  0  0  0  0  0  0  0
 17 18  1  0  0  0
 18 21  1  0  0  0
 21 22  1  0  0  0
 22 23  2  0  0  0
 23 24  1  0  0  0
 24 25  2  0  0  0
 25 26  1  0  0  0
 25 27  1  0  0  0
 27 28  2  0  0  0
 18 13  1  0  0  0
 13 14  2  0  0  0
 13 15  1  0  0  0
 15  1  1  0  0  0
  1 30  1  0  0  0
 30 31  1  0  0  0
 31 32  2  0  0  0
 32 33  1  0  0  0
 33 34  1  0  0  0
 34 35  2  0  0  0
 35 36  1  0  0  0
 36 37  2  0  0  0
 37 38  1  0  0  0
 38 39  2  0  0  0
  1  2  1  0  0  0
  2  3  2  0  0  0
  2  4  1  0  0  0
  4  5  1  0  0  0
  5  6  1  0  0  0
  6  7  1  0  0  0
  7  8  1  0  0  0
  8  9  1  0  0  0
  9 10  1  0  0  0
  9 11  2  0  0  0
 28 22  1  0  0  0
 39 31  1  0  0  0
  8  4  1  0  0  0
 39 34  1  0  0  0
 17 19  1  0  0  0
 17 20  1  0  0  0
 26 29  1  0  0  0
 15 16  1  0  0  0
 33 40  1  0  0  0
 10 12  1  0  0  0
M  END
> <minimizedAffinity>
-6.81496

> <CNNscore>
0.4420722723

> <CNNaffinity>
5.6567888260

> <CNN_VS>
2.5007095337

> <CNNaffinity_variance>
0.1824344844

$$$$
[H]OC(=O)[C@@]1([H])N(C(=O)[C@@]([H])(N([H])C(=O)[C@@]([H])(N([H])[H])C([H])([H])c2c([H])c([H])c(O[H])c([H])c2[H])C([H])([H])c2c([H])n([H])c3c([H])c([H])c([H])c([H])c23)C([H])([H])C([H])([H])C1([H])[H]


 40 43  0  0  0  0  0  0  0  0999 V2000
   35.0902  -18.0422   35.8575 C   0  0  0  0  0  0  0  0  0  0  0  0
   34.2067  -19.1702   36.2109 C   0  0  0  0  0  0  0  0  0  0  0  0
   34.5553  -19.8484   37.2475 O   0  0  0  0  0  0  0  0  0  0  0  0
   33.0208  -19.5856   35.5545 N   0  0  0  0  0  0  0  0  0  0  0  0
   32.4067  -19.1417   34.3193 C   0  0  0  0  0  0  0  0  0  0  0  0
   31.0377  -19.7562   34.2106 C   0  0  0  0  0  0  0  0  0  0  0  0
   30.7514  -20.2571   35.6067 C   0  0  0  0  0  0  0  0  0  0  0  0
   32.1131  -20.5743   36.1857 C   0  0  0  0  0  0  0  0  0  0  0  0
   32.4690  -21.9563   35.8687 C   0  0  0  0  0  0  0  0  0  0  0  0
   33.7673  -22.4039   35.8493 O   0  0  0  0  0  0  0  0  0  0  0  0
   31.5748  -22.8126   35.5917 O   0  0  0  0  0  0  0  0  0  0  0  0
   34.2646  -22.8364   36.5945 H   0  0  0  0  0  0  0  0  0  0  0  0
   37.3490  -18.6727   34.9885 C   0  0  0  0  0  0  0  0  0  0  0  0
   37.8894  -18.6256   36.1193 O   0  0  0  0  0  0  0  0  0  0  0  0
   35.9722  -18.4002   34.7928 N   0  0  0  0  0  0  0  0  0  0  0  0
   35.6047  -18.4823   33.8302 H   0  0  0  0  0  0  0  0  0  0  0  0
   38.1483  -18.0714   32.7845 N   0  0  0  0  0  0  0  0  0  0  0  0
   38.2331  -19.0339   33.8375 C   0  0  0  0  0  0  0  0  0  0  0  0
   38.0128  -18.4276   31.8339 H   0  0  0  0  0  0  0  0  0  0  0  0
   38.7955  -17.2573   32.8732 H   0  0  0  0  0  0  0  0  0  0  0  0
   39.6076  -19.2741   34.3773 C   0  0  0  0  0  0  0  0  0  0  0  0
   40.0641  -20.6701   34.1122 C   0  0  0  0  0  0  0  0  0  0  0  0
   41.2691  -20.8401   33.4841 C   0  0  0  0  0  0  0  0  0  0  0  0
   41.7315  -22.1137   33.1998 C   0  0  0  0  0  0  0  0  0  0  0  0
   40.9793  -23.2245   33.5494 C   0  0  0  0  0  0  0  0  0  0  0  0
   41.4200  -24.5273   33.2746 O   0  0  0  0  0  0  0  0  0  0  0  0
   39.7673  -23.0371   34.1833 C   0  0  0  0  0  0  0  0  0  0  0  0
   39.3164  -21.7572   34.4616 C   0  0  0  0  0  0  0  0  0  0  0  0
   41.9719  -25.0717   33.9058 H   0  0  0  0  0  0  0  0  0  0  0  0
   34.3689  -16.7672   35.7182 C   0  0  0  0  0  0  0  0  0  0  0  0
   35.0827  -15.5216   35.9773 C   0  0  0  0  0  0  0  0  0  0  0  0
   36.4317  -15.2960   35.8581 C   0  0  0  0  0  0  0  0  0  0  0  0
   36.6453  -14.0272   36.2462 N   0  0  0  0  0  0  0  0  0  0  0  0
   35.5050  -13.4227   36.6083 C   0  0  0  0  0  0  0  0  0  0  0  0
   35.2313  -12.1405   37.0499 C   0  0  0  0  0  0  0  0  0  0  0  0
   33.9515  -11.7495   37.3396 C   0  0  0  0  0  0  0  0  0  0  0  0
   32.9155  -12.6519   37.1875 C   0  0  0  0  0  0  0  0  0  0  0  0
   33.2089  -13.9397   36.7417 C   0  0  0  0  0  0  0  0  0  0  0  0
   34.5101  -14.3457   36.4464 C   0  0  0  0  0  0  0  0  0  0  0  0
   37.5828  -13.5696   36.2645 H   0  0  0  0  0  0  0  0  0  0  0  0
 17 18  1  0  0  0
 18 21  1  0  0  0
 21 22  1  0  0  0
 22 23  2  0  0  0
 23 24  1  0  0  0
 24 25  2  0  0  0
 25 26  1  0  0  0
 25 27  1  0  0  0
 27 28  2  0  0  0
 18 13  1  0  0  0
 13 14  2  0  0  0
 13 15  1  0  0  0
 15  1  1  0  0  0
  1 30  1  0  0  0
 30 31  1  0  0  0
 31 32  2  0  0  0
 32 33  1  0  0  0
 33 34  1  0  0  0
 34 35  2  0  0  0
 35 36  1  0  0  0
 36 37  2  0  0  0
 37 38  1  0  0  0
 38 39  2  0  0  0
  1  2  1  0  0  0
  2  3  2  0  0  0
  2  4  1  0  0  0
  4  5  1  0  0  0
  5  6  1  0  0  0
  6  7  1  0  0  0
  7  8  1  0  0  0
  8  9  1  0  0  0
  9 10  1  0  0  0
  9 11  2  0  0  0
 28 22  1  0  0  0
 39 31  1  0  0  0
  8  4  1  0  0  0
 39 34  1  0  0  0
 17 19  1  0  0  0
 17 20  1  0  0  0
 26 29  1  0  0  0
 15 16  1  0  0  0
 33 40  1  0  0  0
 10 12  1  0  0  0
M  END
> <minimizedAffinity>
-7.86141

> <CNNscore>
0.4027335048

> <CNNaffinity>
6.0008039474

> <CNN_VS>
2.4167249203

> <CNNaffinity_variance>
0.1976443529

$$$$
[H]OC(=O)[C@@]1([H])N(C(=O)[C@@]([H])(N([H])C(=O)[C@@]([H])(N([H])[H])C([H])([H])c2c([H])c([H])c(O[H])c([H])c2[H])C([H])([H])c2c([H])n([H])c3c([H])c([H])c([H])c([H])c23)C([H])([H])C([H])([H])C1([H])[H]


 40 43  0  0  0  0  0  0  0  0999 V2000
   36.6658  -18.0005   34.9902 C   0  0  0  0  0  0  0  0  0  0  0  0
   37.9722  -18.4721   34.4913 C   0  0  0  0  0  0  0  0  0  0  0  0
   38.1277  -18.4366   33.2144 O   0  0  0  0  0  0  0  0  0  0  0  0
   39.0732  -18.9459   35.2481 N   0  0  0  0  0  0  0  0  0  0  0  0
   39.2098  -19.2275   36.6631 C   0  0  0  0  0  0  0  0  0  0  0  0
   40.6605  -19.4848   36.9681 C   0  0  0  0  0  0  0  0  0  0  0  0
   41.3866  -18.9650   35.7497 C   0  0  0  0  0  0  0  0  0  0  0  0
   40.4007  -19.1371   34.6147 C   0  0  0  0  0  0  0  0  0  0  0  0
   40.5627  -20.4644   34.0237 C   0  0  0  0  0  0  0  0  0  0  0  0
   39.5028  -21.2104   33.5695 O   0  0  0  0  0  0  0  0  0  0  0  0
   41.7114  -20.9901   33.9068 O   0  0  0  0  0  0  0  0  0  0  0  0
   39.1476  -21.2460   32.6409 H   0  0  0  0  0  0  0  0  0  0  0  0
   36.5479  -16.2423   36.7649 C   0  0  0  0  0  0  0  0  0  0  0  0
   36.2960  -17.0633   37.6790 O   0  0  0  0  0  0  0  0  0  0  0  0
   36.7453  -16.6407   35.4195 N   0  0  0  0  0  0  0  0  0  0  0  0
   36.9692  -15.9003   34.7337 H   0  0  0  0  0  0  0  0  0  0  0  0
   37.9782  -14.4086   37.4354 N   0  0  0  0  0  0  0  0  0  0  0  0
   36.6321  -14.8027   37.1615 C   0  0  0  0  0  0  0  0  0  0  0  0
   38.1478  -13.8914   38.3029 H   0  0  0  0  0  0  0  0  0  0  0  0
   38.5257  -14.0898   36.6059 H   0  0  0  0  0  0  0  0  0  0  0  0
   35.9299  -13.9997   36.1124 C   0  0  0  0  0  0  0  0  0  0  0  0
   34.7703  -13.2513   36.6802 C   0  0  0  0  0  0  0  0  0  0  0  0
   34.8864  -11.8926   36.8064 C   0  0  0  0  0  0  0  0  0  0  0  0
   33.8463  -11.1526   37.3424 C   0  0  0  0  0  0  0  0  0  0  0  0
   32.6810  -11.7809   37.7536 C   0  0  0  0  0  0  0  0  0  0  0  0
   31.6101  -11.0593   38.3008 O   0  0  0  0  0  0  0  0  0  0  0  0
   32.5782  -13.1510   37.6188 C   0  0  0  0  0  0  0  0  0  0  0  0
   33.6267  -13.8794   37.0810 C   0  0  0  0  0  0  0  0  0  0  0  0
   30.8615  -10.6791   37.7583 H   0  0  0  0  0  0  0  0  0  0  0  0
   35.5487  -18.3479   34.0976 C   0  0  0  0  0  0  0  0  0  0  0  0
   34.1891  -18.3190   34.6259 C   0  0  0  0  0  0  0  0  0  0  0  0
   33.5577  -17.2655   35.2393 C   0  0  0  0  0  0  0  0  0  0  0  0
   32.3418  -17.7059   35.6050 N   0  0  0  0  0  0  0  0  0  0  0  0
   32.1558  -18.9874   35.2587 C   0  0  0  0  0  0  0  0  0  0  0  0
   31.0796  -19.8441   35.4060 C   0  0  0  0  0  0  0  0  0  0  0  0
   31.1282  -21.1293   34.9365 C   0  0  0  0  0  0  0  0  0  0  0  0
   32.2727  -21.5778   34.3040 C   0  0  0  0  0  0  0  0  0  0  0  0
   33.3478  -20.7015   34.1642 C   0  0  0  0  0  0  0  0  0  0  0  0
   33.3062  -19.3917   34.6415 C   0  0  0  0  0  0  0  0  0  0  0  0
   31.6309  -17.1229   36.0984 H   0  0  0  0  0  0  0  0  0  0  0  0
 17 18  1  0  0  0
 18 21  1  0  0  0
 21 22  1  0  0  0
 22 23  2  0  0  0
 23 24  1  0  0  0
 24 25  2  0  0  0
 25 26  1  0  0  0
 25 27  1  0  0  0
 27 28  2  0  0  0
 18 13  1  0  0  0
 13 14  2  0  0  0
 13 15  1  0  0  0
 15  1  1  0  0  0
  1 30  1  0  0  0
 30 31  1  0  0  0
 31 32  2  0  0  0
 32 33  1  0  0  0
 33 34  1  0  0  0
 34 35  2  0  0  0
 35 36  1  0  0  0
 36 37  2  0  0  0
 37 38  1  0  0  0
 38 39  2  0  0  0
  1  2  1  0  0  0
  2  3  2  0  0  0
  2  4  1  0  0  0
  4  5  1  0  0  0
  5  6  1  0  0  0
  6  7  1  0  0  0
  7  8  1  0  0  0
  8  9  1  0  0  0
  9 10  1  0  0  0
  9 11  2  0  0  0
 28 22  1  0  0  0
 39 31  1  0  0  0
  8  4  1  0  0  0
 39 34  1  0  0  0
 17 19  1  0  0  0
 17 20  1  0  0  0
 26 29  1  0  0  0
 15 16  1  0  0  0
 33 40  1  0  0  0
 10 12  1  0  0  0
M  END
> <minimizedAffinity>
-8.90982

> <CNNscore>
0.3557307422

> <CNNaffinity>
5.9964880943

> <CNN_VS>
2.1331350803

> <CNNaffinity_variance>
0.4368705153

$$$$
[H]OC(=O)[C@@]1([H])N(C(=O)[C@@]([H])(N([H])C(=O)[C@@]([H])(N([H])[H])C([H])([H])c2c([H])c([H])c(O[H])c([H])c2[H])C([H])([H])c2c([H])n([H])c3c([H])c([H])c([H])c([H])c23)C([H])([H])C([H])([H])C1([H])[H]


 40 43  0  0  0  0  0  0  0  0999 V2000
   41.0400  -19.3157   36.4487 C   0  0  0  0  0  0  0  0  0  0  0  0
   41.5954  -20.2197   35.4230 C   0  0  0  0  0  0  0  0  0  0  0  0
   42.6407  -19.7900   34.8075 O   0  0  0  0  0  0  0  0  0  0  0  0
   41.1236  -21.5022   35.0457 N   0  0  0  0  0  0  0  0  0  0  0  0
   39.9343  -22.2346   35.4319 C   0  0  0  0  0  0  0  0  0  0  0  0
   40.0437  -23.6434   34.9153 C   0  0  0  0  0  0  0  0  0  0  0  0
   41.5033  -23.7863   34.5532 C   0  0  0  0  0  0  0  0  0  0  0  0
   41.9441  -22.3868   34.1829 C   0  0  0  0  0  0  0  0  0  0  0  0
   41.7134  -22.1630   32.7568 C   0  0  0  0  0  0  0  0  0  0  0  0
   41.1872  -20.9944   32.2632 O   0  0  0  0  0  0  0  0  0  0  0  0
   41.9941  -23.0582   31.9027 O   0  0  0  0  0  0  0  0  0  0  0  0
   41.6898  -20.2038   31.9283 H   0  0  0  0  0  0  0  0  0  0  0  0
   38.5680  -18.9361   36.4377 C   0  0  0  0  0  0  0  0  0  0  0  0
   38.3483  -19.7920   37.3278 O   0  0  0  0  0  0  0  0  0  0  0  0
   39.8726  -18.6512   35.9636 N   0  0  0  0  0  0  0  0  0  0  0  0
   39.9652  -17.9161   35.2428 H   0  0  0  0  0  0  0  0  0  0  0  0
   36.6943  -19.0012   34.9069 N   0  0  0  0  0  0  0  0  0  0  0  0
   37.3760  -18.2184   35.8892 C   0  0  0  0  0  0  0  0  0  0  0  0
   36.4527  -18.5399   34.0251 H   0  0  0  0  0  0  0  0  0  0  0  0
   35.9771  -19.6598   35.2828 H   0  0  0  0  0  0  0  0  0  0  0  0
   36.5400  -17.7732   37.0473 C   0  0  0  0  0  0  0  0  0  0  0  0
   36.1518  -16.3376   36.9230 C   0  0  0  0  0  0  0  0  0  0  0  0
   36.9475  -15.4051   37.5337 C   0  0  0  0  0  0  0  0  0  0  0  0
   36.6233  -14.0610   37.4630 C   0  0  0  0  0  0  0  0  0  0  0  0
   35.4930  -13.6500   36.7738 C   0  0  0  0  0  0  0  0  0  0  0  0
   35.1375  -12.2962   36.6847 O   0  0  0  0  0  0  0  0  0  0  0  0
   34.7014  -14.6016   36.1623 C   0  0  0  0  0  0  0  0  0  0  0  0
   35.0373  -15.9432   36.2410 C   0  0  0  0  0  0  0  0  0  0  0  0
   35.4425  -11.6889   35.9515 H   0  0  0  0  0  0  0  0  0  0  0  0
   40.9405  -19.9426   37.7762 C   0  0  0  0  0  0  0  0  0  0  0  0
   41.7140  -19.3836   38.8795 C   0  0  0  0  0  0  0  0  0  0  0  0
   42.7974  -18.5446   38.7943 C   0  0  0  0  0  0  0  0  0  0  0  0
   43.2172  -18.3293   40.0526 N   0  0  0  0  0  0  0  0  0  0  0  0
   42.4610  -18.9845   40.9446 C   0  0  0  0  0  0  0  0  0  0  0  0
   42.4975  -19.0493   42.3261 C   0  0  0  0  0  0  0  0  0  0  0  0
   41.5794  -19.7864   43.0248 C   0  0  0  0  0  0  0  0  0  0  0  0
   40.5990  -20.4772   42.3374 C   0  0  0  0  0  0  0  0  0  0  0  0
   40.5768  -20.4011   40.9457 C   0  0  0  0  0  0  0  0  0  0  0  0
   41.5097  -19.6538   40.2271 C   0  0  0  0  0  0  0  0  0  0  0  0
   44.0316  -17.7275   40.3042 H   0  0  0  0  0  0  0  0  0  0  0  0
 17 18  1  0  0  0
 18 21  1  0  0  0
 21 22  1  0  0  0
 22 23  2  0  0  0
 23 24  1  0  0  0
 24 25  2  0  0  0
 25 26  1  0  0  0
 25 27  1  0  0  0
 27 28  2  0  0  0
 18 13  1  0  0  0
 13 14  2  0  0  0
 13 15  1  0  0  0
 15  1  1  0  0  0
  1 30  1  0  0  0
 30 31  1  0  0  0
 31 32  2  0  0  0
 32 33  1  0  0  0
 33 34  1  0  0  0
 34 35  2  0  0  0
 35 36  1  0  0  0
 36 37  2  0  0  0
 37 38  1  0  0  0
 38 39  2  0  0  0
  1  2  1  0  0  0
  2  3  2  0  0  0
  2  4  1  0  0  0
  4  5  1  0  0  0
  5  6  1  0  0  0
  6  7  1  0  0  0
  7  8  1  0  0  0
  8  9  1  0  0  0
  9 10  1  0  0  0
  9 11  2  0  0  0
 28 22  1  0  0  0
 39 31  1  0  0  0
  8  4  1  0  0  0
 39 34  1  0  0  0
 17 19  1  0  0  0
 17 20  1  0  0  0
 26 29  1  0  0  0
 15 16  1  0  0  0
 33 40  1  0  0  0
 10 12  1  0  0  0
M  END
> <minimizedAffinity>
-7.62306

> <CNNscore>
0.3149140477

> <CNNaffinity>
5.3348808289

> <CNN_VS>
1.6800289154

> <CNNaffinity_variance>
0.3627520204

$$$$
[H]OC(=O)[C@@]1([H])N(C(=O)[C@@]([H])(N([H])C(=O)[C@@]([H])(N([H])[H])C([H])([H])c2c([H])c([H])c(O[H])c([H])c2[H])C([H])([H])c2c([H])n([H])c3c([H])c([H])c([H])c([H])c23)C([H])([H])C([H])([H])C1([H])[H]


 40 43  0  0  0  0  0  0  0  0999 V2000
   39.5237  -20.2564   37.3054 C   0  0  0  0  0  0  0  0  0  0  0  0
   40.0131  -20.9040   36.0729 C   0  0  0  0  0  0  0  0  0  0  0  0
   39.7795  -22.1656   35.9750 O   0  0  0  0  0  0  0  0  0  0  0  0
   40.6958  -20.3024   34.9859 N   0  0  0  0  0  0  0  0  0  0  0  0
   41.2185  -18.9623   34.8095 C   0  0  0  0  0  0  0  0  0  0  0  0
   41.6426  -18.7924   33.3760 C   0  0  0  0  0  0  0  0  0  0  0  0
   40.9902  -19.9534   32.6631 C   0  0  0  0  0  0  0  0  0  0  0  0
   40.8891  -21.0386   33.7129 C   0  0  0  0  0  0  0  0  0  0  0  0
   42.1088  -21.8444   33.7018 C   0  0  0  0  0  0  0  0  0  0  0  0
   42.5710  -22.4783   32.5745 O   0  0  0  0  0  0  0  0  0  0  0  0
   42.8008  -21.9941   34.7546 O   0  0  0  0  0  0  0  0  0  0  0  0
   43.2356  -22.1316   31.9203 H   0  0  0  0  0  0  0  0  0  0  0  0
   37.2009  -19.6384   36.6146 C   0  0  0  0  0  0  0  0  0  0  0  0
   36.8252  -20.8304   36.5095 O   0  0  0  0  0  0  0  0  0  0  0  0
   38.5168  -19.2886   37.0069 N   0  0  0  0  0  0  0  0  0  0  0  0
   38.7356  -18.2815   37.0880 H   0  0  0  0  0  0  0  0  0  0  0  0
   34.9700  -19.1540   35.8105 N   0  0  0  0  0  0  0  0  0  0  0  0
   36.1853  -18.5856   36.3029 C   0  0  0  0  0  0  0  0  0  0  0  0
   34.5706  -18.7429   34.9618 H   0  0  0  0  0  0  0  0  0  0  0  0
   34.2814  -19.4342   36.5431 H   0  0  0  0  0  0  0  0  0  0  0  0
   36.0428  -17.7181   37.5135 C   0  0  0  0  0  0  0  0  0  0  0  0
   36.0065  -16.2712   37.1494 C   0  0  0  0  0  0  0  0  0  0  0  0
   34.9478  -15.8261   36.4033 C   0  0  0  0  0  0  0  0  0  0  0  0
   34.8742  -14.4966   36.0247 C   0  0  0  0  0  0  0  0  0  0  0  0
   35.8698  -13.6073   36.3983 C   0  0  0  0  0  0  0  0  0  0  0  0
   35.8241  -12.2548   36.0299 O   0  0  0  0  0  0  0  0  0  0  0  0
   36.9301  -14.0705   37.1514 C   0  0  0  0  0  0  0  0  0  0  0  0
   36.9915  -15.4035   37.5234 C   0  0  0  0  0  0  0  0  0  0  0  0
   35.3925  -11.5427   36.5830 H   0  0  0  0  0  0  0  0  0  0  0  0
   39.2211  -21.2158   38.3793 C   0  0  0  0  0  0  0  0  0  0  0  0
   39.7192  -20.9487   39.7242 C   0  0  0  0  0  0  0  0  0  0  0  0
   39.1504  -21.3331   40.9131 C   0  0  0  0  0  0  0  0  0  0  0  0
   39.9217  -20.8266   41.8901 N   0  0  0  0  0  0  0  0  0  0  0  0
   40.9583  -20.1367   41.3937 C   0  0  0  0  0  0  0  0  0  0  0  0
   42.0065  -19.4677   42.0000 C   0  0  0  0  0  0  0  0  0  0  0  0
   42.9744  -18.8468   41.2570 C   0  0  0  0  0  0  0  0  0  0  0  0
   42.9027  -18.8900   39.8771 C   0  0  0  0  0  0  0  0  0  0  0  0
   41.8398  -19.5682   39.2826 C   0  0  0  0  0  0  0  0  0  0  0  0
   40.8492  -20.2015   40.0329 C   0  0  0  0  0  0  0  0  0  0  0  0
   39.7361  -20.9535   42.9090 H   0  0  0  0  0  0  0  0  0  0  0  0
 17 18  1  0  0  0
 18 21  1  0  0  0
 21 22  1  0  0  0
 22 23  2  0  0  0
 23 24  1  0  0  0
 24 25  2  0  0  0
 25 26  1  0  0  0
 25 27  1  0  0  0
 27 28  2  0  0  0
 18 13  1  0  0  0
 13 14  2  0  0  0
 13 15  1  0  0  0
 15  1  1  0  0  0
  1 30  1  0  0  0
 30 31  1  0  0  0
 31 32  2  0  0  0
 32 33  1  0  0  0
 33 34  1  0  0  0
 34 35  2  0  0  0
 35 36  1  0  0  0
 36 37  2  0  0  0
 37 38  1  0  0  0
 38 39  2  0  0  0
  1  2  1  0  0  0
  2  3  2  0  0  0
  2  4  1  0  0  0
  4  5  1  0  0  0
  5  6  1  0  0  0
  6  7  1  0  0  0
  7  8  1  0  0  0
  8  9  1  0  0  0
  9 10  1  0  0  0
  9 11  2  0  0  0
 28 22  1  0  0  0
 39 31  1  0  0  0
  8  4  1  0  0  0
 39 34  1  0  0  0
 17 19  1  0  0  0
 17 20  1  0  0  0
 26 29  1  0  0  0
 15 16  1  0  0  0
 33 40  1  0  0  0
 10 12  1  0  0  0
M  END
> <minimizedAffinity>
-7.31419

> <CNNscore>
0.2892086804

> <CNNaffinity>
5.3161511421

> <CNN_VS>
1.5374770164

> <CNNaffinity_variance>
0.2677775919

$$$$
[H]OC(=O)[C@@]1([H])N(C(=O)[C@@]([H])(N([H])C(=O)[C@@]([H])(N([H])[H])C([H])([H])c2c([H])c([H])c(O[H])c([H])c2[H])C([H])([H])c2c([H])n([H])c3c([H])c([H])c([H])c([H])c23)C([H])([H])C([H])([H])C1([H])[H]


 40 43  0  0  0  0  0  0  0  0999 V2000
   38.3218  -20.1395   37.1971 C   0  0  0  0  0  0  0  0  0  0  0  0
   39.7071  -20.5911   36.9628 C   0  0  0  0  0  0  0  0  0  0  0  0
   40.0838  -21.6139   37.6469 O   0  0  0  0  0  0  0  0  0  0  0  0
   40.6623  -20.0420   36.0708 N   0  0  0  0  0  0  0  0  0  0  0  0
   40.6277  -18.8484   35.2497 C   0  0  0  0  0  0  0  0  0  0  0  0
   41.8109  -18.8648   34.3206 C   0  0  0  0  0  0  0  0  0  0  0  0
   42.3027  -20.2918   34.3825 C   0  0  0  0  0  0  0  0  0  0  0  0
   41.9189  -20.7688   35.7663 C   0  0  0  0  0  0  0  0  0  0  0  0
   42.9958  -20.4603   36.7057 C   0  0  0  0  0  0  0  0  0  0  0  0
   42.7637  -19.9781   37.9705 O   0  0  0  0  0  0  0  0  0  0  0  0
   44.2110  -20.6276   36.3819 O   0  0  0  0  0  0  0  0  0  0  0  0
   42.6834  -20.5069   38.8095 H   0  0  0  0  0  0  0  0  0  0  0  0
   37.1352  -18.5470   35.6770 C   0  0  0  0  0  0  0  0  0  0  0  0
   37.2001  -17.5931   36.4886 O   0  0  0  0  0  0  0  0  0  0  0  0
   37.6728  -19.8263   35.9641 N   0  0  0  0  0  0  0  0  0  0  0  0
   37.5937  -20.5496   35.2299 H   0  0  0  0  0  0  0  0  0  0  0  0
   37.3869  -17.8694   33.3671 N   0  0  0  0  0  0  0  0  0  0  0  0
   36.4556  -18.2728   34.3732 C   0  0  0  0  0  0  0  0  0  0  0  0
   37.1527  -17.0371   32.8183 H   0  0  0  0  0  0  0  0  0  0  0  0
   37.8328  -18.6493   32.8356 H   0  0  0  0  0  0  0  0  0  0  0  0
   35.6231  -19.4686   34.0336 C   0  0  0  0  0  0  0  0  0  0  0  0
   34.1898  -19.2582   34.3926 C   0  0  0  0  0  0  0  0  0  0  0  0
   33.2623  -20.1017   33.8414 C   0  0  0  0  0  0  0  0  0  0  0  0
   31.9177  -19.9398   34.1287 C   0  0  0  0  0  0  0  0  0  0  0  0
   31.5013  -18.9246   34.9758 C   0  0  0  0  0  0  0  0  0  0  0  0
   30.1468  -18.7344   35.2857 O   0  0  0  0  0  0  0  0  0  0  0  0
   32.4482  -18.0831   35.5247 C   0  0  0  0  0  0  0  0  0  0  0  0
   33.7904  -18.2562   35.2288 C   0  0  0  0  0  0  0  0  0  0  0  0
   29.6886  -19.1662   36.0622 H   0  0  0  0  0  0  0  0  0  0  0  0
   37.5842  -21.0043   38.1316 C   0  0  0  0  0  0  0  0  0  0  0  0
   36.6966  -22.0290   37.5927 C   0  0  0  0  0  0  0  0  0  0  0  0
   37.0523  -23.2539   37.0848 C   0  0  0  0  0  0  0  0  0  0  0  0
   35.9190  -23.8383   36.6604 N   0  0  0  0  0  0  0  0  0  0  0  0
   34.8513  -23.0550   36.8686 C   0  0  0  0  0  0  0  0  0  0  0  0
   33.5025  -23.2353   36.6195 C   0  0  0  0  0  0  0  0  0  0  0  0
   32.5863  -22.2740   36.9528 C   0  0  0  0  0  0  0  0  0  0  0  0
   33.0172  -21.1036   37.5490 C   0  0  0  0  0  0  0  0  0  0  0  0
   34.3797  -20.9382   37.7926 C   0  0  0  0  0  0  0  0  0  0  0  0
   35.3190  -21.9121   37.4543 C   0  0  0  0  0  0  0  0  0  0  0  0
   35.8756  -24.7841   36.2219 H   0  0  0  0  0  0  0  0  0  0  0  0
 17 18  1  0  0  0
 18 21  1  0  0  0
 21 22  1  0  0  0
 22 23  2  0  0  0
 23 24  1  0  0  0
 24 25  2  0  0  0
 25 26  1  0  0  0
 25 27  1  0  0  0
 27 28  2  0  0  0
 18 13  1  0  0  0
 13 14  2  0  0  0
 13 15  1  0  0  0
 15  1  1  0  0  0
  1 30  1  0  0  0
 30 31  1  0  0  0
 31 32  2  0  0  0
 32 33  1  0  0  0
 33 34  1  0  0  0
 34 35  2  0  0  0
 35 36  1  0  0  0
 36 37  2  0  0  0
 37 38  1  0  0  0
 38 39  2  0  0  0
  1  2  1  0  0  0
  2  3  2  0  0  0
  2  4  1  0  0  0
  4  5  1  0  0  0
  5  6  1  0  0  0
  6  7  1  0  0  0
  7  8  1  0  0  0
  8  9  1  0  0  0
  9 10  1  0  0  0
  9 11  2  0  0  0
 28 22  1  0  0  0
 39 31  1  0  0  0
  8  4  1  0  0  0
 39 34  1  0  0  0
 17 19  1  0  0  0
 17 20  1  0  0  0
 26 29  1  0  0  0
 15 16  1  0  0  0
 33 40  1  0  0  0
 10 12  1  0  0  0
M  END
> <minimizedAffinity>
-5.73563

> <CNNscore>
0.2767014205

> <CNNaffinity>
5.1490883827

> <CNN_VS>
1.4247601032

> <CNNaffinity_variance>
0.3398557305

$$$$
[H]OC(=O)[C@@]1([H])N(C(=O)[C@@]([H])(N([H])C(=O)[C@@]([H])(N([H])[H])C([H])([H])c2c([H])c([H])c(O[H])c([H])c2[H])C([H])([H])c2c([H])n([H])c3c([H])c([H])c([H])c([H])c23)C([H])([H])C([H])([H])C1([H])[H]


 40 43  0  0  0  0  0  0  0  0999 V2000
   37.4356  -19.0723   35.7441 C   0  0  0  0  0  0  0  0  0  0  0  0
   38.4450  -19.4951   34.7542 C   0  0  0  0  0  0  0  0  0  0  0  0
   37.9832  -20.0446   33.6861 O   0  0  0  0  0  0  0  0  0  0  0  0
   39.8537  -19.3582   34.8349 N   0  0  0  0  0  0  0  0  0  0  0  0
   40.7097  -18.9062   35.9133 C   0  0  0  0  0  0  0  0  0  0  0  0
   42.1079  -18.7377   35.3841 C   0  0  0  0  0  0  0  0  0  0  0  0
   41.9327  -18.7444   33.8837 C   0  0  0  0  0  0  0  0  0  0  0  0
   40.7069  -19.5992   33.6457 C   0  0  0  0  0  0  0  0  0  0  0  0
   41.1064  -20.9986   33.5069 C   0  0  0  0  0  0  0  0  0  0  0  0
   41.8603  -21.4556   32.4539 O   0  0  0  0  0  0  0  0  0  0  0  0
   40.7637  -21.8630   34.3701 O   0  0  0  0  0  0  0  0  0  0  0  0
   42.8497  -21.5549   32.4221 H   0  0  0  0  0  0  0  0  0  0  0  0
   37.6691  -20.7522   37.5821 C   0  0  0  0  0  0  0  0  0  0  0  0
   37.1703  -21.6842   36.9071 O   0  0  0  0  0  0  0  0  0  0  0  0
   37.8314  -19.4428   37.0654 N   0  0  0  0  0  0  0  0  0  0  0  0
   38.2706  -18.7401   37.6834 H   0  0  0  0  0  0  0  0  0  0  0  0
   37.2226  -22.0515   39.5747 N   0  0  0  0  0  0  0  0  0  0  0  0
   38.0913  -21.0867   38.9773 C   0  0  0  0  0  0  0  0  0  0  0  0
   36.8773  -21.8509   40.5177 H   0  0  0  0  0  0  0  0  0  0  0  0
   37.4693  -23.0483   39.3872 H   0  0  0  0  0  0  0  0  0  0  0  0
   39.5382  -21.4653   38.9366 C   0  0  0  0  0  0  0  0  0  0  0  0
   40.3424  -20.6606   39.9026 C   0  0  0  0  0  0  0  0  0  0  0  0
   39.9673  -20.6811   41.2195 C   0  0  0  0  0  0  0  0  0  0  0  0
   40.6694  -19.9394   42.1542 C   0  0  0  0  0  0  0  0  0  0  0  0
   41.7562  -19.1723   41.7642 C   0  0  0  0  0  0  0  0  0  0  0  0
   42.4872  -18.4097   42.6868 O   0  0  0  0  0  0  0  0  0  0  0  0
   42.1231  -19.1628   40.4333 C   0  0  0  0  0  0  0  0  0  0  0  0
   41.4118  -19.9096   39.5085 C   0  0  0  0  0  0  0  0  0  0  0  0
   43.2845  -18.7525   43.1828 H   0  0  0  0  0  0  0  0  0  0  0  0
   36.9875  -17.6838   35.5530 C   0  0  0  0  0  0  0  0  0  0  0  0
   35.5568  -17.4088   35.4774 C   0  0  0  0  0  0  0  0  0  0  0  0
   34.8923  -16.3168   35.9783 C   0  0  0  0  0  0  0  0  0  0  0  0
   33.5872  -16.5099   35.7223 N   0  0  0  0  0  0  0  0  0  0  0  0
   33.3754  -17.6683   35.0821 C   0  0  0  0  0  0  0  0  0  0  0  0
   32.2251  -18.2708   34.6050 C   0  0  0  0  0  0  0  0  0  0  0  0
   32.2745  -19.4718   33.9495 C   0  0  0  0  0  0  0  0  0  0  0  0
   33.4954  -20.0922   33.7610 C   0  0  0  0  0  0  0  0  0  0  0  0
   34.6445  -19.4714   34.2481 C   0  0  0  0  0  0  0  0  0  0  0  0
   34.6017  -18.2490   34.9184 C   0  0  0  0  0  0  0  0  0  0  0  0
   32.8321  -15.8414   35.9899 H   0  0  0  0  0  0  0  0  0  0  0  0
 17 18  1  0  0  0
 18 21  1  0  0  0
 21 22  1  0  0  0
 22 23  2  0  0  0
 23 24  1  0  0  0
 24 25  2  0  0  0
 25 26  1  0  0  0
 25 27  1  0  0  0
 27 28  2  0  0  0
 18 13  1  0  0  0
 13 14  2  0  0  0
 13 15  1  0  0  0
 15  1  1  0  0  0
  1 30  1  0  0  0
 30 31  1  0  0  0
 31 32  2  0  0  0
 32 33  1  0  0  0
 33 34  1  0  0  0
 34 35  2  0  0  0
 35 36  1  0  0  0
 36 37  2  0  0  0
 37 38  1  0  0  0
 38 39  2  0  0  0
  1  2  1  0  0  0
  2  3  2  0  0  0
  2  4  1  0  0  0
  4  5  1  0  0  0
  5  6  1  0  0  0
  6  7  1  0  0  0
  7  8  1  0  0  0
  8  9  1  0  0  0
  9 10  1  0  0  0
  9 11  2  0  0  0
 28 22  1  0  0  0
 39 31  1  0  0  0
  8  4  1  0  0  0
 39 34  1  0  0  0
 17 19  1  0  0  0
 17 20  1  0  0  0
 26 29  1  0  0  0
 15 16  1  0  0  0
 33 40  1  0  0  0
 10 12  1  0  0  0
M  END
> <minimizedAffinity>
-7.02293

> <CNNscore>
0.2530856431

> <CNNaffinity>
5.2049098015

> <CNN_VS>
1.3172879219

> <CNNaffinity_variance>
0.1561192870

$$$$
[H]OC(=O)[C@@]1([H])N(C(=O)[C@@]([H])(N([H])C(=O)[C@@]([H])(N([H])[H])C([H])([H])c2c([H])c([H])c(O[H])c([H])c2[H])C([H])([H])c2c([H])n([H])c3c([H])c([H])c([H])c([H])c23)C([H])([H])C([H])([H])C1([H])[H]


 40 43  0  0  0  0  0  0  0  0999 V2000
   35.4788  -19.0086   36.5231 C   0  0  0  0  0  0  0  0  0  0  0  0
   34.2466  -19.8143   36.6249 C   0  0  0  0  0  0  0  0  0  0  0  0
   34.0551  -20.4007   37.7542 O   0  0  0  0  0  0  0  0  0  0  0  0
   33.2495  -20.0084   35.6360 N   0  0  0  0  0  0  0  0  0  0  0  0
   33.1931  -19.6082   34.2444 C   0  0  0  0  0  0  0  0  0  0  0  0
   31.8064  -19.8672   33.7215 C   0  0  0  0  0  0  0  0  0  0  0  0
   30.9792  -20.0720   34.9688 C   0  0  0  0  0  0  0  0  0  0  0  0
   31.9506  -20.6344   35.9837 C   0  0  0  0  0  0  0  0  0  0  0  0
   31.9763  -22.0923   35.8798 C   0  0  0  0  0  0  0  0  0  0  0  0
   33.1398  -22.8066   35.7305 O   0  0  0  0  0  0  0  0  0  0  0  0
   30.9033  -22.7679   35.9225 O   0  0  0  0  0  0  0  0  0  0  0  0
   33.6889  -23.2177   36.4512 H   0  0  0  0  0  0  0  0  0  0  0  0
   37.4908  -20.4055   37.0286 C   0  0  0  0  0  0  0  0  0  0  0  0
   37.3811  -20.2635   38.2699 O   0  0  0  0  0  0  0  0  0  0  0  0
   36.5831  -19.8164   36.1137 N   0  0  0  0  0  0  0  0  0  0  0  0
   36.7358  -20.0019   35.1083 H   0  0  0  0  0  0  0  0  0  0  0  0
   38.5155  -22.5972   36.9638 N   0  0  0  0  0  0  0  0  0  0  0  0
   38.6382  -21.2355   36.5477 C   0  0  0  0  0  0  0  0  0  0  0  0
   39.3390  -23.0335   37.3884 H   0  0  0  0  0  0  0  0  0  0  0  0
   37.9594  -23.2085   36.3262 H   0  0  0  0  0  0  0  0  0  0  0  0
   38.7651  -21.0252   35.0719 C   0  0  0  0  0  0  0  0  0  0  0  0
   39.9859  -20.2359   34.7340 C   0  0  0  0  0  0  0  0  0  0  0  0
   39.8289  -19.1138   33.9647 C   0  0  0  0  0  0  0  0  0  0  0  0
   40.9308  -18.3549   33.6089 C   0  0  0  0  0  0  0  0  0  0  0  0
   42.1991  -18.7245   34.0290 C   0  0  0  0  0  0  0  0  0  0  0  0
   43.3348  -17.9772   33.6848 O   0  0  0  0  0  0  0  0  0  0  0  0
   42.3412  -19.8575   34.8051 C   0  0  0  0  0  0  0  0  0  0  0  0
   41.2302  -20.6078   35.1537 C   0  0  0  0  0  0  0  0  0  0  0  0
   43.6940  -17.2259   34.2378 H   0  0  0  0  0  0  0  0  0  0  0  0
   35.2813  -17.7427   35.7994 C   0  0  0  0  0  0  0  0  0  0  0  0
   35.8463  -16.5177   36.3547 C   0  0  0  0  0  0  0  0  0  0  0  0
   37.0877  -16.3554   36.9180 C   0  0  0  0  0  0  0  0  0  0  0  0
   37.1568  -15.0800   37.3359 N   0  0  0  0  0  0  0  0  0  0  0  0
   36.0257  -14.4113   37.0707 C   0  0  0  0  0  0  0  0  0  0  0  0
   35.6468  -13.0993   37.2924 C   0  0  0  0  0  0  0  0  0  0  0  0
   34.4179  -12.6412   36.8993 C   0  0  0  0  0  0  0  0  0  0  0  0
   33.5413  -13.5050   36.2697 C   0  0  0  0  0  0  0  0  0  0  0  0
   33.9391  -14.8236   36.0544 C   0  0  0  0  0  0  0  0  0  0  0  0
   35.1884  -15.2978   36.4536 C   0  0  0  0  0  0  0  0  0  0  0  0
   37.9876  -14.6622   37.8091 H   0  0  0  0  0  0  0  0  0  0  0  0
 17 18  1  0  0  0
 18 21  1  0  0  0
 21 22  1  0  0  0
 22 23  2  0  0  0
 23 24  1  0  0  0
 24 25  2  0  0  0
 25 26  1  0  0  0
 25 27  1  0  0  0
 27 28  2  0  0  0
 18 13  1  0  0  0
 13 14  2  0  0  0
 13 15  1  0  0  0
 15  1  1  0  0  0
  1 30  1  0  0  0
 30 31  1  0  0  0
 31 32  2  0  0  0
 32 33  1  0  0  0
 33 34  1  0  0  0
 34 35  2  0  0  0
 35 36  1  0  0  0
 36 37  2  0  0  0
 37 38  1  0  0  0
 38 39  2  0  0  0
  1  2  1  0  0  0
  2  3  2  0  0  0
  2  4  1  0  0  0
  4  5  1  0  0  0
  5  6  1  0  0  0
  6  7  1  0  0  0
  7  8  1  0  0  0
  8  9  1  0  0  0
  9 10  1  0  0  0
  9 11  2  0  0  0
 28 22  1  0  0  0
 39 31  1  0  0  0
  8  4  1  0  0  0
 39 34  1  0  0  0
 17 19  1  0  0  0
 17 20  1  0  0  0
 26 29  1  0  0  0
 15 16  1  0  0  0
 33 40  1  0  0  0
 10 12  1  0  0  0
M  END
> <minimizedAffinity>
-7.77805

> <CNNscore>
0.2529713213

> <CNNaffinity>
5.5666565895

> <CNN_VS>
1.4082044363

> <CNNaffinity_variance>
0.3724094033

$$$$
[H]N=C(c1c([H])c([H])c([H])c(C([H])([H])C([H])(C(=O)N2C([H])([H])C([H])([H])N(C([H])([H])[H])C([H])([H])C2([H])[H])N([H])S(=O)(=O)c2c([H])c([H])c3c([H])c([H])c([H])c([H])c3c2[H])c1[H])N([H])[H]


 38 41  0  0  0  0  0  0  0  0999 V2000
   37.2444  -19.0579   36.2257 C   0  0  0  0  0  0  0  0  0  0  0  0
   41.7183  -22.2446   32.9789 C   0  0  0  0  0  0  0  0  0  0  0  0
   40.9680  -21.9117   34.1816 N   0  0  0  0  0  0  0  0  0  0  0  0
   39.5921  -21.6201   33.8255 C   0  0  0  0  0  0  0  0  0  0  0  0
   38.8266  -21.3503   35.1236 C   0  0  0  0  0  0  0  0  0  0  0  0
   39.4137  -20.2716   35.8761 N   0  0  0  0  0  0  0  0  0  0  0  0
   40.8770  -20.3836   36.0414 C   0  0  0  0  0  0  0  0  0  0  0  0
   41.5261  -20.6557   34.6992 C   0  0  0  0  0  0  0  0  0  0  0  0
   38.6834  -19.2019   36.4125 C   0  0  0  0  0  0  0  0  0  0  0  0
   39.3843  -18.3595   37.0842 O   0  0  0  0  0  0  0  0  0  0  0  0
   36.6999  -19.0030   37.6152 N   0  0  0  0  0  0  0  0  0  0  0  0
   36.0688  -18.2019   37.7274 H   0  0  0  0  0  0  0  0  0  0  0  0
   35.9365  -20.4099   38.1174 S   0  0  0  0  0  0  0  0  0  0  0  0
   36.7572  -21.5834   37.6030 O   0  0  0  0  0  0  0  0  0  0  0  0
   35.8646  -20.5894   39.6053 O   0  0  0  0  0  0  0  0  0  0  0  0
   34.3097  -20.6270   37.5043 C   0  0  0  0  0  0  0  0  0  0  0  0
   33.5203  -21.7092   37.8414 C   0  0  0  0  0  0  0  0  0  0  0  0
   32.2386  -21.8706   37.3527 C   0  0  0  0  0  0  0  0  0  0  0  0
   31.6828  -20.9481   36.4961 C   0  0  0  0  0  0  0  0  0  0  0  0
   30.3921  -21.0928   35.9924 C   0  0  0  0  0  0  0  0  0  0  0  0
   29.8404  -20.1638   35.1337 C   0  0  0  0  0  0  0  0  0  0  0  0
   30.6095  -19.0788   34.7855 C   0  0  0  0  0  0  0  0  0  0  0  0
   31.8917  -18.9372   35.2873 C   0  0  0  0  0  0  0  0  0  0  0  0
   32.4523  -19.8603   36.1462 C   0  0  0  0  0  0  0  0  0  0  0  0
   33.7321  -19.7055   36.6384 C   0  0  0  0  0  0  0  0  0  0  0  0
   36.7941  -17.8590   35.4780 C   0  0  0  0  0  0  0  0  0  0  0  0
   36.4108  -16.6521   36.1712 C   0  0  0  0  0  0  0  0  0  0  0  0
   37.3032  -16.0330   37.0261 C   0  0  0  0  0  0  0  0  0  0  0  0
   37.0377  -14.8912   37.7357 C   0  0  0  0  0  0  0  0  0  0  0  0
   35.7893  -14.3241   37.5811 C   0  0  0  0  0  0  0  0  0  0  0  0
   34.8491  -14.8724   36.7556 C   0  0  0  0  0  0  0  0  0  0  0  0
   35.1709  -16.0222   36.0660 C   0  0  0  0  0  0  0  0  0  0  0  0
   33.5392  -14.2304   36.6264 C   0  0  0  0  0  0  0  0  0  0  0  0
   32.9187  -14.1958   35.3483 N   0  0  0  0  0  0  0  0  0  0  0  0
   32.9362  -13.6995   37.6329 N   0  0  0  0  0  0  0  0  0  0  0  0
   32.7349  -15.0661   34.7912 H   0  0  0  0  0  0  0  0  0  0  0  0
   32.6108  -13.2945   34.8927 H   0  0  0  0  0  0  0  0  0  0  0  0
   32.0219  -13.2611   37.4986 H   0  0  0  0  0  0  0  0  0  0  0  0
  2  3  1  0  0  0
  3  4  1  0  0  0
  4  5  1  0  0  0
  5  6  1  0  0  0
  6  7  1  0  0  0
  7  8  1  0  0  0
  6  9  1  0  0  0
  9 10  2  0  0  0
  9  1  1  0  0  0
  1 26  1  0  0  0
 26 27  1  0  0  0
 27 28  2  0  0  0
 28 29  1  0  0  0
 29 30  2  0  0  0
 30 31  1  0  0  0
 31 32  2  0  0  0
 31 33  1  0  0  0
 33 34  1  0  0  0
 33 35  2  0  0  0
  1 11  1  0  0  0
 11 13  1  0  0  0
 13 14  2  0  0  0
 13 15  2  0  0  0
 13 16  1  0  0  0
 16 17  2  0  0  0
 17 18  1  0  0  0
 18 19  2  0  0  0
 19 20  1  0  0  0
 20 21  2  0  0  0
 21 22  1  0  0  0
 22 23  2  0  0  0
 23 24  1  0  0  0
 24 25  2  0  0  0
  8  3  1  0  0  0
 32 27  1  0  0  0
 25 16  1  0  0  0
 24 19  1  0  0  0
 34 36  1  0  0  0
 34 37  1  0  0  0
 35 38  1  0  0  0
 11 12  1  0  0  0
M  END
> <minimizedAffinity>
-7.28421

> <CNNscore>
0.4635124207

> <CNNaffinity>
5.5851707458

> <CNN_VS>
2.5887959003

> <CNNaffinity_variance>
0.3540125489

$$$$
[H]N=C(c1c([H])c([H])c([H])c(C([H])([H])C([H])(C(=O)N2C([H])([H])C([H])([H])N(C([H])([H])[H])C([H])([H])C2([H])[H])N([H])S(=O)(=O)c2c([H])c([H])c3c([H])c([H])c([H])c([H])c3c2[H])c1[H])N([H])[H]


 38 41  0  0  0  0  0  0  0  0999 V2000
   36.2984  -18.2560   35.9589 C   0  0  0  0  0  0  0  0  0  0  0  0
   41.6000  -21.3102   34.1486 C   0  0  0  0  0  0  0  0  0  0  0  0
   40.8159  -20.1178   34.4377 N   0  0  0  0  0  0  0  0  0  0  0  0
   39.9214  -20.3872   35.5479 C   0  0  0  0  0  0  0  0  0  0  0  0
   39.1742  -19.0889   35.8641 C   0  0  0  0  0  0  0  0  0  0  0  0
   38.4546  -18.5937   34.7189 N   0  0  0  0  0  0  0  0  0  0  0  0
   39.2572  -18.5508   33.4798 C   0  0  0  0  0  0  0  0  0  0  0  0
   39.9535  -19.8809   33.2727 C   0  0  0  0  0  0  0  0  0  0  0  0
   37.1143  -18.1841   34.7525 C   0  0  0  0  0  0  0  0  0  0  0  0
   36.6634  -17.7379   33.6346 O   0  0  0  0  0  0  0  0  0  0  0  0
   36.3849  -19.6883   36.3729 N   0  0  0  0  0  0  0  0  0  0  0  0
   37.3183  -19.9055   36.7392 H   0  0  0  0  0  0  0  0  0  0  0  0
   35.2114  -20.1646   37.4732 S   0  0  0  0  0  0  0  0  0  0  0  0
   35.5671  -21.5681   37.9412 O   0  0  0  0  0  0  0  0  0  0  0  0
   35.1412  -19.3299   38.7180 O   0  0  0  0  0  0  0  0  0  0  0  0
   33.5843  -20.2467   36.8289 C   0  0  0  0  0  0  0  0  0  0  0  0
   33.0774  -19.3073   35.9523 C   0  0  0  0  0  0  0  0  0  0  0  0
   31.7931  -19.3815   35.4499 C   0  0  0  0  0  0  0  0  0  0  0  0
   30.9490  -20.4088   35.8048 C   0  0  0  0  0  0  0  0  0  0  0  0
   29.6504  -20.5015   35.3090 C   0  0  0  0  0  0  0  0  0  0  0  0
   28.8089  -21.5345   35.6689 C   0  0  0  0  0  0  0  0  0  0  0  0
   29.2939  -22.4805   36.5405 C   0  0  0  0  0  0  0  0  0  0  0  0
   30.5845  -22.3862   37.0317 C   0  0  0  0  0  0  0  0  0  0  0  0
   31.4337  -21.3575   36.6782 C   0  0  0  0  0  0  0  0  0  0  0  0
   32.7180  -21.2769   37.1762 C   0  0  0  0  0  0  0  0  0  0  0  0
   36.7191  -17.3951   37.0907 C   0  0  0  0  0  0  0  0  0  0  0  0
   36.4659  -15.9739   37.0768 C   0  0  0  0  0  0  0  0  0  0  0  0
   37.4655  -15.0902   37.4381 C   0  0  0  0  0  0  0  0  0  0  0  0
   37.3276  -13.7272   37.4655 C   0  0  0  0  0  0  0  0  0  0  0  0
   36.1016  -13.2062   37.1055 C   0  0  0  0  0  0  0  0  0  0  0  0
   35.0611  -14.0100   36.7351 C   0  0  0  0  0  0  0  0  0  0  0  0
   35.2563  -15.3749   36.7258 C   0  0  0  0  0  0  0  0  0  0  0  0
   33.7803  -13.4064   36.3611 C   0  0  0  0  0  0  0  0  0  0  0  0
   33.5357  -12.0510   36.7117 N   0  0  0  0  0  0  0  0  0  0  0  0
   32.8739  -14.0652   35.7263 N   0  0  0  0  0  0  0  0  0  0  0  0
   34.1785  -11.2732   36.4232 H   0  0  0  0  0  0  0  0  0  0  0  0
   32.6963  -11.7559   37.2800 H   0  0  0  0  0  0  0  0  0  0  0  0
   31.9929  -13.6052   35.4844 H   0  0  0  0  0  0  0  0  0  0  0  0
  2  3  1  0  0  0
  3  4  1  0  0  0
  4  5  1  0  0  0
  5  6  1  0  0  0
  6  7  1  0  0  0
  7  8  1  0  0  0
  6  9  1  0  0  0
  9 10  2  0  0  0
  9  1  1  0  0  0
  1 26  1  0  0  0
 26 27  1  0  0  0
 27 28  2  0  0  0
 28 29  1  0  0  0
 29 30  2  0  0  0
 30 31  1  0  0  0
 31 32  2  0  0  0
 31 33  1  0  0  0
 33 34  1  0  0  0
 33 35  2  0  0  0
  1 11  1  0  0  0
 11 13  1  0  0  0
 13 14  2  0  0  0
 13 15  2  0  0  0
 13 16  1  0  0  0
 16 17  2  0  0  0
 17 18  1  0  0  0
 18 19  2  0  0  0
 19 20  1  0  0  0
 20 21  2  0  0  0
 21 22  1  0  0  0
 22 23  2  0  0  0
 23 24  1  0  0  0
 24 25  2  0  0  0
  8  3  1  0  0  0
 32 27  1  0  0  0
 25 16  1  0  0  0
 24 19  1  0  0  0
 34 36  1  0  0  0
 34 37  1  0  0  0
 35 38  1  0  0  0
 11 12  1  0  0  0
M  END
> <minimizedAffinity>
-8.51345

> <CNNscore>
0.4239869416

> <CNNaffinity>
5.6787176132

> <CNN_VS>
2.4077022076

> <CNNaffinity_variance>
0.6251455545

$$$$
[H]N=C(c1c([H])c([H])c([H])c(C([H])([H])C([H])(C(=O)N2C([H])([H])C([H])([H])N(C([H])([H])[H])C([H])([H])C2([H])[H])N([H])S(=O)(=O)c2c([H])c([H])c3c([H])c([H])c([H])c([H])c3c2[H])c1[H])N([H])[H]


 38 41  0  0  0  0  0  0  0  0999 V2000
   36.0828  -18.0939   36.4200 C   0  0  0  0  0  0  0  0  0  0  0  0
   41.2217  -19.5023   32.9100 C   0  0  0  0  0  0  0  0  0  0  0  0
   39.8629  -19.7281   33.3822 N   0  0  0  0  0  0  0  0  0  0  0  0
   39.2129  -18.4506   33.6070 C   0  0  0  0  0  0  0  0  0  0  0  0
   37.7689  -18.7354   34.0286 C   0  0  0  0  0  0  0  0  0  0  0  0
   37.7090  -19.5682   35.2022 N   0  0  0  0  0  0  0  0  0  0  0  0
   38.5726  -20.7643   35.1326 C   0  0  0  0  0  0  0  0  0  0  0  0
   39.9695  -20.3647   34.7015 C   0  0  0  0  0  0  0  0  0  0  0  0
   36.9115  -19.2897   36.3210 C   0  0  0  0  0  0  0  0  0  0  0  0
   36.9680  -20.1745   37.2515 O   0  0  0  0  0  0  0  0  0  0  0  0
   34.7059  -18.6228   36.6540 N   0  0  0  0  0  0  0  0  0  0  0  0
   34.2357  -18.0969   37.3989 H   0  0  0  0  0  0  0  0  0  0  0  0
   33.7379  -18.6681   35.2844 S   0  0  0  0  0  0  0  0  0  0  0  0
   33.4007  -17.2309   34.9159 O   0  0  0  0  0  0  0  0  0  0  0  0
   34.3955  -19.2525   34.0690 O   0  0  0  0  0  0  0  0  0  0  0  0
   32.2129  -19.5069   35.4849 C   0  0  0  0  0  0  0  0  0  0  0  0
   31.0518  -19.1125   34.8492 C   0  0  0  0  0  0  0  0  0  0  0  0
   29.8546  -19.7812   35.0139 C   0  0  0  0  0  0  0  0  0  0  0  0
   29.7633  -20.8855   35.8300 C   0  0  0  0  0  0  0  0  0  0  0  0
   28.5654  -21.5735   36.0091 C   0  0  0  0  0  0  0  0  0  0  0  0
   28.4806  -22.6806   36.8290 C   0  0  0  0  0  0  0  0  0  0  0  0
   29.6251  -23.0899   37.4711 C   0  0  0  0  0  0  0  0  0  0  0  0
   30.8142  -22.4047   37.2915 C   0  0  0  0  0  0  0  0  0  0  0  0
   30.9094  -21.2969   36.4742 C   0  0  0  0  0  0  0  0  0  0  0  0
   32.1021  -20.6239   36.3050 C   0  0  0  0  0  0  0  0  0  0  0  0
   36.4290  -17.1404   37.5017 C   0  0  0  0  0  0  0  0  0  0  0  0
   36.2774  -15.7171   37.3135 C   0  0  0  0  0  0  0  0  0  0  0  0
   37.3721  -14.8827   37.4401 C   0  0  0  0  0  0  0  0  0  0  0  0
   37.3354  -13.5213   37.2889 C   0  0  0  0  0  0  0  0  0  0  0  0
   36.1162  -12.9491   36.9887 C   0  0  0  0  0  0  0  0  0  0  0  0
   34.9855  -13.7022   36.8461 C   0  0  0  0  0  0  0  0  0  0  0  0
   35.0811  -15.0679   37.0095 C   0  0  0  0  0  0  0  0  0  0  0  0
   33.7163  -13.0454   36.5263 C   0  0  0  0  0  0  0  0  0  0  0  0
   33.4907  -11.7259   37.0037 N   0  0  0  0  0  0  0  0  0  0  0  0
   32.8034  -13.6262   35.8277 N   0  0  0  0  0  0  0  0  0  0  0  0
   34.1470  -10.9344   36.7934 H   0  0  0  0  0  0  0  0  0  0  0  0
   32.6528  -11.4731   37.5941 H   0  0  0  0  0  0  0  0  0  0  0  0
   31.9310  -13.1313   35.6273 H   0  0  0  0  0  0  0  0  0  0  0  0
  2  3  1  0  0  0
  3  4  1  0  0  0
  4  5  1  0  0  0
  5  6  1  0  0  0
  6  7  1  0  0  0
  7  8  1  0  0  0
  6  9  1  0  0  0
  9 10  2  0  0  0
  9  1  1  0  0  0
  1 26  1  0  0  0
 26 27  1  0  0  0
 27 28  2  0  0  0
 28 29  1  0  0  0
 29 30  2  0  0  0
 30 31  1  0  0  0
 31 32  2  0  0  0
 31 33  1  0  0  0
 33 34  1  0  0  0
 33 35  2  0  0  0
  1 11  1  0  0  0
 11 13  1  0  0  0
 13 14  2  0  0  0
 13 15  2  0  0  0
 13 16  1  0  0  0
 16 17  2  0  0  0
 17 18  1  0  0  0
 18 19  2  0  0  0
 19 20  1  0  0  0
 20 21  2  0  0  0
 21 22  1  0  0  0
 22 23  2  0  0  0
 23 24  1  0  0  0
 24 25  2  0  0  0
  8  3  1  0  0  0
 32 27  1  0  0  0
 25 16  1  0  0  0
 24 19  1  0  0  0
 34 36  1  0  0  0
 34 37  1  0  0  0
 35 38  1  0  0  0
 11 12  1  0  0  0
M  END
> <minimizedAffinity>
-8.91291

> <CNNscore>
0.4115194678

> <CNNaffinity>
5.9248266220

> <CNN_VS>
2.4381814003

> <CNNaffinity_variance>
0.3264294565

$$$$
[H]N=C(c1c([H])c([H])c([H])c(C([H])([H])C([H])(C(=O)N2C([H])([H])C([H])([H])N(C([H])([H])[H])C([H])([H])C2([H])[H])N([H])S(=O)(=O)c2c([H])c([H])c3c([H])c([H])c([H])c([H])c3c2[H])c1[H])N([H])[H]


 38 41  0  0  0  0  0  0  0  0999 V2000
   36.7897  -18.0267   36.7527 C   0  0  0  0  0  0  0  0  0  0  0  0
   30.8658  -19.5132   34.9061 C   0  0  0  0  0  0  0  0  0  0  0  0
   32.3169  -19.6116   34.8369 N   0  0  0  0  0  0  0  0  0  0  0  0
   32.8717  -19.4930   36.1723 C   0  0  0  0  0  0  0  0  0  0  0  0
   34.3875  -19.6768   36.0602 C   0  0  0  0  0  0  0  0  0  0  0  0
   34.9771  -18.7194   35.1602 N   0  0  0  0  0  0  0  0  0  0  0  0
   34.2777  -18.6058   33.8644 C   0  0  0  0  0  0  0  0  0  0  0  0
   32.7900  -18.4344   34.0970 C   0  0  0  0  0  0  0  0  0  0  0  0
   36.1110  -17.9531   35.4641 C   0  0  0  0  0  0  0  0  0  0  0  0
   36.5056  -17.1822   34.5143 O   0  0  0  0  0  0  0  0  0  0  0  0
   38.2233  -17.7661   36.4252 N   0  0  0  0  0  0  0  0  0  0  0  0
   38.6404  -17.1207   37.1050 H   0  0  0  0  0  0  0  0  0  0  0  0
   39.1665  -19.1471   36.2912 S   0  0  0  0  0  0  0  0  0  0  0  0
   39.2650  -19.4911   34.8123 O   0  0  0  0  0  0  0  0  0  0  0  0
   40.5818  -18.9899   36.7640 O   0  0  0  0  0  0  0  0  0  0  0  0
   38.5209  -20.5636   37.0951 C   0  0  0  0  0  0  0  0  0  0  0  0
   37.9885  -21.6372   36.4083 C   0  0  0  0  0  0  0  0  0  0  0  0
   37.4824  -22.7495   37.0519 C   0  0  0  0  0  0  0  0  0  0  0  0
   37.4857  -22.8394   38.4250 C   0  0  0  0  0  0  0  0  0  0  0  0
   36.9801  -23.9526   39.0928 C   0  0  0  0  0  0  0  0  0  0  0  0
   36.9866  -24.0366   40.4704 C   0  0  0  0  0  0  0  0  0  0  0  0
   37.5123  -22.9785   41.1732 C   0  0  0  0  0  0  0  0  0  0  0  0
   38.0141  -21.8736   40.5075 C   0  0  0  0  0  0  0  0  0  0  0  0
   38.0122  -21.7799   39.1307 C   0  0  0  0  0  0  0  0  0  0  0  0
   38.5161  -20.6717   38.4810 C   0  0  0  0  0  0  0  0  0  0  0  0
   36.3433  -17.0634   37.7880 C   0  0  0  0  0  0  0  0  0  0  0  0
   36.2612  -15.6508   37.5019 C   0  0  0  0  0  0  0  0  0  0  0  0
   37.4040  -14.8735   37.5246 C   0  0  0  0  0  0  0  0  0  0  0  0
   37.4347  -13.5264   37.2754 C   0  0  0  0  0  0  0  0  0  0  0  0
   36.2366  -12.9082   36.9813 C   0  0  0  0  0  0  0  0  0  0  0  0
   35.0617  -13.6036   36.9382 C   0  0  0  0  0  0  0  0  0  0  0  0
   35.0899  -14.9575   37.1976 C   0  0  0  0  0  0  0  0  0  0  0  0
   33.8174  -12.8998   36.6203 C   0  0  0  0  0  0  0  0  0  0  0  0
   32.8138  -13.5857   35.8840 N   0  0  0  0  0  0  0  0  0  0  0  0
   33.6075  -11.6834   36.9876 N   0  0  0  0  0  0  0  0  0  0  0  0
   32.4120  -14.5011   36.2035 H   0  0  0  0  0  0  0  0  0  0  0  0
   32.4205  -13.2112   34.9787 H   0  0  0  0  0  0  0  0  0  0  0  0
   32.7239  -11.2290   36.7444 H   0  0  0  0  0  0  0  0  0  0  0  0
  2  3  1  0  0  0
  3  4  1  0  0  0
  4  5  1  0  0  0
  5  6  1  0  0  0
  6  7  1  0  0  0
  7  8  1  0  0  0
  6  9  1  0  0  0
  9 10  2  0  0  0
  9  1  1  0  0  0
  1 26  1  0  0  0
 26 27  1  0  0  0
 27 28  2  0  0  0
 28 29  1  0  0  0
 29 30  2  0  0  0
 30 31  1  0  0  0
 31 32  2  0  0  0
 31 33  1  0  0  0
 33 34  1  0  0  0
 33 35  2  0  0  0
  1 11  1  0  0  0
 11 13  1  0  0  0
 13 14  2  0  0  0
 13 15  2  0  0  0
 13 16  1  0  0  0
 16 17  2  0  0  0
 17 18  1  0  0  0
 18 19  2  0  0  0
 19 20  1  0  0  0
 20 21  2  0  0  0
 21 22  1  0  0  0
 22 23  2  0  0  0
 23 24  1  0  0  0
 24 25  2  0  0  0
  8  3  1  0  0  0
 32 27  1  0  0  0
 25 16  1  0  0  0
 24 19  1  0  0  0
 34 36  1  0  0  0
 34 37  1  0  0  0
 35 38  1  0  0  0
 11 12  1  0  0  0
M  END
> <minimizedAffinity>
-7.59103

> <CNNscore>
0.3069849014

> <CNNaffinity>
5.5400853157

> <CNN_VS>
1.7007225752

> <CNNaffinity_variance>
0.5763651133

$$$$
[H]N=C(c1c([H])c([H])c([H])c(C([H])([H])C([H])(C(=O)N2C([H])([H])C([H])([H])N(C([H])([H])[H])C([H])([H])C2([H])[H])N([H])S(=O)(=O)c2c([H])c([H])c3c([H])c([H])c([H])c([H])c3c2[H])c1[H])N([H])[H]


 38 41  0  0  0  0  0  0  0  0999 V2000
   35.0859  -19.1764   35.1618 C   0  0  0  0  0  0  0  0  0  0  0  0
   41.4197  -18.7879   34.4957 C   0  0  0  0  0  0  0  0  0  0  0  0
   40.1677  -19.5126   34.6618 N   0  0  0  0  0  0  0  0  0  0  0  0
   39.1136  -18.8239   33.9409 C   0  0  0  0  0  0  0  0  0  0  0  0
   37.8376  -19.6583   34.0807 C   0  0  0  0  0  0  0  0  0  0  0  0
   37.4816  -19.8635   35.4612 N   0  0  0  0  0  0  0  0  0  0  0  0
   38.6037  -20.3158   36.3082 C   0  0  0  0  0  0  0  0  0  0  0  0
   39.8087  -19.4248   36.0832 C   0  0  0  0  0  0  0  0  0  0  0  0
   36.1943  -19.6587   35.9773 C   0  0  0  0  0  0  0  0  0  0  0  0
   36.0695  -19.9328   37.2268 O   0  0  0  0  0  0  0  0  0  0  0  0
   33.8906  -19.3293   36.0440 N   0  0  0  0  0  0  0  0  0  0  0  0
   33.8751  -18.6002   36.7656 H   0  0  0  0  0  0  0  0  0  0  0  0
   32.4252  -19.3602   35.2277 S   0  0  0  0  0  0  0  0  0  0  0  0
   31.4880  -18.3924   35.9350 O   0  0  0  0  0  0  0  0  0  0  0  0
   32.4889  -18.8920   33.8037 O   0  0  0  0  0  0  0  0  0  0  0  0
   31.6214  -20.9168   35.2110 C   0  0  0  0  0  0  0  0  0  0  0  0
   32.2493  -22.0799   34.8100 C   0  0  0  0  0  0  0  0  0  0  0  0
   31.6065  -23.3023   34.8009 C   0  0  0  0  0  0  0  0  0  0  0  0
   30.2935  -23.4181   35.1964 C   0  0  0  0  0  0  0  0  0  0  0  0
   29.6276  -24.6417   35.1945 C   0  0  0  0  0  0  0  0  0  0  0  0
   28.3106  -24.7511   35.5926 C   0  0  0  0  0  0  0  0  0  0  0  0
   27.6670  -23.6052   35.9957 C   0  0  0  0  0  0  0  0  0  0  0  0
   28.3308  -22.3906   35.9967 C   0  0  0  0  0  0  0  0  0  0  0  0
   29.6472  -22.2706   35.6007 C   0  0  0  0  0  0  0  0  0  0  0  0
   30.2958  -21.0527   35.6071 C   0  0  0  0  0  0  0  0  0  0  0  0
   35.1726  -17.7705   34.6978 C   0  0  0  0  0  0  0  0  0  0  0  0
   35.2614  -16.6814   35.6412 C   0  0  0  0  0  0  0  0  0  0  0  0
   36.3819  -16.5481   36.4396 C   0  0  0  0  0  0  0  0  0  0  0  0
   36.5626  -15.5576   37.3690 C   0  0  0  0  0  0  0  0  0  0  0  0
   35.5508  -14.6305   37.5130 C   0  0  0  0  0  0  0  0  0  0  0  0
   34.4107  -14.6901   36.7631 C   0  0  0  0  0  0  0  0  0  0  0  0
   34.2823  -15.7088   35.8428 C   0  0  0  0  0  0  0  0  0  0  0  0
   33.3671  -13.6807   36.9544 C   0  0  0  0  0  0  0  0  0  0  0  0
   33.2151  -13.0903   38.2383 N   0  0  0  0  0  0  0  0  0  0  0  0
   32.5874  -13.3140   35.9972 N   0  0  0  0  0  0  0  0  0  0  0  0
   34.0070  -12.6086   38.7304 H   0  0  0  0  0  0  0  0  0  0  0  0
   32.2994  -13.1056   38.7635 H   0  0  0  0  0  0  0  0  0  0  0  0
   31.8713  -12.6054   36.1740 H   0  0  0  0  0  0  0  0  0  0  0  0
  2  3  1  0  0  0
  3  4  1  0  0  0
  4  5  1  0  0  0
  5  6  1  0  0  0
  6  7  1  0  0  0
  7  8  1  0  0  0
  6  9  1  0  0  0
  9 10  2  0  0  0
  9  1  1  0  0  0
  1 26  1  0  0  0
 26 27  1  0  0  0
 27 28  2  0  0  0
 28 29  1  0  0  0
 29 30  2  0  0  0
 30 31  1  0  0  0
 31 32  2  0  0  0
 31 33  1  0  0  0
 33 34  1  0  0  0
 33 35  2  0  0  0
  1 11  1  0  0  0
 11 13  1  0  0  0
 13 14  2  0  0  0
 13 15  2  0  0  0
 13 16  1  0  0  0
 16 17  2  0  0  0
 17 18  1  0  0  0
 18 19  2  0  0  0
 19 20  1  0  0  0
 20 21  2  0  0  0
 21 22  1  0  0  0
 22 23  2  0  0  0
 23 24  1  0  0  0
 24 25  2  0  0  0
  8  3  1  0  0  0
 32 27  1  0  0  0
 25 16  1  0  0  0
 24 19  1  0  0  0
 34 36  1  0  0  0
 34 37  1  0  0  0
 35 38  1  0  0  0
 11 12  1  0  0  0
M  END
> <minimizedAffinity>
-8.57150

> <CNNscore>
0.2803074419

> <CNNaffinity>
5.7647032738

> <CNN_VS>
1.6158891916

> <CNNaffinity_variance>
0.1794489920

$$$$
[H]N=C(c1c([H])c([H])c([H])c(C([H])([H])C([H])(C(=O)N2C([H])([H])C([H])([H])N(C([H])([H])[H])C([H])([H])C2([H])[H])N([H])S(=O)(=O)c2c([H])c([H])c3c([H])c([H])c([H])c([H])c3c2[H])c1[H])N([H])[H]


 38 41  0  0  0  0  0  0  0  0999 V2000
   36.3075  -18.4381   36.0041 C   0  0  0  0  0  0  0  0  0  0  0  0
   31.5601  -22.4864   34.6679 C   0  0  0  0  0  0  0  0  0  0  0  0
   32.1370  -21.3268   35.3334 N   0  0  0  0  0  0  0  0  0  0  0  0
   33.0902  -20.6873   34.4460 C   0  0  0  0  0  0  0  0  0  0  0  0
   33.6135  -19.4356   35.1556 C   0  0  0  0  0  0  0  0  0  0  0  0
   34.2112  -19.7524   36.4272 N   0  0  0  0  0  0  0  0  0  0  0  0
   33.3838  -20.6347   37.2747 C   0  0  0  0  0  0  0  0  0  0  0  0
   32.9187  -21.8316   36.4697 C   0  0  0  0  0  0  0  0  0  0  0  0
   35.4629  -19.2788   36.8445 C   0  0  0  0  0  0  0  0  0  0  0  0
   35.8049  -19.6434   38.0286 O   0  0  0  0  0  0  0  0  0  0  0  0
   36.6242  -19.3006   34.8267 N   0  0  0  0  0  0  0  0  0  0  0  0
   36.0903  -19.0022   34.0030 H   0  0  0  0  0  0  0  0  0  0  0  0
   38.2568  -19.3900   34.4512 S   0  0  0  0  0  0  0  0  0  0  0  0
   38.4786  -20.6853   33.6842 O   0  0  0  0  0  0  0  0  0  0  0  0
   38.7556  -18.2979   33.5514 O   0  0  0  0  0  0  0  0  0  0  0  0
   39.3317  -19.4341   35.8340 C   0  0  0  0  0  0  0  0  0  0  0  0
   40.4982  -18.6975   35.8999 C   0  0  0  0  0  0  0  0  0  0  0  0
   41.3385  -18.7392   36.9952 C   0  0  0  0  0  0  0  0  0  0  0  0
   41.0476  -19.5275   38.0850 C   0  0  0  0  0  0  0  0  0  0  0  0
   41.8820  -19.5833   39.1991 C   0  0  0  0  0  0  0  0  0  0  0  0
   41.5843  -20.3758   40.2891 C   0  0  0  0  0  0  0  0  0  0  0  0
   40.4275  -21.1172   40.2439 C   0  0  0  0  0  0  0  0  0  0  0  0
   39.6000  -21.0601   39.1358 C   0  0  0  0  0  0  0  0  0  0  0  0
   39.8887  -20.2710   38.0411 C   0  0  0  0  0  0  0  0  0  0  0  0
   39.0538  -20.2243   36.9435 C   0  0  0  0  0  0  0  0  0  0  0  0
   35.7080  -17.1672   35.5303 C   0  0  0  0  0  0  0  0  0  0  0  0
   36.0029  -15.9164   36.1881 C   0  0  0  0  0  0  0  0  0  0  0  0
   36.9687  -15.8657   37.1756 C   0  0  0  0  0  0  0  0  0  0  0  0
   37.3192  -14.7345   37.8649 C   0  0  0  0  0  0  0  0  0  0  0  0
   36.6574  -13.5665   37.5457 C   0  0  0  0  0  0  0  0  0  0  0  0
   35.6899  -13.5302   36.5821 C   0  0  0  0  0  0  0  0  0  0  0  0
   35.3777  -14.6988   35.9203 C   0  0  0  0  0  0  0  0  0  0  0  0
   35.0182  -12.2642   36.2809 C   0  0  0  0  0  0  0  0  0  0  0  0
   33.7066  -12.0502   36.7846 N   0  0  0  0  0  0  0  0  0  0  0  0
   35.5795  -11.3435   35.5767 N   0  0  0  0  0  0  0  0  0  0  0  0
   33.4809  -12.1209   37.8071 H   0  0  0  0  0  0  0  0  0  0  0  0
   32.8918  -11.8095   36.1578 H   0  0  0  0  0  0  0  0  0  0  0  0
   35.0746  -10.4738   35.3898 H   0  0  0  0  0  0  0  0  0  0  0  0
  2  3  1  0  0  0
  3  4  1  0  0  0
  4  5  1  0  0  0
  5  6  1  0  0  0
  6  7  1  0  0  0
  7  8  1  0  0  0
  6  9  1  0  0  0
  9 10  2  0  0  0
  9  1  1  0  0  0
  1 26  1  0  0  0
 26 27  1  0  0  0
 27 28  2  0  0  0
 28 29  1  0  0  0
 29 30  2  0  0  0
 30 31  1  0  0  0
 31 32  2  0  0  0
 31 33  1  0  0  0
 33 34  1  0  0  0
 33 35  2  0  0  0
  1 11  1  0  0  0
 11 13  1  0  0  0
 13 14  2  0  0  0
 13 15  2  0  0  0
 13 16  1  0  0  0
 16 17  2  0  0  0
 17 18  1  0  0  0
 18 19  2  0  0  0
 19 20  1  0  0  0
 20 21  2  0  0  0
 21 22  1  0  0  0
 22 23  2  0  0  0
 23 24  1  0  0  0
 24 25  2  0  0  0
  8  3  1  0  0  0
 32 27  1  0  0  0
 25 16  1  0  0  0
 24 19  1  0  0  0
 34 36  1  0  0  0
 34 37  1  0  0  0
 35 38  1  0  0  0
 11 12  1  0  0  0
M  END
> <minimizedAffinity>
-8.49306

> <CNNscore>
0.2577069104

> <CNNaffinity>
5.5373892784

> <CNN_VS>
1.4270235300

> <CNNaffinity_variance>
0.2886893153

$$$$
[H]N=C(c1c([H])c([H])c([H])c(C([H])([H])C([H])(C(=O)N2C([H])([H])C([H])([H])N(C([H])([H])[H])C([H])([H])C2([H])[H])N([H])S(=O)(=O)c2c([H])c([H])c3c([H])c([H])c([H])c([H])c3c2[H])c1[H])N([H])[H]


 38 41  0  0  0  0  0  0  0  0999 V2000
   37.1383  -18.9649   36.0691 C   0  0  0  0  0  0  0  0  0  0  0  0
   31.0627  -19.5949   34.2247 C   0  0  0  0  0  0  0  0  0  0  0  0
   32.3724  -18.9589   34.2053 N   0  0  0  0  0  0  0  0  0  0  0  0
   33.4003  -19.9681   34.3785 C   0  0  0  0  0  0  0  0  0  0  0  0
   34.7574  -19.2669   34.2766 C   0  0  0  0  0  0  0  0  0  0  0  0
   34.8886  -18.2122   35.2487 N   0  0  0  0  0  0  0  0  0  0  0  0
   33.7302  -17.2975   35.3000 C   0  0  0  0  0  0  0  0  0  0  0  0
   32.4470  -18.0985   35.3932 C   0  0  0  0  0  0  0  0  0  0  0  0
   36.0042  -18.0485   36.0817 C   0  0  0  0  0  0  0  0  0  0  0  0
   35.9476  -17.0240   36.8559 O   0  0  0  0  0  0  0  0  0  0  0  0
   38.2279  -18.1875   35.4066 N   0  0  0  0  0  0  0  0  0  0  0  0
   38.7974  -17.6936   36.1025 H   0  0  0  0  0  0  0  0  0  0  0  0
   39.2140  -19.0960   34.3982 S   0  0  0  0  0  0  0  0  0  0  0  0
   38.3134  -20.0138   33.5846 O   0  0  0  0  0  0  0  0  0  0  0  0
   39.9905  -18.2979   33.3927 O   0  0  0  0  0  0  0  0  0  0  0  0
   40.3668  -20.1253   35.2236 C   0  0  0  0  0  0  0  0  0  0  0  0
   41.2371  -19.6534   36.1868 C   0  0  0  0  0  0  0  0  0  0  0  0
   42.1419  -20.4736   36.8318 C   0  0  0  0  0  0  0  0  0  0  0  0
   42.2183  -21.8162   36.5399 C   0  0  0  0  0  0  0  0  0  0  0  0
   43.1238  -22.6600   37.1792 C   0  0  0  0  0  0  0  0  0  0  0  0
   43.1952  -24.0058   36.8819 C   0  0  0  0  0  0  0  0  0  0  0  0
   42.3376  -24.4960   35.9259 C   0  0  0  0  0  0  0  0  0  0  0  0
   41.4387  -23.6557   35.2921 C   0  0  0  0  0  0  0  0  0  0  0  0
   41.3594  -22.3089   35.5821 C   0  0  0  0  0  0  0  0  0  0  0  0
   40.4579  -21.4835   34.9417 C   0  0  0  0  0  0  0  0  0  0  0  0
   37.6140  -19.4423   37.3901 C   0  0  0  0  0  0  0  0  0  0  0  0
   37.9854  -20.8228   37.5910 C   0  0  0  0  0  0  0  0  0  0  0  0
   38.9218  -21.1538   38.5523 C   0  0  0  0  0  0  0  0  0  0  0  0
   39.3484  -22.4286   38.8178 C   0  0  0  0  0  0  0  0  0  0  0  0
   38.8003  -23.4498   38.0690 C   0  0  0  0  0  0  0  0  0  0  0  0
   37.8688  -23.2087   37.0994 C   0  0  0  0  0  0  0  0  0  0  0  0
   37.4764  -21.9061   36.8750 C   0  0  0  0  0  0  0  0  0  0  0  0
   37.3176  -24.3285   36.3334 C   0  0  0  0  0  0  0  0  0  0  0  0
   35.9059  -24.4575   36.2321 N   0  0  0  0  0  0  0  0  0  0  0  0
   38.0718  -25.1951   35.7513 N   0  0  0  0  0  0  0  0  0  0  0  0
   35.2981  -23.6858   35.8624 H   0  0  0  0  0  0  0  0  0  0  0  0
   35.3952  -25.3345   36.5230 H   0  0  0  0  0  0  0  0  0  0  0  0
   37.6453  -25.9623   35.2261 H   0  0  0  0  0  0  0  0  0  0  0  0
  2  3  1  0  0  0
  3  4  1  0  0  0
  4  5  1  0  0  0
  5  6  1  0  0  0
  6  7  1  0  0  0
  7  8  1  0  0  0
  6  9  1  0  0  0
  9 10  2  0  0  0
  9  1  1  0  0  0
  1 26  1  0  0  0
 26 27  1  0  0  0
 27 28  2  0  0  0
 28 29  1  0  0  0
 29 30  2  0  0  0
 30 31  1  0  0  0
 31 32  2  0  0  0
 31 33  1  0  0  0
 33 34  1  0  0  0
 33 35  2  0  0  0
  1 11  1  0  0  0
 11 13  1  0  0  0
 13 14  2  0  0  0
 13 15  2  0  0  0
 13 16  1  0  0  0
 16 17  2  0  0  0
 17 18  1  0  0  0
 18 19  2  0  0  0
 19 20  1  0  0  0
 20 21  2  0  0  0
 21 22  1  0  0  0
 22 23  2  0  0  0
 23 24  1  0  0  0
 24 25  2  0  0  0
  8  3  1  0  0  0
 32 27  1  0  0  0
 25 16  1  0  0  0
 24 19  1  0  0  0
 34 36  1  0  0  0
 34 37  1  0  0  0
 35 38  1  0  0  0
 11 12  1  0  0  0
M  END
> <minimizedAffinity>
-5.04954

> <CNNscore>
0.2462914288

> <CNNaffinity>
4.8560662270

> <CNN_VS>
1.1960074902

> <CNNaffinity_variance>
0.2664813399

$$$$
[H]N=C(c1c([H])c([H])c([H])c(C([H])([H])C([H])(C(=O)N2C([H])([H])C([H])([H])N(C([H])([H])[H])C([H])([H])C2([H])[H])N([H])S(=O)(=O)c2c([H])c([H])c3c([H])c([H])c([H])c([H])c3c2[H])c1[H])N([H])[H]


 38 41  0  0  0  0  0  0  0  0999 V2000
   35.5691  -18.9234   36.6179 C   0  0  0  0  0  0  0  0  0  0  0  0
   31.3455  -23.0955   34.2796 C   0  0  0  0  0  0  0  0  0  0  0  0
   31.7274  -21.9106   35.0350 N   0  0  0  0  0  0  0  0  0  0  0  0
   32.8570  -21.2703   34.3877 C   0  0  0  0  0  0  0  0  0  0  0  0
   33.1747  -19.9936   35.1706 C   0  0  0  0  0  0  0  0  0  0  0  0
   33.4524  -20.2714   36.5563 N   0  0  0  0  0  0  0  0  0  0  0  0
   32.4581  -21.1525   37.2015 C   0  0  0  0  0  0  0  0  0  0  0  0
   32.2191  -22.3753   36.3386 C   0  0  0  0  0  0  0  0  0  0  0  0
   34.5592  -19.7635   37.2509 C   0  0  0  0  0  0  0  0  0  0  0  0
   34.6105  -20.0962   38.4914 O   0  0  0  0  0  0  0  0  0  0  0  0
   36.2680  -19.8435   35.6717 N   0  0  0  0  0  0  0  0  0  0  0  0
   36.6803  -19.3192   34.8921 H   0  0  0  0  0  0  0  0  0  0  0  0
   37.4304  -20.8204   36.3851 S   0  0  0  0  0  0  0  0  0  0  0  0
   38.0211  -20.0474   37.5550 O   0  0  0  0  0  0  0  0  0  0  0  0
   36.9047  -22.0981   36.9701 O   0  0  0  0  0  0  0  0  0  0  0  0
   38.7696  -21.2566   35.3431 C   0  0  0  0  0  0  0  0  0  0  0  0
   39.6066  -20.3207   34.7675 C   0  0  0  0  0  0  0  0  0  0  0  0
   40.6600  -20.6753   33.9476 C   0  0  0  0  0  0  0  0  0  0  0  0
   40.9267  -21.9951   33.6633 C   0  0  0  0  0  0  0  0  0  0  0  0
   41.9841  -22.3732   32.8390 C   0  0  0  0  0  0  0  0  0  0  0  0
   42.2463  -23.6988   32.5579 C   0  0  0  0  0  0  0  0  0  0  0  0
   41.4250  -24.6465   33.1209 C   0  0  0  0  0  0  0  0  0  0  0  0
   40.3749  -24.2683   33.9396 C   0  0  0  0  0  0  0  0  0  0  0  0
   40.1044  -22.9460   34.2268 C   0  0  0  0  0  0  0  0  0  0  0  0
   39.0538  -22.5843   35.0450 C   0  0  0  0  0  0  0  0  0  0  0  0
   35.0702  -17.7432   35.8713 C   0  0  0  0  0  0  0  0  0  0  0  0
   35.2551  -16.4069   36.3853 C   0  0  0  0  0  0  0  0  0  0  0  0
   36.3928  -16.0945   37.1055 C   0  0  0  0  0  0  0  0  0  0  0  0
   36.6615  -14.8624   37.6415 C   0  0  0  0  0  0  0  0  0  0  0  0
   35.7262  -13.8672   37.4445 C   0  0  0  0  0  0  0  0  0  0  0  0
   34.5751  -14.0925   36.7443 C   0  0  0  0  0  0  0  0  0  0  0  0
   34.3566  -15.3519   36.2273 C   0  0  0  0  0  0  0  0  0  0  0  0
   33.6151  -13.0016   36.5632 C   0  0  0  0  0  0  0  0  0  0  0  0
   33.9686  -11.6995   37.0099 N   0  0  0  0  0  0  0  0  0  0  0  0
   32.4656  -13.1873   36.0129 N   0  0  0  0  0  0  0  0  0  0  0  0
   34.8394  -11.2128   36.6838 H   0  0  0  0  0  0  0  0  0  0  0  0
   33.3751  -11.1546   37.6921 H   0  0  0  0  0  0  0  0  0  0  0  0
   31.8247  -12.3973   35.9057 H   0  0  0  0  0  0  0  0  0  0  0  0
  2  3  1  0  0  0
  3  4  1  0  0  0
  4  5  1  0  0  0
  5  6  1  0  0  0
  6  7  1  0  0  0
  7  8  1  0  0  0
  6  9  1  0  0  0
  9 10  2  0  0  0
  9  1  1  0  0  0
  1 26  1  0  0  0
 26 27  1  0  0  0
 27 28  2  0  0  0
 28 29  1  0  0  0
 29 30  2  0  0  0
 30 31  1  0  0  0
 31 32  2  0  0  0
 31 33  1  0  0  0
 33 34  1  0  0  0
 33 35  2  0  0  0
  1 11  1  0  0  0
 11 13  1  0  0  0
 13 14  2  0  0  0
 13 15  2  0  0  0
 13 16  1  0  0  0
 16 17  2  0  0  0
 17 18  1  0  0  0
 18 19  2  0  0  0
 19 20  1  0  0  0
 20 21  2  0  0  0
 21 22  1  0  0  0
 22 23  2  0  0  0
 23 24  1  0  0  0
 24 25  2  0  0  0
  8  3  1  0  0  0
 32 27  1  0  0  0
 25 16  1  0  0  0
 24 19  1  0  0  0
 34 36  1  0  0  0
 34 37  1  0  0  0
 35 38  1  0  0  0
 11 12  1  0  0  0
M  END
> <minimizedAffinity>
-7.37815

> <CNNscore>
0.2254430801

> <CNNaffinity>
5.3252487183

> <CNN_VS>
1.2005404234

> <CNNaffinity_variance>
0.1916284859

$$$$
[H]N=C(c1c([H])c([H])c([H])c(C([H])([H])C([H])(C(=O)N2C([H])([H])C([H])([H])N(C([H])([H])[H])C([H])([H])C2([H])[H])N([H])S(=O)(=O)c2c([H])c([H])c3c([H])c([H])c([H])c([H])c3c2[H])c1[H])N([H])[H]


 38 41  0  0  0  0  0  0  0  0999 V2000
   36.4862  -19.5567   36.0321 C   0  0  0  0  0  0  0  0  0  0  0  0
   42.7319  -20.4866   35.1157 C   0  0  0  0  0  0  0  0  0  0  0  0
   41.5131  -19.6906   35.0827 N   0  0  0  0  0  0  0  0  0  0  0  0
   40.6777  -20.0421   36.2157 C   0  0  0  0  0  0  0  0  0  0  0  0
   39.4476  -19.1313   36.1823 C   0  0  0  0  0  0  0  0  0  0  0  0
   38.7265  -19.2520   34.9414 N   0  0  0  0  0  0  0  0  0  0  0  0
   39.5823  -19.1676   33.7407 C   0  0  0  0  0  0  0  0  0  0  0  0
   40.7661  -20.1025   33.8871 C   0  0  0  0  0  0  0  0  0  0  0  0
   37.3391  -19.4338   34.8557 C   0  0  0  0  0  0  0  0  0  0  0  0
   36.8791  -19.4811   33.6564 O   0  0  0  0  0  0  0  0  0  0  0  0
   36.8874  -20.8611   36.6387 N   0  0  0  0  0  0  0  0  0  0  0  0
   37.8288  -20.8006   37.0421 H   0  0  0  0  0  0  0  0  0  0  0  0
   35.8110  -21.4558   37.7799 S   0  0  0  0  0  0  0  0  0  0  0  0
   36.1477  -22.9226   38.0042 O   0  0  0  0  0  0  0  0  0  0  0  0
   35.9057  -20.8090   39.1304 O   0  0  0  0  0  0  0  0  0  0  0  0
   34.1249  -21.3934   37.3082 C   0  0  0  0  0  0  0  0  0  0  0  0
   33.2035  -22.3478   37.6928 C   0  0  0  0  0  0  0  0  0  0  0  0
   31.8762  -22.2890   37.3156 C   0  0  0  0  0  0  0  0  0  0  0  0
   31.4054  -21.2628   36.5288 C   0  0  0  0  0  0  0  0  0  0  0  0
   30.0705  -21.1855   36.1379 C   0  0  0  0  0  0  0  0  0  0  0  0
   29.6047  -20.1534   35.3487 C   0  0  0  0  0  0  0  0  0  0  0  0
   30.5056  -19.1926   34.9549 C   0  0  0  0  0  0  0  0  0  0  0  0
   31.8313  -19.2716   35.3447 C   0  0  0  0  0  0  0  0  0  0  0  0
   32.3070  -20.2992   36.1334 C   0  0  0  0  0  0  0  0  0  0  0  0
   33.6317  -20.3644   36.5140 C   0  0  0  0  0  0  0  0  0  0  0  0
   36.6113  -18.4863   37.0508 C   0  0  0  0  0  0  0  0  0  0  0  0
   36.1050  -17.1581   36.7984 C   0  0  0  0  0  0  0  0  0  0  0  0
   34.8659  -16.9912   36.2092 C   0  0  0  0  0  0  0  0  0  0  0  0
   34.2977  -15.7781   35.9207 C   0  0  0  0  0  0  0  0  0  0  0  0
   35.0186  -14.6469   36.2442 C   0  0  0  0  0  0  0  0  0  0  0  0
   36.2507  -14.7239   36.8289 C   0  0  0  0  0  0  0  0  0  0  0  0
   36.7740  -15.9712   37.0965 C   0  0  0  0  0  0  0  0  0  0  0  0
   36.9743  -13.4926   37.1529 C   0  0  0  0  0  0  0  0  0  0  0  0
   38.0498  -13.5562   38.0798 N   0  0  0  0  0  0  0  0  0  0  0  0
   36.6658  -12.3596   36.6242 N   0  0  0  0  0  0  0  0  0  0  0  0
   38.8670  -14.2010   37.9460 H   0  0  0  0  0  0  0  0  0  0  0  0
   38.0830  -12.9596   38.9502 H   0  0  0  0  0  0  0  0  0  0  0  0
   37.1974  -11.5235   36.8784 H   0  0  0  0  0  0  0  0  0  0  0  0
  2  3  1  0  0  0
  3  4  1  0  0  0
  4  5  1  0  0  0
  5  6  1  0  0  0
  6  7  1  0  0  0
  7  8  1  0  0  0
  6  9  1  0  0  0
  9 10  2  0  0  0
  9  1  1  0  0  0
  1 26  1  0  0  0
 26 27  1  0  0  0
 27 28  2  0  0  0
 28 29  1  0  0  0
 29 30  2  0  0  0
 30 31  1  0  0  0
 31 32  2  0  0  0
 31 33  1  0  0  0
 33 34  1  0  0  0
 33 35  2  0  0  0
  1 11  1  0  0  0
 11 13  1  0  0  0
 13 14  2  0  0  0
 13 15  2  0  0  0
 13 16  1  0  0  0
 16 17  2  0  0  0
 17 18  1  0  0  0
 18 19  2  0  0  0
 19 20  1  0  0  0
 20 21  2  0  0  0
 21 22  1  0  0  0
 22 23  2  0  0  0
 23 24  1  0  0  0
 24 25  2  0  0  0
  8  3  1  0  0  0
 32 27  1  0  0  0
 25 16  1  0  0  0
 24 19  1  0  0  0
 34 36  1  0  0  0
 34 37  1  0  0  0
 35 38  1  0  0  0
 11 12  1  0  0  0
M  END
> <minimizedAffinity>
-7.53061

> <CNNscore>
0.2001515478

> <CNNaffinity>
5.3750567436

> <CNN_VS>
1.0758259296

> <CNNaffinity_variance>
0.7406162620

$$$$
[H]c1nc(C(=O)[C@@]([H])(N([H])C(=O)[C@@]2([H])N(C(=O)[C@]([H])(N([H])C(=O)OC([H])([H])c3c([H])c([H])c([H])c([H])c3[H])C([H])([H])c3c([H])c([H])c([H])c([H])c3[H])C([H])([H])C([H])([H])C2([H])[H])C([H])([H])C([H])([H])C([H])([H])N=C(N([H])[H])N([H])[H])sc1[H]


 50 53  0  0  0  0  0  0  0  0999 V2000
   39.5886  -19.6036   34.7140 C   0  0  0  0  0  0  0  0  0  0  0  0
   39.6975  -20.6650   33.6035 C   0  0  0  0  0  0  0  0  0  0  0  0
   40.7283  -19.9775   32.6944 C   0  0  0  0  0  0  0  0  0  0  0  0
   41.1222  -18.7018   33.4145 C   0  0  0  0  0  0  0  0  0  0  0  0
   40.9493  -19.2537   34.8350 N   0  0  0  0  0  0  0  0  0  0  0  0
   42.0383  -19.2993   35.7067 C   0  0  0  0  0  0  0  0  0  0  0  0
   43.1073  -18.6913   35.2403 O   0  0  0  0  0  0  0  0  0  0  0  0
   37.5450  -19.1772   36.0081 N   0  0  0  0  0  0  0  0  0  0  0  0
   38.7413  -19.9891   35.7913 C   0  0  0  0  0  0  0  0  0  0  0  0
   38.8380  -20.9163   36.6059 O   0  0  0  0  0  0  0  0  0  0  0  0
   37.4044  -18.3836   35.3650 H   0  0  0  0  0  0  0  0  0  0  0  0
   36.6067  -19.4824   37.0802 C   0  0  0  0  0  0  0  0  0  0  0  0
   35.4572  -20.2501   36.6043 C   0  0  0  0  0  0  0  0  0  0  0  0
   35.3726  -21.5017   36.8554 O   0  0  0  0  0  0  0  0  0  0  0  0
   34.3344  -19.6933   35.8314 C   0  0  0  0  0  0  0  0  0  0  0  0
   34.4224  -18.9225   34.7594 N   0  0  0  0  0  0  0  0  0  0  0  0
   33.3579  -18.5150   34.1624 C   0  0  0  0  0  0  0  0  0  0  0  0
   32.1438  -18.9084   34.6779 C   0  0  0  0  0  0  0  0  0  0  0  0
   32.6425  -19.8565   36.0136 S   0  0  0  0  0  0  0  0  0  0  0  0
   36.1366  -18.1837   37.7253 C   0  0  0  0  0  0  0  0  0  0  0  0
   36.6637  -17.0204   36.9528 C   0  0  0  0  0  0  0  0  0  0  0  0
   36.2290  -15.6926   37.5989 C   0  0  0  0  0  0  0  0  0  0  0  0
   36.1582  -13.0853   36.4225 N   0  0  0  0  0  0  0  0  0  0  0  0
   37.3149  -13.6174   37.0458 C   0  0  0  0  0  0  0  0  0  0  0  0
   38.4872  -12.8187   37.0834 N   0  0  0  0  0  0  0  0  0  0  0  0
   37.3210  -14.7740   37.5591 N   0  0  0  0  0  0  0  0  0  0  0  0
   35.8539  -12.1094   36.6403 H   0  0  0  0  0  0  0  0  0  0  0  0
   35.6038  -13.6341   35.7559 H   0  0  0  0  0  0  0  0  0  0  0  0
   38.7372  -12.2027   37.9050 H   0  0  0  0  0  0  0  0  0  0  0  0
   39.1823  -12.7936   36.2865 H   0  0  0  0  0  0  0  0  0  0  0  0
   42.2162  -19.8898   37.0244 C   0  0  0  0  0  0  0  0  0  0  0  0
   41.7577  -21.3076   37.0304 N   0  0  0  0  0  0  0  0  0  0  0  0
   42.6198  -22.3384   37.4524 C   0  0  0  0  0  0  0  0  0  0  0  0
   43.7934  -22.0122   37.8215 O   0  0  0  0  0  0  0  0  0  0  0  0
   40.7934  -21.5600   36.7250 H   0  0  0  0  0  0  0  0  0  0  0  0
   42.3260  -23.6776   37.5110 O   0  0  0  0  0  0  0  0  0  0  0  0
   42.5192  -24.4525   38.6845 C   0  0  0  0  0  0  0  0  0  0  0  0
   41.4948  -24.0606   39.6855 C   0  0  0  0  0  0  0  0  0  0  0  0
   41.8078  -23.9171   41.0205 C   0  0  0  0  0  0  0  0  0  0  0  0
   40.8615  -23.5506   41.9357 C   0  0  0  0  0  0  0  0  0  0  0  0
   39.5735  -23.3217   41.5096 C   0  0  0  0  0  0  0  0  0  0  0  0
   39.2163  -23.4564   40.1641 C   0  0  0  0  0  0  0  0  0  0  0  0
   40.1965  -23.8283   39.2659 C   0  0  0  0  0  0  0  0  0  0  0  0
   41.2721  -19.2575   38.0521 C   0  0  0  0  0  0  0  0  0  0  0  0
   41.8136  -19.3867   39.4212 C   0  0  0  0  0  0  0  0  0  0  0  0
   43.0392  -18.8134   39.6907 C   0  0  0  0  0  0  0  0  0  0  0  0
   43.6384  -18.8696   40.9372 C   0  0  0  0  0  0  0  0  0  0  0  0
   42.9851  -19.5247   41.9519 C   0  0  0  0  0  0  0  0  0  0  0  0
   41.7593  -20.1041   41.7015 C   0  0  0  0  0  0  0  0  0  0  0  0
   41.1642  -20.0413   40.4393 C   0  0  0  0  0  0  0  0  0  0  0  0
 23 24  1  0  0  0
 24 25  1  0  0  0
 24 26  2  0  0  0
 26 22  1  0  0  0
 22 21  1  0  0  0
 21 20  1  0  0  0
 20 12  1  0  0  0
 12  8  1  0  0  0
  8  9  1  0  0  0
  9 10  2  0  0  0
  9  1  1  0  0  0
  1  2  1  0  0  0
  2  3  1  0  0  0
  3  4  1  0  0  0
  4  5  1  0  0  0
  5  6  1  0  0  0
  6  7  2  0  0  0
  6 31  1  0  0  0
 31 44  1  0  0  0
 44 45  1  0  0  0
 45 46  2  0  0  0
 46 47  1  0  0  0
 47 48  2  0  0  0
 48 49  1  0  0  0
 49 50  2  0  0  0
 31 32  1  0  0  0
 32 33  1  0  0  0
 33 34  2  0  0  0
 33 36  1  0  0  0
 36 37  1  0  0  0
 37 38  1  0  0  0
 38 39  2  0  0  0
 39 40  1  0  0  0
 40 41  2  0  0  0
 41 42  1  0  0  0
 42 43  2  0  0  0
 12 13  1  0  0  0
 13 14  2  0  0  0
 13 15  1  0  0  0
 15 16  2  0  0  0
 16 17  1  0  0  0
 17 18  2  0  0  0
 18 19  1  0  0  0
  5  1  1  0  0  0
 50 45  1  0  0  0
 43 38  1  0  0  0
 19 15  1  0  0  0
 23 27  1  0  0  0
 23 28  1  0  0  0
 25 29  1  0  0  0
 25 30  1  0  0  0
  8 11  1  0  0  0
 32 35  1  0  0  0
M  END
> <minimizedAffinity>
-5.56754

> <CNNscore>
0.3110089898

> <CNNaffinity>
6.4090890884

> <CNN_VS>
1.9932843447

> <CNNaffinity_variance>
0.5463329554

$$$$
[H]c1nc(C(=O)[C@@]([H])(N([H])C(=O)[C@@]2([H])N(C(=O)[C@]([H])(N([H])C(=O)OC([H])([H])c3c([H])c([H])c([H])c([H])c3[H])C([H])([H])c3c([H])c([H])c([H])c([H])c3[H])C([H])([H])C([H])([H])C2([H])[H])C([H])([H])C([H])([H])C([H])([H])N=C(N([H])[H])N([H])[H])sc1[H]


 50 53  0  0  0  0  0  0  0  0999 V2000
   36.6733  -19.9031   36.2836 C   0  0  0  0  0  0  0  0  0  0  0  0
   37.9583  -19.1122   36.5914 C   0  0  0  0  0  0  0  0  0  0  0  0
   38.4189  -18.8064   35.1576 C   0  0  0  0  0  0  0  0  0  0  0  0
   37.3382  -19.3673   34.2527 C   0  0  0  0  0  0  0  0  0  0  0  0
   36.1718  -19.1262   35.2190 N   0  0  0  0  0  0  0  0  0  0  0  0
   35.1195  -18.2863   34.8518 C   0  0  0  0  0  0  0  0  0  0  0  0
   35.1733  -17.8989   33.5960 O   0  0  0  0  0  0  0  0  0  0  0  0
   35.7094  -21.7042   37.6475 N   0  0  0  0  0  0  0  0  0  0  0  0
   35.9392  -20.2746   37.4456 C   0  0  0  0  0  0  0  0  0  0  0  0
   35.4418  -19.5838   38.3445 O   0  0  0  0  0  0  0  0  0  0  0  0
   36.0952  -22.3381   36.9314 H   0  0  0  0  0  0  0  0  0  0  0  0
   34.9725  -22.1969   38.8037 C   0  0  0  0  0  0  0  0  0  0  0  0
   35.8417  -22.8782   39.7616 C   0  0  0  0  0  0  0  0  0  0  0  0
   35.5780  -24.0748   40.1298 O   0  0  0  0  0  0  0  0  0  0  0  0
   37.0491  -22.2927   40.3675 C   0  0  0  0  0  0  0  0  0  0  0  0
   38.1509  -21.9277   39.7320 N   0  0  0  0  0  0  0  0  0  0  0  0
   39.1339  -21.4087   40.3802 C   0  0  0  0  0  0  0  0  0  0  0  0
   38.9928  -21.2521   41.7404 C   0  0  0  0  0  0  0  0  0  0  0  0
   37.4186  -21.8795   41.9847 S   0  0  0  0  0  0  0  0  0  0  0  0
   33.8702  -23.1403   38.3359 C   0  0  0  0  0  0  0  0  0  0  0  0
   32.5421  -22.6129   38.7671 C   0  0  0  0  0  0  0  0  0  0  0  0
   32.0640  -23.3173   40.0496 C   0  0  0  0  0  0  0  0  0  0  0  0
   30.4664  -23.2162   42.4211 N   0  0  0  0  0  0  0  0  0  0  0  0
   29.9087  -23.2615   41.1186 C   0  0  0  0  0  0  0  0  0  0  0  0
   28.4955  -23.2587   40.9909 N   0  0  0  0  0  0  0  0  0  0  0  0
   30.6369  -23.3058   40.0848 N   0  0  0  0  0  0  0  0  0  0  0  0
   30.0999  -22.5298   43.1189 H   0  0  0  0  0  0  0  0  0  0  0  0
   31.2273  -23.8438   42.7042 H   0  0  0  0  0  0  0  0  0  0  0  0
   27.9338  -22.3766   40.8372 H   0  0  0  0  0  0  0  0  0  0  0  0
   27.9194  -24.1442   41.0428 H   0  0  0  0  0  0  0  0  0  0  0  0
   33.9820  -17.7587   35.5897 C   0  0  0  0  0  0  0  0  0  0  0  0
   32.7021  -18.1978   34.9656 N   0  0  0  0  0  0  0  0  0  0  0  0
   32.0850  -19.3994   35.3642 C   0  0  0  0  0  0  0  0  0  0  0  0
   32.6608  -20.0875   36.2670 O   0  0  0  0  0  0  0  0  0  0  0  0
   32.2420  -17.6239   34.2268 H   0  0  0  0  0  0  0  0  0  0  0  0
   30.9106  -19.9163   34.8777 O   0  0  0  0  0  0  0  0  0  0  0  0
   29.6509  -19.6459   35.4734 C   0  0  0  0  0  0  0  0  0  0  0  0
   29.1044  -20.9127   36.0227 C   0  0  0  0  0  0  0  0  0  0  0  0
   29.4728  -22.1392   35.5122 C   0  0  0  0  0  0  0  0  0  0  0  0
   28.9706  -23.3015   36.0260 C   0  0  0  0  0  0  0  0  0  0  0  0
   28.0806  -23.2391   37.0734 C   0  0  0  0  0  0  0  0  0  0  0  0
   27.6822  -22.0145   37.6192 C   0  0  0  0  0  0  0  0  0  0  0  0
   28.2085  -20.8595   37.0763 C   0  0  0  0  0  0  0  0  0  0  0  0
   33.8842  -16.2359   35.4518 C   0  0  0  0  0  0  0  0  0  0  0  0
   34.9565  -15.5633   36.2148 C   0  0  0  0  0  0  0  0  0  0  0  0
   35.1178  -14.2036   36.0457 C   0  0  0  0  0  0  0  0  0  0  0  0
   36.0860  -13.4722   36.7118 C   0  0  0  0  0  0  0  0  0  0  0  0
   36.9239  -14.1276   37.5800 C   0  0  0  0  0  0  0  0  0  0  0  0
   36.7780  -15.4865   37.7619 C   0  0  0  0  0  0  0  0  0  0  0  0
   35.7974  -16.2145   37.0841 C   0  0  0  0  0  0  0  0  0  0  0  0
 23 24  1  0  0  0
 24 25  1  0  0  0
 24 26  2  0  0  0
 26 22  1  0  0  0
 22 21  1  0  0  0
 21 20  1  0  0  0
 20 12  1  0  0  0
 12  8  1  0  0  0
  8  9  1  0  0  0
  9 10  2  0  0  0
  9  1  1  0  0  0
  1  2  1  0  0  0
  2  3  1  0  0  0
  3  4  1  0  0  0
  4  5  1  0  0  0
  5  6  1  0  0  0
  6  7  2  0  0  0
  6 31  1  0  0  0
 31 44  1  0  0  0
 44 45  1  0  0  0
 45 46  2  0  0  0
 46 47  1  0  0  0
 47 48  2  0  0  0
 48 49  1  0  0  0
 49 50  2  0  0  0
 31 32  1  0  0  0
 32 33  1  0  0  0
 33 34  2  0  0  0
 33 36  1  0  0  0
 36 37  1  0  0  0
 37 38  1  0  0  0
 38 39  2  0  0  0
 39 40  1  0  0  0
 40 41  2  0  0  0
 41 42  1  0  0  0
 42 43  2  0  0  0
 12 13  1  0  0  0
 13 14  2  0  0  0
 13 15  1  0  0  0
 15 16  2  0  0  0
 16 17  1  0  0  0
 17 18  2  0  0  0
 18 19  1  0  0  0
  5  1  1  0  0  0
 50 45  1  0  0  0
 43 38  1  0  0  0
 19 15  1  0  0  0
 23 27  1  0  0  0
 23 28  1  0  0  0
 25 29  1  0  0  0
 25 30  1  0  0  0
  8 11  1  0  0  0
 32 35  1  0  0  0
M  END
> <minimizedAffinity>
-6.13746

> <CNNscore>
0.3046158552

> <CNNaffinity>
6.0909457207

> <CNN_VS>
1.8553986549

> <CNNaffinity_variance>
0.5509378314

$$$$
[H]c1nc(C(=O)[C@@]([H])(N([H])C(=O)[C@@]2([H])N(C(=O)[C@]([H])(N([H])C(=O)OC([H])([H])c3c([H])c([H])c([H])c([H])c3[H])C([H])([H])c3c([H])c([H])c([H])c([H])c3[H])C([H])([H])C([H])([H])C2([H])[H])C([H])([H])C([H])([H])C([H])([H])N=C(N([H])[H])N([H])[H])sc1[H]


 50 53  0  0  0  0  0  0  0  0999 V2000
   36.8774  -19.5205   36.2810 C   0  0  0  0  0  0  0  0  0  0  0  0
   37.5660  -18.1627   36.0496 C   0  0  0  0  0  0  0  0  0  0  0  0
   37.8535  -18.2761   34.5442 C   0  0  0  0  0  0  0  0  0  0  0  0
   37.2427  -19.5950   34.1096 C   0  0  0  0  0  0  0  0  0  0  0  0
   36.0853  -19.5807   35.1158 N   0  0  0  0  0  0  0  0  0  0  0  0
   34.7645  -19.5776   34.6650 C   0  0  0  0  0  0  0  0  0  0  0  0
   34.6549  -19.7515   33.3659 O   0  0  0  0  0  0  0  0  0  0  0  0
   36.7357  -20.9606   38.2657 N   0  0  0  0  0  0  0  0  0  0  0  0
   36.3979  -19.6985   37.6096 C   0  0  0  0  0  0  0  0  0  0  0  0
   35.7225  -18.9549   38.3333 O   0  0  0  0  0  0  0  0  0  0  0  0
   37.2956  -21.6296   37.7160 H   0  0  0  0  0  0  0  0  0  0  0  0
   36.2990  -21.2478   39.6257 C   0  0  0  0  0  0  0  0  0  0  0  0
   37.4060  -21.6698   40.4822 C   0  0  0  0  0  0  0  0  0  0  0  0
   37.1703  -22.1799   41.6315 O   0  0  0  0  0  0  0  0  0  0  0  0
   38.8316  -21.5619   40.1300 C   0  0  0  0  0  0  0  0  0  0  0  0
   39.4027  -21.9962   39.0181 N   0  0  0  0  0  0  0  0  0  0  0  0
   40.6628  -21.8225   38.8236 C   0  0  0  0  0  0  0  0  0  0  0  0
   41.3795  -21.1766   39.8052 C   0  0  0  0  0  0  0  0  0  0  0  0
   40.1535  -20.8629   40.9585 S   0  0  0  0  0  0  0  0  0  0  0  0
   35.2227  -22.3268   39.5936 C   0  0  0  0  0  0  0  0  0  0  0  0
   33.8776  -21.6984   39.7469 C   0  0  0  0  0  0  0  0  0  0  0  0
   33.4229  -21.7311   41.2172 C   0  0  0  0  0  0  0  0  0  0  0  0
   35.1542  -20.8009   43.2966 N   0  0  0  0  0  0  0  0  0  0  0  0
   34.1992  -19.9687   42.6603 C   0  0  0  0  0  0  0  0  0  0  0  0
   34.0999  -18.6163   43.0782 N   0  0  0  0  0  0  0  0  0  0  0  0
   33.4445  -20.4039   41.7426 N   0  0  0  0  0  0  0  0  0  0  0  0
   36.1300  -20.4551   43.4402 H   0  0  0  0  0  0  0  0  0  0  0  0
   34.9151  -21.7431   43.6250 H   0  0  0  0  0  0  0  0  0  0  0  0
   34.6123  -17.8267   42.5975 H   0  0  0  0  0  0  0  0  0  0  0  0
   33.5040  -18.3187   43.9000 H   0  0  0  0  0  0  0  0  0  0  0  0
   33.4931  -19.4172   35.3539 C   0  0  0  0  0  0  0  0  0  0  0  0
   33.5136  -18.2032   36.2177 N   0  0  0  0  0  0  0  0  0  0  0  0
   33.4630  -16.9163   35.6476 C   0  0  0  0  0  0  0  0  0  0  0  0
   33.4023  -16.8348   34.3788 O   0  0  0  0  0  0  0  0  0  0  0  0
   33.5638  -18.2853   37.2558 H   0  0  0  0  0  0  0  0  0  0  0  0
   33.4707  -15.7217   36.3229 O   0  0  0  0  0  0  0  0  0  0  0  0
   34.0643  -14.5467   35.7921 C   0  0  0  0  0  0  0  0  0  0  0  0
   35.3345  -14.2883   36.5166 C   0  0  0  0  0  0  0  0  0  0  0  0
   35.9267  -15.2539   37.3024 C   0  0  0  0  0  0  0  0  0  0  0  0
   37.0987  -15.0115   37.9619 C   0  0  0  0  0  0  0  0  0  0  0  0
   37.6940  -13.7777   37.8345 C   0  0  0  0  0  0  0  0  0  0  0  0
   37.1248  -12.7719   37.0466 C   0  0  0  0  0  0  0  0  0  0  0  0
   35.9404  -13.0498   36.3942 C   0  0  0  0  0  0  0  0  0  0  0  0
   33.2741  -20.5261   36.3880 C   0  0  0  0  0  0  0  0  0  0  0  0
   32.1828  -21.4322   35.9727 C   0  0  0  0  0  0  0  0  0  0  0  0
   30.9502  -21.2810   36.5738 C   0  0  0  0  0  0  0  0  0  0  0  0
   29.8579  -22.0708   36.2594 C   0  0  0  0  0  0  0  0  0  0  0  0
   30.0058  -23.0487   35.3068 C   0  0  0  0  0  0  0  0  0  0  0  0
   31.2302  -23.2149   34.6952 C   0  0  0  0  0  0  0  0  0  0  0  0
   32.3260  -22.4120   35.0207 C   0  0  0  0  0  0  0  0  0  0  0  0
 23 24  1  0  0  0
 24 25  1  0  0  0
 24 26  2  0  0  0
 26 22  1  0  0  0
 22 21  1  0  0  0
 21 20  1  0  0  0
 20 12  1  0  0  0
 12  8  1  0  0  0
  8  9  1  0  0  0
  9 10  2  0  0  0
  9  1  1  0  0  0
  1  2  1  0  0  0
  2  3  1  0  0  0
  3  4  1  0  0  0
  4  5  1  0  0  0
  5  6  1  0  0  0
  6  7  2  0  0  0
  6 31  1  0  0  0
 31 44  1  0  0  0
 44 45  1  0  0  0
 45 46  2  0  0  0
 46 47  1  0  0  0
 47 48  2  0  0  0
 48 49  1  0  0  0
 49 50  2  0  0  0
 31 32  1  0  0  0
 32 33  1  0  0  0
 33 34  2  0  0  0
 33 36  1  0  0  0
 36 37  1  0  0  0
 37 38  1  0  0  0
 38 39  2  0  0  0
 39 40  1  0  0  0
 40 41  2  0  0  0
 41 42  1  0  0  0
 42 43  2  0  0  0
 12 13  1  0  0  0
 13 14  2  0  0  0
 13 15  1  0  0  0
 15 16  2  0  0  0
 16 17  1  0  0  0
 17 18  2  0  0  0
 18 19  1  0  0  0
  5  1  1  0  0  0
 50 45  1  0  0  0
 43 38  1  0  0  0
 19 15  1  0  0  0
 23 27  1  0  0  0
 23 28  1  0  0  0
 25 29  1  0  0  0
 25 30  1  0  0  0
  8 11  1  0  0  0
 32 35  1  0  0  0
M  END
> <minimizedAffinity>
-5.58909

> <CNNscore>
0.2789080441

> <CNNaffinity>
6.0840129852

> <CNN_VS>
1.6968802214

> <CNNaffinity_variance>
0.1854408234

$$$$
[H]c1nc(C(=O)[C@@]([H])(N([H])C(=O)[C@@]2([H])N(C(=O)[C@]([H])(N([H])C(=O)OC([H])([H])c3c([H])c([H])c([H])c([H])c3[H])C([H])([H])c3c([H])c([H])c([H])c([H])c3[H])C([H])([H])C([H])([H])C2([H])[H])C([H])([H])C([H])([H])C([H])([H])N=C(N([H])[H])N([H])[H])sc1[H]


 50 53  0  0  0  0  0  0  0  0999 V2000
   36.8595  -19.9335   36.4335 C   0  0  0  0  0  0  0  0  0  0  0  0
   38.0979  -19.0444   36.6510 C   0  0  0  0  0  0  0  0  0  0  0  0
   38.5765  -18.9141   35.1964 C   0  0  0  0  0  0  0  0  0  0  0  0
   37.5449  -19.6466   34.3595 C   0  0  0  0  0  0  0  0  0  0  0  0
   36.3464  -19.3350   35.2643 N   0  0  0  0  0  0  0  0  0  0  0  0
   35.2641  -18.6070   34.7681 C   0  0  0  0  0  0  0  0  0  0  0  0
   35.3284  -18.3921   33.4721 O   0  0  0  0  0  0  0  0  0  0  0  0
   36.2110  -21.5245   38.1889 N   0  0  0  0  0  0  0  0  0  0  0  0
   36.1172  -20.1796   37.6233 C   0  0  0  0  0  0  0  0  0  0  0  0
   35.3807  -19.4376   38.2865 O   0  0  0  0  0  0  0  0  0  0  0  0
   36.8072  -22.1963   37.6825 H   0  0  0  0  0  0  0  0  0  0  0  0
   35.4951  -21.8861   39.4052 C   0  0  0  0  0  0  0  0  0  0  0  0
   34.0621  -22.0565   39.1710 C   0  0  0  0  0  0  0  0  0  0  0  0
   33.2170  -21.3449   39.8162 O   0  0  0  0  0  0  0  0  0  0  0  0
   33.4724  -23.0102   38.2167 C   0  0  0  0  0  0  0  0  0  0  0  0
   33.4468  -22.8911   36.8990 N   0  0  0  0  0  0  0  0  0  0  0  0
   32.9131  -23.8100   36.1734 C   0  0  0  0  0  0  0  0  0  0  0  0
   32.3787  -24.9038   36.8155 C   0  0  0  0  0  0  0  0  0  0  0  0
   32.6941  -24.5138   38.4526 S   0  0  0  0  0  0  0  0  0  0  0  0
   35.7274  -20.8158   40.4655 C   0  0  0  0  0  0  0  0  0  0  0  0
   36.5115  -21.3924   41.5970 C   0  0  0  0  0  0  0  0  0  0  0  0
   35.6761  -21.4072   42.8899 C   0  0  0  0  0  0  0  0  0  0  0  0
   32.8353  -21.7271   42.7705 N   0  0  0  0  0  0  0  0  0  0  0  0
   33.7265  -22.8175   42.9322 C   0  0  0  0  0  0  0  0  0  0  0  0
   33.1807  -24.1228   43.0415 N   0  0  0  0  0  0  0  0  0  0  0  0
   34.9798  -22.6500   42.9822 N   0  0  0  0  0  0  0  0  0  0  0  0
   32.0586  -21.7907   42.0739 H   0  0  0  0  0  0  0  0  0  0  0  0
   32.9291  -20.8672   43.3225 H   0  0  0  0  0  0  0  0  0  0  0  0
   33.0695  -24.7707   42.2139 H   0  0  0  0  0  0  0  0  0  0  0  0
   32.8514  -24.5247   43.9628 H   0  0  0  0  0  0  0  0  0  0  0  0
   34.0860  -18.0416   35.4078 C   0  0  0  0  0  0  0  0  0  0  0  0
   32.8427  -18.5941   34.8002 N   0  0  0  0  0  0  0  0  0  0  0  0
   32.0249  -19.4838   35.5235 C   0  0  0  0  0  0  0  0  0  0  0  0
   32.3894  -19.7944   36.7028 O   0  0  0  0  0  0  0  0  0  0  0  0
   32.5566  -18.3308   33.8328 H   0  0  0  0  0  0  0  0  0  0  0  0
   30.8582  -20.0602   35.0880 O   0  0  0  0  0  0  0  0  0  0  0  0
   29.6091  -19.8330   35.7229 C   0  0  0  0  0  0  0  0  0  0  0  0
   29.0380  -21.1425   36.1280 C   0  0  0  0  0  0  0  0  0  0  0  0
   29.4661  -22.3236   35.5602 C   0  0  0  0  0  0  0  0  0  0  0  0
   28.9404  -23.5258   35.9417 C   0  0  0  0  0  0  0  0  0  0  0  0
   27.9653  -23.5506   36.9121 C   0  0  0  0  0  0  0  0  0  0  0  0
   27.5045  -22.3744   37.5123 C   0  0  0  0  0  0  0  0  0  0  0  0
   28.0566  -21.1770   37.1035 C   0  0  0  0  0  0  0  0  0  0  0  0
   33.9430  -16.5485   35.0957 C   0  0  0  0  0  0  0  0  0  0  0  0
   34.6919  -15.7277   36.0704 C   0  0  0  0  0  0  0  0  0  0  0  0
   35.9315  -16.1752   36.4782 C   0  0  0  0  0  0  0  0  0  0  0  0
   36.7201  -15.4856   37.3829 C   0  0  0  0  0  0  0  0  0  0  0  0
   36.2492  -14.3032   37.8983 C   0  0  0  0  0  0  0  0  0  0  0  0
   35.0122  -13.8401   37.5027 C   0  0  0  0  0  0  0  0  0  0  0  0
   34.2248  -14.5447   36.5890 C   0  0  0  0  0  0  0  0  0  0  0  0
 23 24  1  0  0  0
 24 25  1  0  0  0
 24 26  2  0  0  0
 26 22  1  0  0  0
 22 21  1  0  0  0
 21 20  1  0  0  0
 20 12  1  0  0  0
 12  8  1  0  0  0
  8  9  1  0  0  0
  9 10  2  0  0  0
  9  1  1  0  0  0
  1  2  1  0  0  0
  2  3  1  0  0  0
  3  4  1  0  0  0
  4  5  1  0  0  0
  5  6  1  0  0  0
  6  7  2  0  0  0
  6 31  1  0  0  0
 31 44  1  0  0  0
 44 45  1  0  0  0
 45 46  2  0  0  0
 46 47  1  0  0  0
 47 48  2  0  0  0
 48 49  1  0  0  0
 49 50  2  0  0  0
 31 32  1  0  0  0
 32 33  1  0  0  0
 33 34  2  0  0  0
 33 36  1  0  0  0
 36 37  1  0  0  0
 37 38  1  0  0  0
 38 39  2  0  0  0
 39 40  1  0  0  0
 40 41  2  0  0  0
 41 42  1  0  0  0
 42 43  2  0  0  0
 12 13  1  0  0  0
 13 14  2  0  0  0
 13 15  1  0  0  0
 15 16  2  0  0  0
 16 17  1  0  0  0
 17 18  2  0  0  0
 18 19  1  0  0  0
  5  1  1  0  0  0
 50 45  1  0  0  0
 43 38  1  0  0  0
 19 15  1  0  0  0
 23 27  1  0  0  0
 23 28  1  0  0  0
 25 29  1  0  0  0
 25 30  1  0  0  0
  8 11  1  0  0  0
 32 35  1  0  0  0
M  END
> <minimizedAffinity>
-6.28398

> <CNNscore>
0.2630345821

> <CNNaffinity>
6.1228570938

> <CNN_VS>
1.6105231047

> <CNNaffinity_variance>
0.4229415953

$$$$
[H]c1nc(C(=O)[C@@]([H])(N([H])C(=O)[C@@]2([H])N(C(=O)[C@]([H])(N([H])C(=O)OC([H])([H])c3c([H])c([H])c([H])c([H])c3[H])C([H])([H])c3c([H])c([H])c([H])c([H])c3[H])C([H])([H])C([H])([H])C2([H])[H])C([H])([H])C([H])([H])C([H])([H])N=C(N([H])[H])N([H])[H])sc1[H]


 50 53  0  0  0  0  0  0  0  0999 V2000
   39.8295  -19.0208   34.5669 C   0  0  0  0  0  0  0  0  0  0  0  0
   39.6371  -20.0886   33.4741 C   0  0  0  0  0  0  0  0  0  0  0  0
   41.0522  -20.0976   32.8748 C   0  0  0  0  0  0  0  0  0  0  0  0
   41.8610  -19.1333   33.7217 C   0  0  0  0  0  0  0  0  0  0  0  0
   41.1077  -19.3925   35.0323 N   0  0  0  0  0  0  0  0  0  0  0  0
   41.7854  -19.9000   36.1418 C   0  0  0  0  0  0  0  0  0  0  0  0
   43.0891  -19.9564   35.9775 O   0  0  0  0  0  0  0  0  0  0  0  0
   37.7085  -17.8370   34.9316 N   0  0  0  0  0  0  0  0  0  0  0  0
   38.6812  -18.8291   35.3865 C   0  0  0  0  0  0  0  0  0  0  0  0
   38.3470  -19.3661   36.4508 O   0  0  0  0  0  0  0  0  0  0  0  0
   37.9274  -17.3480   34.0506 H   0  0  0  0  0  0  0  0  0  0  0  0
   36.4961  -17.5615   35.6912 C   0  0  0  0  0  0  0  0  0  0  0  0
   35.3329  -18.2574   35.1436 C   0  0  0  0  0  0  0  0  0  0  0  0
   34.9841  -18.0666   33.9276 O   0  0  0  0  0  0  0  0  0  0  0  0
   34.4883  -19.2033   35.8919 C   0  0  0  0  0  0  0  0  0  0  0  0
   33.1987  -19.4293   35.6995 N   0  0  0  0  0  0  0  0  0  0  0  0
   32.5776  -20.3007   36.4142 C   0  0  0  0  0  0  0  0  0  0  0  0
   33.2997  -20.9762   37.3716 C   0  0  0  0  0  0  0  0  0  0  0  0
   34.8531  -20.2872   37.1626 S   0  0  0  0  0  0  0  0  0  0  0  0
   36.2434  -16.0583   35.7119 C   0  0  0  0  0  0  0  0  0  0  0  0
   35.5225  -15.6880   36.9652 C   0  0  0  0  0  0  0  0  0  0  0  0
   34.4944  -14.5743   36.6962 C   0  0  0  0  0  0  0  0  0  0  0  0
   33.9412  -11.8261   37.2686 N   0  0  0  0  0  0  0  0  0  0  0  0
   34.9333  -12.2348   36.3422 C   0  0  0  0  0  0  0  0  0  0  0  0
   35.6805  -11.2330   35.6701 N   0  0  0  0  0  0  0  0  0  0  0  0
   35.1592  -13.4573   36.1061 N   0  0  0  0  0  0  0  0  0  0  0  0
   34.1631  -11.0880   37.9746 H   0  0  0  0  0  0  0  0  0  0  0  0
   33.0007  -12.2363   37.2679 H   0  0  0  0  0  0  0  0  0  0  0  0
   36.6193  -10.8890   36.0126 H   0  0  0  0  0  0  0  0  0  0  0  0
   35.3387  -10.7699   34.7827 H   0  0  0  0  0  0  0  0  0  0  0  0
   41.3271  -20.3779   37.4373 C   0  0  0  0  0  0  0  0  0  0  0  0
   42.4853  -20.7043   38.3161 N   0  0  0  0  0  0  0  0  0  0  0  0
   42.8219  -19.8688   39.3989 C   0  0  0  0  0  0  0  0  0  0  0  0
   42.1054  -18.8345   39.5913 O   0  0  0  0  0  0  0  0  0  0  0  0
   43.0635  -21.5550   38.1462 H   0  0  0  0  0  0  0  0  0  0  0  0
   43.8544  -20.0530   40.2839 O   0  0  0  0  0  0  0  0  0  0  0  0
   43.9449  -21.1908   41.1277 C   0  0  0  0  0  0  0  0  0  0  0  0
   42.9616  -21.0428   42.2305 C   0  0  0  0  0  0  0  0  0  0  0  0
   43.0453  -20.0087   43.1384 C   0  0  0  0  0  0  0  0  0  0  0  0
   42.1337  -19.8749   44.1476 C   0  0  0  0  0  0  0  0  0  0  0  0
   41.1150  -20.7936   44.2536 C   0  0  0  0  0  0  0  0  0  0  0  0
   40.9956  -21.8564   43.3524 C   0  0  0  0  0  0  0  0  0  0  0  0
   41.9334  -21.9624   42.3449 C   0  0  0  0  0  0  0  0  0  0  0  0
   40.6383  -21.7412   37.3182 C   0  0  0  0  0  0  0  0  0  0  0  0
   39.9047  -22.0761   38.5568 C   0  0  0  0  0  0  0  0  0  0  0  0
   40.0313  -23.3543   39.0601 C   0  0  0  0  0  0  0  0  0  0  0  0
   39.3933  -23.7752   40.2140 C   0  0  0  0  0  0  0  0  0  0  0  0
   38.5986  -22.8819   40.8893 C   0  0  0  0  0  0  0  0  0  0  0  0
   38.4598  -21.5998   40.4014 C   0  0  0  0  0  0  0  0  0  0  0  0
   39.1084  -21.1861   39.2355 C   0  0  0  0  0  0  0  0  0  0  0  0
 23 24  1  0  0  0
 24 25  1  0  0  0
 24 26  2  0  0  0
 26 22  1  0  0  0
 22 21  1  0  0  0
 21 20  1  0  0  0
 20 12  1  0  0  0
 12  8  1  0  0  0
  8  9  1  0  0  0
  9 10  2  0  0  0
  9  1  1  0  0  0
  1  2  1  0  0  0
  2  3  1  0  0  0
  3  4  1  0  0  0
  4  5  1  0  0  0
  5  6  1  0  0  0
  6  7  2  0  0  0
  6 31  1  0  0  0
 31 44  1  0  0  0
 44 45  1  0  0  0
 45 46  2  0  0  0
 46 47  1  0  0  0
 47 48  2  0  0  0
 48 49  1  0  0  0
 49 50  2  0  0  0
 31 32  1  0  0  0
 32 33  1  0  0  0
 33 34  2  0  0  0
 33 36  1  0  0  0
 36 37  1  0  0  0
 37 38  1  0  0  0
 38 39  2  0  0  0
 39 40  1  0  0  0
 40 41  2  0  0  0
 41 42  1  0  0  0
 42 43  2  0  0  0
 12 13  1  0  0  0
 13 14  2  0  0  0
 13 15  1  0  0  0
 15 16  2  0  0  0
 16 17  1  0  0  0
 17 18  2  0  0  0
 18 19  1  0  0  0
  5  1  1  0  0  0
 50 45  1  0  0  0
 43 38  1  0  0  0
 19 15  1  0  0  0
 23 27  1  0  0  0
 23 28  1  0  0  0
 25 29  1  0  0  0
 25 30  1  0  0  0
  8 11  1  0  0  0
 32 35  1  0  0  0
M  END
> <minimizedAffinity>
-5.85306

> <CNNscore>
0.2348973453

> <CNNaffinity>
6.3607025146

> <CNN_VS>
1.4941121340

> <CNNaffinity_variance>
0.0964165181

$$$$
[H]c1nc(C(=O)[C@@]([H])(N([H])C(=O)[C@@]2([H])N(C(=O)[C@]([H])(N([H])C(=O)OC([H])([H])c3c([H])c([H])c([H])c([H])c3[H])C([H])([H])c3c([H])c([H])c([H])c([H])c3[H])C([H])([H])C([H])([H])C2([H])[H])C([H])([H])C([H])([H])C([H])([H])N=C(N([H])[H])N([H])[H])sc1[H]


 50 53  0  0  0  0  0  0  0  0999 V2000
   39.2945  -18.9317   34.8646 C   0  0  0  0  0  0  0  0  0  0  0  0
   38.8427  -19.9548   33.8060 C   0  0  0  0  0  0  0  0  0  0  0  0
   39.9389  -19.7320   32.7522 C   0  0  0  0  0  0  0  0  0  0  0  0
   40.8848  -18.7112   33.3559 C   0  0  0  0  0  0  0  0  0  0  0  0
   40.6876  -19.1448   34.8137 N   0  0  0  0  0  0  0  0  0  0  0  0
   41.7713  -19.6117   35.5589 C   0  0  0  0  0  0  0  0  0  0  0  0
   42.9262  -19.4752   34.9444 O   0  0  0  0  0  0  0  0  0  0  0  0
   37.5559  -17.8492   36.2204 N   0  0  0  0  0  0  0  0  0  0  0  0
   38.5043  -18.9485   36.0487 C   0  0  0  0  0  0  0  0  0  0  0  0
   38.4751  -19.7502   36.9917 O   0  0  0  0  0  0  0  0  0  0  0  0
   37.5309  -17.1415   35.4708 H   0  0  0  0  0  0  0  0  0  0  0  0
   36.6955  -17.7674   37.3933 C   0  0  0  0  0  0  0  0  0  0  0  0
   35.5612  -18.6859   37.3095 C   0  0  0  0  0  0  0  0  0  0  0  0
   35.1159  -19.2543   38.3656 O   0  0  0  0  0  0  0  0  0  0  0  0
   34.8476  -19.0317   36.0688 C   0  0  0  0  0  0  0  0  0  0  0  0
   35.1444  -18.6160   34.8481 N   0  0  0  0  0  0  0  0  0  0  0  0
   34.4477  -19.0089   33.8401 C   0  0  0  0  0  0  0  0  0  0  0  0
   33.3979  -19.8656   34.0818 C   0  0  0  0  0  0  0  0  0  0  0  0
   33.4989  -20.0421   35.7818 S   0  0  0  0  0  0  0  0  0  0  0  0
   36.1975  -16.3359   37.5560 C   0  0  0  0  0  0  0  0  0  0  0  0
   36.3492  -15.6022   36.2651 C   0  0  0  0  0  0  0  0  0  0  0  0
   35.0207  -14.9445   35.8503 C   0  0  0  0  0  0  0  0  0  0  0  0
   32.6588  -13.3404   36.0365 N   0  0  0  0  0  0  0  0  0  0  0  0
   33.9245  -12.9035   36.5017 C   0  0  0  0  0  0  0  0  0  0  0  0
   34.0195  -11.6123   37.0823 N   0  0  0  0  0  0  0  0  0  0  0  0
   34.9550  -13.6320   36.4079 N   0  0  0  0  0  0  0  0  0  0  0  0
   31.8133  -13.2152   36.6381 H   0  0  0  0  0  0  0  0  0  0  0  0
   32.5446  -13.7806   35.1166 H   0  0  0  0  0  0  0  0  0  0  0  0
   33.9527  -11.4437   38.1235 H   0  0  0  0  0  0  0  0  0  0  0  0
   34.1631  -10.7389   36.5031 H   0  0  0  0  0  0  0  0  0  0  0  0
   41.8663  -20.2193   36.8775 C   0  0  0  0  0  0  0  0  0  0  0  0
   40.7727  -21.2112   37.0784 N   0  0  0  0  0  0  0  0  0  0  0  0
   41.0688  -22.5493   37.4031 C   0  0  0  0  0  0  0  0  0  0  0  0
   42.2950  -22.8724   37.5139 O   0  0  0  0  0  0  0  0  0  0  0  0
   39.7726  -20.9322   36.9841 H   0  0  0  0  0  0  0  0  0  0  0  0
   40.1638  -23.5583   37.6179 O   0  0  0  0  0  0  0  0  0  0  0  0
   38.7921  -23.4421   37.2719 C   0  0  0  0  0  0  0  0  0  0  0  0
   38.5663  -24.1478   35.9849 C   0  0  0  0  0  0  0  0  0  0  0  0
   37.7310  -25.2411   35.8980 C   0  0  0  0  0  0  0  0  0  0  0  0
   37.5231  -25.8825   34.7094 C   0  0  0  0  0  0  0  0  0  0  0  0
   38.1629  -25.4226   33.5815 C   0  0  0  0  0  0  0  0  0  0  0  0
   39.0177  -24.3167   33.6284 C   0  0  0  0  0  0  0  0  0  0  0  0
   39.2058  -23.6921   34.8451 C   0  0  0  0  0  0  0  0  0  0  0  0
   41.5661  -19.2030   37.9839 C   0  0  0  0  0  0  0  0  0  0  0  0
   42.4222  -19.4360   39.1660 C   0  0  0  0  0  0  0  0  0  0  0  0
   41.8801  -19.2090   40.4142 C   0  0  0  0  0  0  0  0  0  0  0  0
   42.5888  -19.3982   41.5880 C   0  0  0  0  0  0  0  0  0  0  0  0
   43.8895  -19.8311   41.5084 C   0  0  0  0  0  0  0  0  0  0  0  0
   44.4486  -20.0631   40.2696 C   0  0  0  0  0  0  0  0  0  0  0  0
   43.7238  -19.8686   39.0914 C   0  0  0  0  0  0  0  0  0  0  0  0
 23 24  1  0  0  0
 24 25  1  0  0  0
 24 26  2  0  0  0
 26 22  1  0  0  0
 22 21  1  0  0  0
 21 20  1  0  0  0
 20 12  1  0  0  0
 12  8  1  0  0  0
  8  9  1  0  0  0
  9 10  2  0  0  0
  9  1  1  0  0  0
  1  2  1  0  0  0
  2  3  1  0  0  0
  3  4  1  0  0  0
  4  5  1  0  0  0
  5  6  1  0  0  0
  6  7  2  0  0  0
  6 31  1  0  0  0
 31 44  1  0  0  0
 44 45  1  0  0  0
 45 46  2  0  0  0
 46 47  1  0  0  0
 47 48  2  0  0  0
 48 49  1  0  0  0
 49 50  2  0  0  0
 31 32  1  0  0  0
 32 33  1  0  0  0
 33 34  2  0  0  0
 33 36  1  0  0  0
 36 37  1  0  0  0
 37 38  1  0  0  0
 38 39  2  0  0  0
 39 40  1  0  0  0
 40 41  2  0  0  0
 41 42  1  0  0  0
 42 43  2  0  0  0
 12 13  1  0  0  0
 13 14  2  0  0  0
 13 15  1  0  0  0
 15 16  2  0  0  0
 16 17  1  0  0  0
 17 18  2  0  0  0
 18 19  1  0  0  0
  5  1  1  0  0  0
 50 45  1  0  0  0
 43 38  1  0  0  0
 19 15  1  0  0  0
 23 27  1  0  0  0
 23 28  1  0  0  0
 25 29  1  0  0  0
 25 30  1  0  0  0
  8 11  1  0  0  0
 32 35  1  0  0  0
M  END
> <minimizedAffinity>
-6.25669

> <CNNscore>
0.2342681736

> <CNNaffinity>
6.2718434334

> <CNN_VS>
1.4692933559

> <CNNaffinity_variance>
0.4558467865

$$$$
[H]c1nc(C(=O)[C@@]([H])(N([H])C(=O)[C@@]2([H])N(C(=O)[C@]([H])(N([H])C(=O)OC([H])([H])c3c([H])c([H])c([H])c([H])c3[H])C([H])([H])c3c([H])c([H])c([H])c([H])c3[H])C([H])([H])C([H])([H])C2([H])[H])C([H])([H])C([H])([H])C([H])([H])N=C(N([H])[H])N([H])[H])sc1[H]


 50 53  0  0  0  0  0  0  0  0999 V2000
   37.0395  -19.7815   36.4297 C   0  0  0  0  0  0  0  0  0  0  0  0
   38.2309  -18.8058   36.4388 C   0  0  0  0  0  0  0  0  0  0  0  0
   38.5305  -18.7555   34.9323 C   0  0  0  0  0  0  0  0  0  0  0  0
   37.4629  -19.6091   34.2744 C   0  0  0  0  0  0  0  0  0  0  0  0
   36.3568  -19.3037   35.2920 N   0  0  0  0  0  0  0  0  0  0  0  0
   35.1777  -18.6811   34.8801 C   0  0  0  0  0  0  0  0  0  0  0  0
   35.0790  -18.5598   33.5741 O   0  0  0  0  0  0  0  0  0  0  0  0
   36.8115  -21.2182   38.4088 N   0  0  0  0  0  0  0  0  0  0  0  0
   36.4563  -19.9826   37.7128 C   0  0  0  0  0  0  0  0  0  0  0  0
   35.6754  -19.2788   38.3668 O   0  0  0  0  0  0  0  0  0  0  0  0
   37.4577  -21.8539   37.9172 H   0  0  0  0  0  0  0  0  0  0  0  0
   36.2748  -21.5255   39.7280 C   0  0  0  0  0  0  0  0  0  0  0  0
   37.3111  -21.9854   40.6509 C   0  0  0  0  0  0  0  0  0  0  0  0
   37.0587  -22.9227   41.4843 O   0  0  0  0  0  0  0  0  0  0  0  0
   38.6815  -21.4505   40.7125 C   0  0  0  0  0  0  0  0  0  0  0  0
   39.4756  -21.1997   39.6840 N   0  0  0  0  0  0  0  0  0  0  0  0
   40.6516  -20.7131   39.8740 C   0  0  0  0  0  0  0  0  0  0  0  0
   41.0420  -20.4689   41.1711 C   0  0  0  0  0  0  0  0  0  0  0  0
   39.6520  -20.9711   42.0356 S   0  0  0  0  0  0  0  0  0  0  0  0
   35.1855  -22.5838   39.5964 C   0  0  0  0  0  0  0  0  0  0  0  0
   33.8488  -21.9582   39.8192 C   0  0  0  0  0  0  0  0  0  0  0  0
   33.4793  -21.9750   41.3135 C   0  0  0  0  0  0  0  0  0  0  0  0
   34.1433  -20.7346   43.8049 N   0  0  0  0  0  0  0  0  0  0  0  0
   33.3684  -20.0914   42.8072 C   0  0  0  0  0  0  0  0  0  0  0  0
   32.9021  -18.7755   43.0611 N   0  0  0  0  0  0  0  0  0  0  0  0
   33.0880  -20.6615   41.7129 N   0  0  0  0  0  0  0  0  0  0  0  0
   34.9264  -20.2188   44.2665 H   0  0  0  0  0  0  0  0  0  0  0  0
   33.9573  -21.7020   44.0922 H   0  0  0  0  0  0  0  0  0  0  0  0
   33.4193  -17.9107   42.7424 H   0  0  0  0  0  0  0  0  0  0  0  0
   32.0049  -18.5832   43.5873 H   0  0  0  0  0  0  0  0  0  0  0  0
   34.0443  -18.1416   35.6157 C   0  0  0  0  0  0  0  0  0  0  0  0
   32.7709  -18.7515   35.1392 N   0  0  0  0  0  0  0  0  0  0  0  0
   32.2470  -19.8992   35.7653 C   0  0  0  0  0  0  0  0  0  0  0  0
   32.9003  -20.3890   36.7418 O   0  0  0  0  0  0  0  0  0  0  0  0
   32.2467  -18.3394   34.3378 H   0  0  0  0  0  0  0  0  0  0  0  0
   31.0891  -20.5560   35.4322 O   0  0  0  0  0  0  0  0  0  0  0  0
   29.8022  -20.0081   35.6735 C   0  0  0  0  0  0  0  0  0  0  0  0
   28.9140  -21.0870   36.1757 C   0  0  0  0  0  0  0  0  0  0  0  0
   28.8724  -22.3266   35.5737 C   0  0  0  0  0  0  0  0  0  0  0  0
   28.0570  -23.3170   36.0443 C   0  0  0  0  0  0  0  0  0  0  0  0
   27.2650  -23.0654   37.1408 C   0  0  0  0  0  0  0  0  0  0  0  0
   27.2787  -21.8212   37.7795 C   0  0  0  0  0  0  0  0  0  0  0  0
   28.1137  -20.8428   37.2783 C   0  0  0  0  0  0  0  0  0  0  0  0
   33.8179  -16.6624   35.2872 C   0  0  0  0  0  0  0  0  0  0  0  0
   34.6799  -15.7956   36.1178 C   0  0  0  0  0  0  0  0  0  0  0  0
   34.4299  -14.4388   36.1155 C   0  0  0  0  0  0  0  0  0  0  0  0
   35.1710  -13.5359   36.8580 C   0  0  0  0  0  0  0  0  0  0  0  0
   36.2012  -14.0100   37.6321 C   0  0  0  0  0  0  0  0  0  0  0  0
   36.4664  -15.3629   37.6471 C   0  0  0  0  0  0  0  0  0  0  0  0
   35.7118  -16.2651   36.8934 C   0  0  0  0  0  0  0  0  0  0  0  0
 23 24  1  0  0  0
 24 25  1  0  0  0
 24 26  2  0  0  0
 26 22  1  0  0  0
 22 21  1  0  0  0
 21 20  1  0  0  0
 20 12  1  0  0  0
 12  8  1  0  0  0
  8  9  1  0  0  0
  9 10  2  0  0  0
  9  1  1  0  0  0
  1  2  1  0  0  0
  2  3  1  0  0  0
  3  4  1  0  0  0
  4  5  1  0  0  0
  5  6  1  0  0  0
  6  7  2  0  0  0
  6 31  1  0  0  0
 31 44  1  0  0  0
 44 45  1  0  0  0
 45 46  2  0  0  0
 46 47  1  0  0  0
 47 48  2  0  0  0
 48 49  1  0  0  0
 49 50  2  0  0  0
 31 32  1  0  0  0
 32 33  1  0  0  0
 33 34  2  0  0  0
 33 36  1  0  0  0
 36 37  1  0  0  0
 37 38  1  0  0  0
 38 39  2  0  0  0
 39 40  1  0  0  0
 40 41  2  0  0  0
 41 42  1  0  0  0
 42 43  2  0  0  0
 12 13  1  0  0  0
 13 14  2  0  0  0
 13 15  1  0  0  0
 15 16  2  0  0  0
 16 17  1  0  0  0
 17 18  2  0  0  0
 18 19  1  0  0  0
  5  1  1  0  0  0
 50 45  1  0  0  0
 43 38  1  0  0  0
 19 15  1  0  0  0
 23 27  1  0  0  0
 23 28  1  0  0  0
 25 29  1  0  0  0
 25 30  1  0  0  0
  8 11  1  0  0  0
 32 35  1  0  0  0
M  END
> <minimizedAffinity>
-6.78812

> <CNNscore>
0.2278525233

> <CNNaffinity>
6.0973997116

> <CNN_VS>
1.3893078566

> <CNNaffinity_variance>
0.5351411104

$$$$
[H]c1nc(C(=O)[C@@]([H])(N([H])C(=O)[C@@]2([H])N(C(=O)[C@]([H])(N([H])C(=O)OC([H])([H])c3c([H])c([H])c([H])c([H])c3[H])C([H])([H])c3c([H])c([H])c([H])c([H])c3[H])C([H])([H])C([H])([H])C2([H])[H])C([H])([H])C([H])([H])C([H])([H])N=C(N([H])[H])N([H])[H])sc1[H]


 50 53  0  0  0  0  0  0  0  0999 V2000
   39.7194  -19.0326   34.7436 C   0  0  0  0  0  0  0  0  0  0  0  0
   39.0852  -19.9027   33.6426 C   0  0  0  0  0  0  0  0  0  0  0  0
   40.2457  -19.9249   32.6354 C   0  0  0  0  0  0  0  0  0  0  0  0
   41.3782  -19.1649   33.2997 C   0  0  0  0  0  0  0  0  0  0  0  0
   41.0250  -19.5654   34.7374 N   0  0  0  0  0  0  0  0  0  0  0  0
   41.9379  -20.2861   35.5087 C   0  0  0  0  0  0  0  0  0  0  0  0
   43.1171  -20.4135   34.9402 O   0  0  0  0  0  0  0  0  0  0  0  0
   37.7700  -17.9618   35.7858 N   0  0  0  0  0  0  0  0  0  0  0  0
   38.8988  -18.8841   35.8975 C   0  0  0  0  0  0  0  0  0  0  0  0
   38.9714  -19.4099   37.0160 O   0  0  0  0  0  0  0  0  0  0  0  0
   37.6527  -17.4855   34.8788 H   0  0  0  0  0  0  0  0  0  0  0  0
   36.8638  -17.7349   36.9040 C   0  0  0  0  0  0  0  0  0  0  0  0
   35.8750  -18.8034   37.0372 C   0  0  0  0  0  0  0  0  0  0  0  0
   35.7959  -19.4732   38.1243 O   0  0  0  0  0  0  0  0  0  0  0  0
   34.9150  -19.1973   35.9926 C   0  0  0  0  0  0  0  0  0  0  0  0
   35.1177  -19.1667   34.6853 N   0  0  0  0  0  0  0  0  0  0  0  0
   34.1974  -19.5574   33.8753 C   0  0  0  0  0  0  0  0  0  0  0  0
   33.0127  -20.0012   34.4176 C   0  0  0  0  0  0  0  0  0  0  0  0
   33.3245  -19.8162   36.0909 S   0  0  0  0  0  0  0  0  0  0  0  0
   36.1624  -16.3938   36.7219 C   0  0  0  0  0  0  0  0  0  0  0  0
   36.8088  -15.3675   37.5917 C   0  0  0  0  0  0  0  0  0  0  0  0
   36.7036  -13.9686   36.9579 C   0  0  0  0  0  0  0  0  0  0  0  0
   35.5842  -11.6292   35.7492 N   0  0  0  0  0  0  0  0  0  0  0  0
   34.9077  -12.3812   36.7424 C   0  0  0  0  0  0  0  0  0  0  0  0
   33.6201  -11.9492   37.1534 N   0  0  0  0  0  0  0  0  0  0  0  0
   35.4243  -13.4128   37.2621 N   0  0  0  0  0  0  0  0  0  0  0  0
   35.0743  -11.3314   34.8868 H   0  0  0  0  0  0  0  0  0  0  0  0
   36.5702  -11.3643   35.8513 H   0  0  0  0  0  0  0  0  0  0  0  0
   32.7261  -12.3272   36.7351 H   0  0  0  0  0  0  0  0  0  0  0  0
   33.4799  -11.2195   37.9062 H   0  0  0  0  0  0  0  0  0  0  0  0
   41.8338  -20.9218   36.8132 C   0  0  0  0  0  0  0  0  0  0  0  0
   43.0394  -20.6278   37.6381 N   0  0  0  0  0  0  0  0  0  0  0  0
   43.0981  -19.4677   38.4345 C   0  0  0  0  0  0  0  0  0  0  0  0
   42.0913  -18.6891   38.4183 O   0  0  0  0  0  0  0  0  0  0  0  0
   43.8570  -21.2748   37.6412 H   0  0  0  0  0  0  0  0  0  0  0  0
   44.1394  -19.0805   39.2401 O   0  0  0  0  0  0  0  0  0  0  0  0
   44.6279  -19.8883   40.3001 C   0  0  0  0  0  0  0  0  0  0  0  0
   43.5151  -20.1516   41.2473 C   0  0  0  0  0  0  0  0  0  0  0  0
   43.1360  -21.4355   41.5768 C   0  0  0  0  0  0  0  0  0  0  0  0
   42.1147  -21.6709   42.4537 C   0  0  0  0  0  0  0  0  0  0  0  0
   41.4566  -20.6010   43.0151 C   0  0  0  0  0  0  0  0  0  0  0  0
   41.8114  -19.2838   42.7066 C   0  0  0  0  0  0  0  0  0  0  0  0
   42.8473  -19.0814   41.8169 C   0  0  0  0  0  0  0  0  0  0  0  0
   41.9051  -22.4479   36.6984 C   0  0  0  0  0  0  0  0  0  0  0  0
   40.8297  -22.9661   35.8269 C   0  0  0  0  0  0  0  0  0  0  0  0
   41.1886  -23.5347   34.6222 C   0  0  0  0  0  0  0  0  0  0  0  0
   40.2658  -24.0547   33.7311 C   0  0  0  0  0  0  0  0  0  0  0  0
   38.9335  -24.0032   34.0593 C   0  0  0  0  0  0  0  0  0  0  0  0
   38.5556  -23.4385   35.2589 C   0  0  0  0  0  0  0  0  0  0  0  0
   39.4957  -22.9165   36.1506 C   0  0  0  0  0  0  0  0  0  0  0  0
 23 24  1  0  0  0
 24 25  1  0  0  0
 24 26  2  0  0  0
 26 22  1  0  0  0
 22 21  1  0  0  0
 21 20  1  0  0  0
 20 12  1  0  0  0
 12  8  1  0  0  0
  8  9  1  0  0  0
  9 10  2  0  0  0
  9  1  1  0  0  0
  1  2  1  0  0  0
  2  3  1  0  0  0
  3  4  1  0  0  0
  4  5  1  0  0  0
  5  6  1  0  0  0
  6  7  2  0  0  0
  6 31  1  0  0  0
 31 44  1  0  0  0
 44 45  1  0  0  0
 45 46  2  0  0  0
 46 47  1  0  0  0
 47 48  2  0  0  0
 48 49  1  0  0  0
 49 50  2  0  0  0
 31 32  1  0  0  0
 32 33  1  0  0  0
 33 34  2  0  0  0
 33 36  1  0  0  0
 36 37  1  0  0  0
 37 38  1  0  0  0
 38 39  2  0  0  0
 39 40  1  0  0  0
 40 41  2  0  0  0
 41 42  1  0  0  0
 42 43  2  0  0  0
 12 13  1  0  0  0
 13 14  2  0  0  0
 13 15  1  0  0  0
 15 16  2  0  0  0
 16 17  1  0  0  0
 17 18  2  0  0  0
 18 19  1  0  0  0
  5  1  1  0  0  0
 50 45  1  0  0  0
 43 38  1  0  0  0
 19 15  1  0  0  0
 23 27  1  0  0  0
 23 28  1  0  0  0
 25 29  1  0  0  0
 25 30  1  0  0  0
  8 11  1  0  0  0
 32 35  1  0  0  0
M  END
> <minimizedAffinity>
-6.50018

> <CNNscore>
0.1929212362

> <CNNaffinity>
6.4347600937

> <CNN_VS>
1.2414019108

> <CNNaffinity_variance>
0.2650530934

$$$$
[H]c1nc(C(=O)[C@@]([H])(N([H])C(=O)[C@@]2([H])N(C(=O)[C@]([H])(N([H])C(=O)OC([H])([H])c3c([H])c([H])c([H])c([H])c3[H])C([H])([H])c3c([H])c([H])c([H])c([H])c3[H])C([H])([H])C([H])([H])C2([H])[H])C([H])([H])C([H])([H])C([H])([H])N=C(N([H])[H])N([H])[H])sc1[H]


 50 53  0  0  0  0  0  0  0  0999 V2000
   36.9624  -19.7916   36.3561 C   0  0  0  0  0  0  0  0  0  0  0  0
   38.2019  -18.8844   36.4658 C   0  0  0  0  0  0  0  0  0  0  0  0
   38.5355  -18.7273   34.9739 C   0  0  0  0  0  0  0  0  0  0  0  0
   37.4395  -19.4666   34.2299 C   0  0  0  0  0  0  0  0  0  0  0  0
   36.3293  -19.1871   35.2505 N   0  0  0  0  0  0  0  0  0  0  0  0
   35.1927  -18.4714   34.8716 C   0  0  0  0  0  0  0  0  0  0  0  0
   35.1281  -18.2388   33.5787 O   0  0  0  0  0  0  0  0  0  0  0  0
   36.5116  -21.4158   38.1427 N   0  0  0  0  0  0  0  0  0  0  0  0
   36.3426  -20.0656   37.6083 C   0  0  0  0  0  0  0  0  0  0  0  0
   35.6623  -19.3447   38.3501 O   0  0  0  0  0  0  0  0  0  0  0  0
   37.0664  -22.0709   37.5714 H   0  0  0  0  0  0  0  0  0  0  0  0
   35.9224  -21.8052   39.4171 C   0  0  0  0  0  0  0  0  0  0  0  0
   36.8559  -21.6377   40.5296 C   0  0  0  0  0  0  0  0  0  0  0  0
   38.0878  -21.9523   40.3870 O   0  0  0  0  0  0  0  0  0  0  0  0
   36.4973  -21.1138   41.8581 C   0  0  0  0  0  0  0  0  0  0  0  0
   35.3293  -20.6040   42.2142 N   0  0  0  0  0  0  0  0  0  0  0  0
   35.1383  -20.1955   43.4194 C   0  0  0  0  0  0  0  0  0  0  0  0
   36.1836  -20.3093   44.3075 C   0  0  0  0  0  0  0  0  0  0  0  0
   37.3878  -21.0122   43.3139 S   0  0  0  0  0  0  0  0  0  0  0  0
   35.4592  -23.2553   39.3377 C   0  0  0  0  0  0  0  0  0  0  0  0
   36.3814  -24.0289   38.4552 C   0  0  0  0  0  0  0  0  0  0  0  0
   35.6157  -24.6463   37.2711 C   0  0  0  0  0  0  0  0  0  0  0  0
   33.2063  -25.4836   35.9748 N   0  0  0  0  0  0  0  0  0  0  0  0
   33.4501  -24.1392   36.3523 C   0  0  0  0  0  0  0  0  0  0  0  0
   32.4532  -23.1694   36.0706 N   0  0  0  0  0  0  0  0  0  0  0  0
   34.5244  -23.7937   36.9248 N   0  0  0  0  0  0  0  0  0  0  0  0
   32.2839  -25.9245   36.1922 H   0  0  0  0  0  0  0  0  0  0  0  0
   33.9149  -26.0444   35.4887 H   0  0  0  0  0  0  0  0  0  0  0  0
   31.7172  -22.8808   36.7722 H   0  0  0  0  0  0  0  0  0  0  0  0
   32.3885  -22.6770   35.1367 H   0  0  0  0  0  0  0  0  0  0  0  0
   34.0733  -17.9344   35.6301 C   0  0  0  0  0  0  0  0  0  0  0  0
   32.7878  -18.5169   35.1520 N   0  0  0  0  0  0  0  0  0  0  0  0
   32.3125  -19.7341   35.6774 C   0  0  0  0  0  0  0  0  0  0  0  0
   33.0199  -20.3101   36.5651 O   0  0  0  0  0  0  0  0  0  0  0  0
   32.2190  -18.0339   34.4239 H   0  0  0  0  0  0  0  0  0  0  0  0
   31.1500  -20.3760   35.3312 O   0  0  0  0  0  0  0  0  0  0  0  0
   29.8667  -19.8355   35.6064 C   0  0  0  0  0  0  0  0  0  0  0  0
   28.9995  -20.9186   36.1355 C   0  0  0  0  0  0  0  0  0  0  0  0
   28.1699  -20.7155   37.2177 C   0  0  0  0  0  0  0  0  0  0  0  0
   27.3701  -21.7148   37.6961 C   0  0  0  0  0  0  0  0  0  0  0  0
   27.3982  -22.9451   37.0808 C   0  0  0  0  0  0  0  0  0  0  0  0
   28.2258  -23.1908   35.9804 C   0  0  0  0  0  0  0  0  0  0  0  0
   29.0212  -22.1595   35.5227 C   0  0  0  0  0  0  0  0  0  0  0  0
   33.8632  -16.4453   35.3376 C   0  0  0  0  0  0  0  0  0  0  0  0
   34.7783  -15.6109   36.1444 C   0  0  0  0  0  0  0  0  0  0  0  0
   35.7135  -16.2496   36.9322 C   0  0  0  0  0  0  0  0  0  0  0  0
   36.6215  -15.5683   37.7242 C   0  0  0  0  0  0  0  0  0  0  0  0
   36.5916  -14.1955   37.7268 C   0  0  0  0  0  0  0  0  0  0  0  0
   35.6637  -13.5395   36.9460 C   0  0  0  0  0  0  0  0  0  0  0  0
   34.7519  -14.2376   36.1507 C   0  0  0  0  0  0  0  0  0  0  0  0
 23 24  1  0  0  0
 24 25  1  0  0  0
 24 26  2  0  0  0
 26 22  1  0  0  0
 22 21  1  0  0  0
 21 20  1  0  0  0
 20 12  1  0  0  0
 12  8  1  0  0  0
  8  9  1  0  0  0
  9 10  2  0  0  0
  9  1  1  0  0  0
  1  2  1  0  0  0
  2  3  1  0  0  0
  3  4  1  0  0  0
  4  5  1  0  0  0
  5  6  1  0  0  0
  6  7  2  0  0  0
  6 31  1  0  0  0
 31 44  1  0  0  0
 44 45  1  0  0  0
 45 46  2  0  0  0
 46 47  1  0  0  0
 47 48  2  0  0  0
 48 49  1  0  0  0
 49 50  2  0  0  0
 31 32  1  0  0  0
 32 33  1  0  0  0
 33 34  2  0  0  0
 33 36  1  0  0  0
 36 37  1  0  0  0
 37 38  1  0  0  0
 38 39  2  0  0  0
 39 40  1  0  0  0
 40 41  2  0  0  0
 41 42  1  0  0  0
 42 43  2  0  0  0
 12 13  1  0  0  0
 13 14  2  0  0  0
 13 15  1  0  0  0
 15 16  2  0  0  0
 16 17  1  0  0  0
 17 18  2  0  0  0
 18 19  1  0  0  0
  5  1  1  0  0  0
 50 45  1  0  0  0
 43 38  1  0  0  0
 19 15  1  0  0  0
 23 27  1  0  0  0
 23 28  1  0  0  0
 25 29  1  0  0  0
 25 30  1  0  0  0
  8 11  1  0  0  0
 32 35  1  0  0  0
M  END
> <minimizedAffinity>
-6.53305

> <CNNscore>
0.1928882152

> <CNNaffinity>
6.1945252419

> <CNN_VS>
1.1948509216

> <CNNaffinity_variance>
0.3722157478

$$$$
[H]c1c([H])c(Oc2c([H])c([H])c(OC([H])([H])[H])c([H])c2F)c(C(=O)N([H])c2c([H])c([H])n([H])c(=O)c2[H])c([H])c1Cl


 29 31  0  0  0  0  0  0  0  0999 V2000
   35.3206  -20.1305   36.7345 C   0  0  0  0  0  0  0  0  0  0  0  0
   34.2925  -19.4329   36.0796 C   0  0  0  0  0  0  0  0  0  0  0  0
   34.4589  -18.0823   35.8779 C   0  0  0  0  0  0  0  0  0  0  0  0
   35.5828  -17.4221   36.2941 C   0  0  0  0  0  0  0  0  0  0  0  0
   35.7798  -15.6953   36.0285 Cl  0  0  0  0  0  0  0  0  0  0  0  0
   36.5529  -18.1371   36.9233 C   0  0  0  0  0  0  0  0  0  0  0  0
   36.4730  -19.5239   37.1757 C   0  0  0  0  0  0  0  0  0  0  0  0
   37.5565  -20.1898   37.8506 C   0  0  0  0  0  0  0  0  0  0  0  0
   38.7354  -19.9218   37.3968 O   0  0  0  0  0  0  0  0  0  0  0  0
   37.5234  -21.0804   38.9201 N   0  0  0  0  0  0  0  0  0  0  0  0
   36.6096  -21.3475   39.3530 H   0  0  0  0  0  0  0  0  0  0  0  0
   38.6506  -21.7179   39.5375 C   0  0  0  0  0  0  0  0  0  0  0  0
   39.0676  -22.9703   39.0499 C   0  0  0  0  0  0  0  0  0  0  0  0
   40.1555  -23.5799   39.6114 C   0  0  0  0  0  0  0  0  0  0  0  0
   40.8581  -23.0378   40.6193 N   0  0  0  0  0  0  0  0  0  0  0  0
   40.4911  -21.8475   41.1083 C   0  0  0  0  0  0  0  0  0  0  0  0
   41.1473  -21.3368   42.0527 O   0  0  0  0  0  0  0  0  0  0  0  0
   39.3844  -21.1904   40.5622 C   0  0  0  0  0  0  0  0  0  0  0  0
   41.6770  -23.5785   40.9862 H   0  0  0  0  0  0  0  0  0  0  0  0
   35.1387  -21.4658   36.9291 O   0  0  0  0  0  0  0  0  0  0  0  0
   31.6363  -23.5544   37.9730 C   0  0  0  0  0  0  0  0  0  0  0  0
   32.1817  -23.6550   36.7221 C   0  0  0  0  0  0  0  0  0  0  0  0
   33.3244  -22.9719   36.3836 C   0  0  0  0  0  0  0  0  0  0  0  0
   33.9939  -22.1376   37.2932 C   0  0  0  0  0  0  0  0  0  0  0  0
   33.4132  -22.0631   38.5446 C   0  0  0  0  0  0  0  0  0  0  0  0
   34.0083  -21.2985   39.5026 F   0  0  0  0  0  0  0  0  0  0  0  0
   32.2603  -22.7476   38.8971 C   0  0  0  0  0  0  0  0  0  0  0  0
   29.4578  -24.6133   37.4998 C   0  0  0  0  0  0  0  0  0  0  0  0
   30.4991  -24.2216   38.3407 O   0  0  0  0  0  0  0  0  0  0  0  0
 28 29  1  0  0  0
 29 21  1  0  0  0
 21 22  2  0  0  0
 22 23  1  0  0  0
 23 24  2  0  0  0
 24 20  1  0  0  0
 20  1  1  0  0  0
  1  2  2  0  0  0
  2  3  1  0  0  0
  3  4  2  0  0  0
  4  5  1  0  0  0
  4  6  1  0  0  0
  6  7  2  0  0  0
  7  8  1  0  0  0
  8  9  2  0  0  0
  8 10  1  0  0  0
 10 12  1  0  0  0
 12 13  1  0  0  0
 13 14  2  0  0  0
 14 15  1  0  0  0
 15 16  1  0  0  0
 16 17  2  0  0  0
 16 18  1  0  0  0
 24 25  1  0  0  0
 25 26  1  0  0  0
 25 27  2  0  0  0
 27 21  1  0  0  0
  7  1  1  0  0  0
 18 12  2  0  0  0
 10 11  1  0  0  0
 15 19  1  0  0  0
M  END
> <minimizedAffinity>
-3.54622

> <CNNscore>
0.4499711990

> <CNNaffinity>
4.8607740402

> <CNN_VS>
2.1872084141

> <CNNaffinity_variance>
0.0565985441

$$$$
[H]c1c([H])c(Oc2c([H])c([H])c(OC([H])([H])[H])c([H])c2F)c(C(=O)N([H])c2c([H])c([H])n([H])c(=O)c2[H])c([H])c1Cl


 29 31  0  0  0  0  0  0  0  0999 V2000
   33.3339  -19.0693   35.2645 C   0  0  0  0  0  0  0  0  0  0  0  0
   32.2602  -18.6447   34.4649 C   0  0  0  0  0  0  0  0  0  0  0  0
   31.0453  -19.2669   34.6364 C   0  0  0  0  0  0  0  0  0  0  0  0
   30.8687  -20.2685   35.5516 C   0  0  0  0  0  0  0  0  0  0  0  0
   29.3091  -21.0534   35.7582 Cl  0  0  0  0  0  0  0  0  0  0  0  0
   31.9353  -20.6471   36.3047 C   0  0  0  0  0  0  0  0  0  0  0  0
   33.2194  -20.0694   36.2012 C   0  0  0  0  0  0  0  0  0  0  0  0
   34.2848  -20.5424   37.0461 C   0  0  0  0  0  0  0  0  0  0  0  0
   34.1019  -20.3678   38.3125 O   0  0  0  0  0  0  0  0  0  0  0  0
   35.4839  -21.1603   36.7020 N   0  0  0  0  0  0  0  0  0  0  0  0
   35.7096  -21.3460   35.6978 H   0  0  0  0  0  0  0  0  0  0  0  0
   36.5107  -21.5970   37.6036 C   0  0  0  0  0  0  0  0  0  0  0  0
   36.4100  -22.8815   38.1693 C   0  0  0  0  0  0  0  0  0  0  0  0
   37.3933  -23.3222   39.0114 C   0  0  0  0  0  0  0  0  0  0  0  0
   38.4670  -22.5822   39.3322 N   0  0  0  0  0  0  0  0  0  0  0  0
   38.5967  -21.3558   38.8128 C   0  0  0  0  0  0  0  0  0  0  0  0
   39.6017  -20.6599   39.1112 O   0  0  0  0  0  0  0  0  0  0  0  0
   37.6137  -20.8674   37.9469 C   0  0  0  0  0  0  0  0  0  0  0  0
   39.1691  -23.0031   39.9861 H   0  0  0  0  0  0  0  0  0  0  0  0
   34.5301  -18.4454   35.0800 O   0  0  0  0  0  0  0  0  0  0  0  0
   36.2567  -15.2813   37.2538 C   0  0  0  0  0  0  0  0  0  0  0  0
   36.8367  -16.5198   37.2133 C   0  0  0  0  0  0  0  0  0  0  0  0
   36.2710  -17.5512   36.5037 C   0  0  0  0  0  0  0  0  0  0  0  0
   35.0748  -17.3961   35.7848 C   0  0  0  0  0  0  0  0  0  0  0  0
   34.5210  -16.1321   35.8497 C   0  0  0  0  0  0  0  0  0  0  0  0
   33.3731  -15.8795   35.1605 F   0  0  0  0  0  0  0  0  0  0  0  0
   35.0828  -15.0843   36.5628 C   0  0  0  0  0  0  0  0  0  0  0  0
   38.0337  -13.6347   37.7250 C   0  0  0  0  0  0  0  0  0  0  0  0
   36.7951  -14.2341   37.9518 O   0  0  0  0  0  0  0  0  0  0  0  0
 28 29  1  0  0  0
 29 21  1  0  0  0
 21 22  2  0  0  0
 22 23  1  0  0  0
 23 24  2  0  0  0
 24 20  1  0  0  0
 20  1  1  0  0  0
  1  2  2  0  0  0
  2  3  1  0  0  0
  3  4  2  0  0  0
  4  5  1  0  0  0
  4  6  1  0  0  0
  6  7  2  0  0  0
  7  8  1  0  0  0
  8  9  2  0  0  0
  8 10  1  0  0  0
 10 12  1  0  0  0
 12 13  1  0  0  0
 13 14  2  0  0  0
 14 15  1  0  0  0
 15 16  1  0  0  0
 16 17  2  0  0  0
 16 18  1  0  0  0
 24 25  1  0  0  0
 25 26  1  0  0  0
 25 27  2  0  0  0
 27 21  1  0  0  0
  7  1  1  0  0  0
 18 12  2  0  0  0
 10 11  1  0  0  0
 15 19  1  0  0  0
M  END
> <minimizedAffinity>
-6.52427

> <CNNscore>
0.4390914142

> <CNNaffinity>
4.9893321991

> <CNN_VS>
2.1907730103

> <CNNaffinity_variance>
0.6511793137

$$$$
[H]c1c([H])c(Oc2c([H])c([H])c(OC([H])([H])[H])c([H])c2F)c(C(=O)N([H])c2c([H])c([H])n([H])c(=O)c2[H])c([H])c1Cl


 29 31  0  0  0  0  0  0  0  0999 V2000
   36.9134  -22.8385   38.0491 C   0  0  0  0  0  0  0  0  0  0  0  0
   37.7500  -23.4992   38.9634 C   0  0  0  0  0  0  0  0  0  0  0  0
   37.2033  -23.9032   40.1595 C   0  0  0  0  0  0  0  0  0  0  0  0
   35.8890  -23.6783   40.4664 C   0  0  0  0  0  0  0  0  0  0  0  0
   35.2059  -24.2012   41.9997 Cl  0  0  0  0  0  0  0  0  0  0  0  0
   35.1157  -23.0358   39.5514 C   0  0  0  0  0  0  0  0  0  0  0  0
   35.5855  -22.5838   38.2991 C   0  0  0  0  0  0  0  0  0  0  0  0
   34.6845  -21.9124   37.3990 C   0  0  0  0  0  0  0  0  0  0  0  0
   34.1772  -22.6551   36.4723 O   0  0  0  0  0  0  0  0  0  0  0  0
   34.2779  -20.5811   37.3780 N   0  0  0  0  0  0  0  0  0  0  0  0
   34.6358  -19.9114   38.0971 H   0  0  0  0  0  0  0  0  0  0  0  0
   33.3799  -19.9758   36.4371 C   0  0  0  0  0  0  0  0  0  0  0  0
   32.0554  -20.4461   36.3703 C   0  0  0  0  0  0  0  0  0  0  0  0
   31.1802  -19.8630   35.4960 C   0  0  0  0  0  0  0  0  0  0  0  0
   31.5234  -18.8491   34.6851 N   0  0  0  0  0  0  0  0  0  0  0  0
   32.7743  -18.3752   34.7215 C   0  0  0  0  0  0  0  0  0  0  0  0
   33.0991  -17.4252   33.9631 O   0  0  0  0  0  0  0  0  0  0  0  0
   33.7003  -18.9433   35.6016 C   0  0  0  0  0  0  0  0  0  0  0  0
   30.7854  -18.4657   34.0479 H   0  0  0  0  0  0  0  0  0  0  0  0
   37.4709  -22.4425   36.8716 O   0  0  0  0  0  0  0  0  0  0  0  0
   40.5526  -19.6632   36.1668 C   0  0  0  0  0  0  0  0  0  0  0  0
   40.6238  -20.9442   35.6911 C   0  0  0  0  0  0  0  0  0  0  0  0
   39.6170  -21.8497   35.9230 C   0  0  0  0  0  0  0  0  0  0  0  0
   38.4661  -21.5167   36.6554 C   0  0  0  0  0  0  0  0  0  0  0  0
   38.4314  -20.2152   37.1174 C   0  0  0  0  0  0  0  0  0  0  0  0
   37.3402  -19.7928   37.8155 F   0  0  0  0  0  0  0  0  0  0  0  0
   39.4415  -19.2933   36.8898 C   0  0  0  0  0  0  0  0  0  0  0  0
   42.9016  -18.9962   35.8081 C   0  0  0  0  0  0  0  0  0  0  0  0
   41.5388  -18.7383   35.9531 O   0  0  0  0  0  0  0  0  0  0  0  0
 28 29  1  0  0  0
 29 21  1  0  0  0
 21 22  2  0  0  0
 22 23  1  0  0  0
 23 24  2  0  0  0
 24 20  1  0  0  0
 20  1  1  0  0  0
  1  2  2  0  0  0
  2  3  1  0  0  0
  3  4  2  0  0  0
  4  5  1  0  0  0
  4  6  1  0  0  0
  6  7  2  0  0  0
  7  8  1  0  0  0
  8  9  2  0  0  0
  8 10  1  0  0  0
 10 12  1  0  0  0
 12 13  1  0  0  0
 13 14  2  0  0  0
 14 15  1  0  0  0
 15 16  1  0  0  0
 16 17  2  0  0  0
 16 18  1  0  0  0
 24 25  1  0  0  0
 25 26  1  0  0  0
 25 27  2  0  0  0
 27 21  1  0  0  0
  7  1  1  0  0  0
 18 12  2  0  0  0
 10 11  1  0  0  0
 15 19  1  0  0  0
M  END
> <minimizedAffinity>
-3.80779

> <CNNscore>
0.3934909403

> <CNNaffinity>
5.1835031509

> <CNN_VS>
2.0396616459

> <CNNaffinity_variance>
0.1712480038

$$$$
[H]c1c([H])c(Oc2c([H])c([H])c(OC([H])([H])[H])c([H])c2F)c(C(=O)N([H])c2c([H])c([H])n([H])c(=O)c2[H])c([H])c1Cl


 29 31  0  0  0  0  0  0  0  0999 V2000
   36.7005  -18.8479   36.1705 C   0  0  0  0  0  0  0  0  0  0  0  0
   37.1944  -17.6108   35.7256 C   0  0  0  0  0  0  0  0  0  0  0  0
   36.3114  -16.5593   35.6393 C   0  0  0  0  0  0  0  0  0  0  0  0
   34.9912  -16.6945   35.9722 C   0  0  0  0  0  0  0  0  0  0  0  0
   33.8758  -15.3404   35.8562 Cl  0  0  0  0  0  0  0  0  0  0  0  0
   34.5566  -17.9101   36.3986 C   0  0  0  0  0  0  0  0  0  0  0  0
   35.3855  -19.0466   36.5198 C   0  0  0  0  0  0  0  0  0  0  0  0
   34.8273  -20.2907   36.9817 C   0  0  0  0  0  0  0  0  0  0  0  0
   33.9360  -20.1833   37.9099 O   0  0  0  0  0  0  0  0  0  0  0  0
   35.1050  -21.5936   36.5771 N   0  0  0  0  0  0  0  0  0  0  0  0
   35.8100  -21.7709   35.8253 H   0  0  0  0  0  0  0  0  0  0  0  0
   34.5140  -22.7941   37.0941 C   0  0  0  0  0  0  0  0  0  0  0  0
   33.3812  -23.3211   36.4467 C   0  0  0  0  0  0  0  0  0  0  0  0
   32.8207  -24.4784   36.9124 C   0  0  0  0  0  0  0  0  0  0  0  0
   33.3018  -25.1492   37.9715 N   0  0  0  0  0  0  0  0  0  0  0  0
   34.3783  -24.6782   38.6119 C   0  0  0  0  0  0  0  0  0  0  0  0
   34.8317  -25.3045   39.6046 O   0  0  0  0  0  0  0  0  0  0  0  0
   34.9819  -23.4979   38.1677 C   0  0  0  0  0  0  0  0  0  0  0  0
   32.8061  -26.0271   38.2564 H   0  0  0  0  0  0  0  0  0  0  0  0
   37.5867  -19.8789   36.2470 O   0  0  0  0  0  0  0  0  0  0  0  0
   40.9413  -20.2820   38.7574 C   0  0  0  0  0  0  0  0  0  0  0  0
   40.9996  -19.5565   37.5988 C   0  0  0  0  0  0  0  0  0  0  0  0
   39.9036  -19.4270   36.7807 C   0  0  0  0  0  0  0  0  0  0  0  0
   38.6701  -20.0262   37.0829 C   0  0  0  0  0  0  0  0  0  0  0  0
   38.6516  -20.7487   38.2603 C   0  0  0  0  0  0  0  0  0  0  0  0
   37.4893  -21.3436   38.6500 F   0  0  0  0  0  0  0  0  0  0  0  0
   39.7513  -20.8865   39.0931 C   0  0  0  0  0  0  0  0  0  0  0  0
   43.3605  -20.4247   39.2248 C   0  0  0  0  0  0  0  0  0  0  0  0
   42.0154  -20.4301   39.5929 O   0  0  0  0  0  0  0  0  0  0  0  0
 28 29  1  0  0  0
 29 21  1  0  0  0
 21 22  2  0  0  0
 22 23  1  0  0  0
 23 24  2  0  0  0
 24 20  1  0  0  0
 20  1  1  0  0  0
  1  2  2  0  0  0
  2  3  1  0  0  0
  3  4  2  0  0  0
  4  5  1  0  0  0
  4  6  1  0  0  0
  6  7  2  0  0  0
  7  8  1  0  0  0
  8  9  2  0  0  0
  8 10  1  0  0  0
 10 12  1  0  0  0
 12 13  1  0  0  0
 13 14  2  0  0  0
 14 15  1  0  0  0
 15 16  1  0  0  0
 16 17  2  0  0  0
 16 18  1  0  0  0
 24 25  1  0  0  0
 25 26  1  0  0  0
 25 27  2  0  0  0
 27 21  1  0  0  0
  7  1  1  0  0  0
 18 12  2  0  0  0
 10 11  1  0  0  0
 15 19  1  0  0  0
M  END
> <minimizedAffinity>
-4.51920

> <CNNscore>
0.3770571649

> <CNNaffinity>
5.1931877136

> <CNN_VS>
1.9581286907

> <CNNaffinity_variance>
0.0982958525

$$$$
[H]c1c([H])c(Oc2c([H])c([H])c(OC([H])([H])[H])c([H])c2F)c(C(=O)N([H])c2c([H])c([H])n([H])c(=O)c2[H])c([H])c1Cl


 29 31  0  0  0  0  0  0  0  0999 V2000
   34.1990  -18.7628   34.2302 C   0  0  0  0  0  0  0  0  0  0  0  0
   33.7468  -19.9777   33.6897 C   0  0  0  0  0  0  0  0  0  0  0  0
   32.4904  -20.4113   34.0445 C   0  0  0  0  0  0  0  0  0  0  0  0
   31.6918  -19.6959   34.8946 C   0  0  0  0  0  0  0  0  0  0  0  0
   30.0882  -20.2643   35.3380 Cl  0  0  0  0  0  0  0  0  0  0  0  0
   32.1698  -18.5251   35.3935 C   0  0  0  0  0  0  0  0  0  0  0  0
   33.4439  -17.9989   35.0886 C   0  0  0  0  0  0  0  0  0  0  0  0
   33.8572  -16.7483   35.6701 C   0  0  0  0  0  0  0  0  0  0  0  0
   34.8218  -16.8307   36.5247 O   0  0  0  0  0  0  0  0  0  0  0  0
   33.3720  -15.4623   35.4489 N   0  0  0  0  0  0  0  0  0  0  0  0
   32.5949  -15.3044   34.7670 H   0  0  0  0  0  0  0  0  0  0  0  0
   33.8279  -14.2562   36.0776 C   0  0  0  0  0  0  0  0  0  0  0  0
   35.1883  -13.9126   35.9710 C   0  0  0  0  0  0  0  0  0  0  0  0
   35.6340  -12.7536   36.5438 C   0  0  0  0  0  0  0  0  0  0  0  0
   34.8293  -11.9124   37.2132 N   0  0  0  0  0  0  0  0  0  0  0  0
   33.5294  -12.2061   37.3345 C   0  0  0  0  0  0  0  0  0  0  0  0
   32.7726  -11.4199   37.9611 O   0  0  0  0  0  0  0  0  0  0  0  0
   33.0330  -13.3816   36.7632 C   0  0  0  0  0  0  0  0  0  0  0  0
   35.2600  -11.0478   37.6188 H   0  0  0  0  0  0  0  0  0  0  0  0
   35.4459  -18.3496   33.8714 O   0  0  0  0  0  0  0  0  0  0  0  0
   39.1335  -19.5566   35.5031 C   0  0  0  0  0  0  0  0  0  0  0  0
   37.9457  -19.9223   36.0753 C   0  0  0  0  0  0  0  0  0  0  0  0
   36.7434  -19.5265   35.5413 C   0  0  0  0  0  0  0  0  0  0  0  0
   36.6637  -18.7306   34.3873 C   0  0  0  0  0  0  0  0  0  0  0  0
   37.8834  -18.3834   33.8392 C   0  0  0  0  0  0  0  0  0  0  0  0
   37.9051  -17.6343   32.7012 F   0  0  0  0  0  0  0  0  0  0  0  0
   39.1025  -18.7765   34.3696 C   0  0  0  0  0  0  0  0  0  0  0  0
   41.5182  -19.1768   36.0132 C   0  0  0  0  0  0  0  0  0  0  0  0
   40.3472  -19.9342   36.0111 O   0  0  0  0  0  0  0  0  0  0  0  0
 28 29  1  0  0  0
 29 21  1  0  0  0
 21 22  2  0  0  0
 22 23  1  0  0  0
 23 24  2  0  0  0
 24 20  1  0  0  0
 20  1  1  0  0  0
  1  2  2  0  0  0
  2  3  1  0  0  0
  3  4  2  0  0  0
  4  5  1  0  0  0
  4  6  1  0  0  0
  6  7  2  0  0  0
  7  8  1  0  0  0
  8  9  2  0  0  0
  8 10  1  0  0  0
 10 12  1  0  0  0
 12 13  1  0  0  0
 13 14  2  0  0  0
 14 15  1  0  0  0
 15 16  1  0  0  0
 16 17  2  0  0  0
 16 18  1  0  0  0
 24 25  1  0  0  0
 25 26  1  0  0  0
 25 27  2  0  0  0
 27 21  1  0  0  0
  7  1  1  0  0  0
 18 12  2  0  0  0
 10 11  1  0  0  0
 15 19  1  0  0  0
M  END
> <minimizedAffinity>
-7.52001

> <CNNscore>
0.3681493700

> <CNNaffinity>
5.5215463638

> <CNN_VS>
2.0327537060

> <CNNaffinity_variance>
0.2689666152

$$$$
[H]c1c([H])c(Oc2c([H])c([H])c(OC([H])([H])[H])c([H])c2F)c(C(=O)N([H])c2c([H])c([H])n([H])c(=O)c2[H])c([H])c1Cl


 29 31  0  0  0  0  0  0  0  0999 V2000
   34.2116  -12.7116   37.2179 C   0  0  0  0  0  0  0  0  0  0  0  0
   35.2363  -12.2802   36.3598 C   0  0  0  0  0  0  0  0  0  0  0  0
   35.3442  -10.9308   36.1147 C   0  0  0  0  0  0  0  0  0  0  0  0
   34.4908  -10.0227   36.6797 C   0  0  0  0  0  0  0  0  0  0  0  0
   34.6425   -8.3013   36.3560 Cl  0  0  0  0  0  0  0  0  0  0  0  0
   33.5140  -10.4848   37.5046 C   0  0  0  0  0  0  0  0  0  0  0  0
   33.3237  -11.8487   37.8160 C   0  0  0  0  0  0  0  0  0  0  0  0
   32.2575  -12.2362   38.7025 C   0  0  0  0  0  0  0  0  0  0  0  0
   32.6323  -12.6454   39.8685 O   0  0  0  0  0  0  0  0  0  0  0  0
   30.8815  -12.2359   38.4905 N   0  0  0  0  0  0  0  0  0  0  0  0
   30.4913  -11.9133   37.5754 H   0  0  0  0  0  0  0  0  0  0  0  0
   29.8725  -12.6496   39.4224 C   0  0  0  0  0  0  0  0  0  0  0  0
   29.0128  -11.6752   39.9625 C   0  0  0  0  0  0  0  0  0  0  0  0
   28.0299  -12.0569   40.8333 C   0  0  0  0  0  0  0  0  0  0  0  0
   27.8384  -13.3327   41.2061 N   0  0  0  0  0  0  0  0  0  0  0  0
   28.6364  -14.2867   40.7123 C   0  0  0  0  0  0  0  0  0  0  0  0
   28.4595  -15.4832   41.0595 O   0  0  0  0  0  0  0  0  0  0  0  0
   29.6537  -13.9388   39.8186 C   0  0  0  0  0  0  0  0  0  0  0  0
   27.0598  -13.5305   41.8787 H   0  0  0  0  0  0  0  0  0  0  0  0
   34.1166  -14.0505   37.4474 O   0  0  0  0  0  0  0  0  0  0  0  0
   36.4143  -17.1862   35.8330 C   0  0  0  0  0  0  0  0  0  0  0  0
   35.1574  -16.9095   35.3685 C   0  0  0  0  0  0  0  0  0  0  0  0
   34.4091  -15.8860   35.8974 C   0  0  0  0  0  0  0  0  0  0  0  0
   34.8860  -15.0710   36.9367 C   0  0  0  0  0  0  0  0  0  0  0  0
   36.1582  -15.3812   37.3772 C   0  0  0  0  0  0  0  0  0  0  0  0
   36.7156  -14.6264   38.3652 F   0  0  0  0  0  0  0  0  0  0  0  0
   36.9220  -16.4117   36.8512 C   0  0  0  0  0  0  0  0  0  0  0  0
   36.7994  -19.1342   34.3674 C   0  0  0  0  0  0  0  0  0  0  0  0
   37.1842  -18.1987   35.3274 O   0  0  0  0  0  0  0  0  0  0  0  0
 28 29  1  0  0  0
 29 21  1  0  0  0
 21 22  2  0  0  0
 22 23  1  0  0  0
 23 24  2  0  0  0
 24 20  1  0  0  0
 20  1  1  0  0  0
  1  2  2  0  0  0
  2  3  1  0  0  0
  3  4  2  0  0  0
  4  5  1  0  0  0
  4  6  1  0  0  0
  6  7  2  0  0  0
  7  8  1  0  0  0
  8  9  2  0  0  0
  8 10  1  0  0  0
 10 12  1  0  0  0
 12 13  1  0  0  0
 13 14  2  0  0  0
 14 15  1  0  0  0
 15 16  1  0  0  0
 16 17  2  0  0  0
 16 18  1  0  0  0
 24 25  1  0  0  0
 25 26  1  0  0  0
 25 27  2  0  0  0
 27 21  1  0  0  0
  7  1  1  0  0  0
 18 12  2  0  0  0
 10 11  1  0  0  0
 15 19  1  0  0  0
M  END
> <minimizedAffinity>
-7.97323

> <CNNscore>
0.3436225653

> <CNNaffinity>
5.9782247543

> <CNN_VS>
2.0542528629

> <CNNaffinity_variance>
0.1852632463

$$$$
[H]c1c([H])c(Oc2c([H])c([H])c(OC([H])([H])[H])c([H])c2F)c(C(=O)N([H])c2c([H])c([H])n([H])c(=O)c2[H])c([H])c1Cl


 29 31  0  0  0  0  0  0  0  0999 V2000
   34.6678  -19.5751   36.4556 C   0  0  0  0  0  0  0  0  0  0  0  0
   33.9627  -20.7884   36.3980 C   0  0  0  0  0  0  0  0  0  0  0  0
   32.7817  -20.8129   35.6928 C   0  0  0  0  0  0  0  0  0  0  0  0
   32.2938  -19.7018   35.0607 C   0  0  0  0  0  0  0  0  0  0  0  0
   30.7825  -19.7501   34.1635 Cl  0  0  0  0  0  0  0  0  0  0  0  0
   33.0096  -18.5489   35.1424 C   0  0  0  0  0  0  0  0  0  0  0  0
   34.2300  -18.4254   35.8415 C   0  0  0  0  0  0  0  0  0  0  0  0
   34.9121  -17.1578   35.8679 C   0  0  0  0  0  0  0  0  0  0  0  0
   35.7670  -16.9729   34.9180 O   0  0  0  0  0  0  0  0  0  0  0  0
   34.7879  -16.1007   36.7652 N   0  0  0  0  0  0  0  0  0  0  0  0
   34.1129  -16.1643   37.5615 H   0  0  0  0  0  0  0  0  0  0  0  0
   35.5140  -14.8638   36.7355 C   0  0  0  0  0  0  0  0  0  0  0  0
   34.8644  -13.7117   36.2549 C   0  0  0  0  0  0  0  0  0  0  0  0
   35.5348  -12.5198   36.2431 C   0  0  0  0  0  0  0  0  0  0  0  0
   36.8002  -12.3885   36.6729 N   0  0  0  0  0  0  0  0  0  0  0  0
   37.4495  -13.4624   37.1374 C   0  0  0  0  0  0  0  0  0  0  0  0
   38.6353  -13.3427   37.5410 O   0  0  0  0  0  0  0  0  0  0  0  0
   36.8000  -14.7002   37.1669 C   0  0  0  0  0  0  0  0  0  0  0  0
   37.2328  -11.4354   36.6256 H   0  0  0  0  0  0  0  0  0  0  0  0
   35.8330  -19.5672   37.1602 O   0  0  0  0  0  0  0  0  0  0  0  0
   39.6856  -20.6501   35.8551 C   0  0  0  0  0  0  0  0  0  0  0  0
   38.6856  -21.5763   35.9748 C   0  0  0  0  0  0  0  0  0  0  0  0
   37.4292  -21.2206   36.4017 C   0  0  0  0  0  0  0  0  0  0  0  0
   37.1004  -19.8973   36.7372 C   0  0  0  0  0  0  0  0  0  0  0  0
   38.1357  -18.9925   36.6024 C   0  0  0  0  0  0  0  0  0  0  0  0
   37.9029  -17.6789   36.8794 F   0  0  0  0  0  0  0  0  0  0  0  0
   39.4073  -19.3402   36.1731 C   0  0  0  0  0  0  0  0  0  0  0  0
   42.1258  -20.8466   36.1678 C   0  0  0  0  0  0  0  0  0  0  0  0
   40.9471  -20.9728   35.4332 O   0  0  0  0  0  0  0  0  0  0  0  0
 28 29  1  0  0  0
 29 21  1  0  0  0
 21 22  2  0  0  0
 22 23  1  0  0  0
 23 24  2  0  0  0
 24 20  1  0  0  0
 20  1  1  0  0  0
  1  2  2  0  0  0
  2  3  1  0  0  0
  3  4  2  0  0  0
  4  5  1  0  0  0
  4  6  1  0  0  0
  6  7  2  0  0  0
  7  8  1  0  0  0
  8  9  2  0  0  0
  8 10  1  0  0  0
 10 12  1  0  0  0
 12 13  1  0  0  0
 13 14  2  0  0  0
 14 15  1  0  0  0
 15 16  1  0  0  0
 16 17  2  0  0  0
 16 18  1  0  0  0
 24 25  1  0  0  0
 25 26  1  0  0  0
 25 27  2  0  0  0
 27 21  1  0  0  0
  7  1  1  0  0  0
 18 12  2  0  0  0
 10 11  1  0  0  0
 15 19  1  0  0  0
M  END
> <minimizedAffinity>
-5.85360

> <CNNscore>
0.3227701485

> <CNNaffinity>
5.3736138344

> <CNN_VS>
1.7344421148

> <CNNaffinity_variance>
0.1737617552

$$$$
[H]c1c([H])c(Oc2c([H])c([H])c(OC([H])([H])[H])c([H])c2F)c(C(=O)N([H])c2c([H])c([H])n([H])c(=O)c2[H])c([H])c1Cl


 29 31  0  0  0  0  0  0  0  0999 V2000
   34.3108  -17.9100   35.3822 C   0  0  0  0  0  0  0  0  0  0  0  0
   33.0567  -17.8453   34.7534 C   0  0  0  0  0  0  0  0  0  0  0  0
   32.2868  -18.9853   34.7352 C   0  0  0  0  0  0  0  0  0  0  0  0
   32.7115  -20.1538   35.3063 C   0  0  0  0  0  0  0  0  0  0  0  0
   31.7152  -21.6021   35.2742 Cl  0  0  0  0  0  0  0  0  0  0  0  0
   33.9321  -20.1708   35.9047 C   0  0  0  0  0  0  0  0  0  0  0  0
   34.7928  -19.0538   35.9740 C   0  0  0  0  0  0  0  0  0  0  0  0
   36.0678  -19.1752   36.6315 C   0  0  0  0  0  0  0  0  0  0  0  0
   36.1374  -18.6343   37.8020 O   0  0  0  0  0  0  0  0  0  0  0  0
   37.2382  -19.7889   36.1937 N   0  0  0  0  0  0  0  0  0  0  0  0
   37.2676  -20.2575   35.2592 H   0  0  0  0  0  0  0  0  0  0  0  0
   38.4831  -19.8611   36.9030 C   0  0  0  0  0  0  0  0  0  0  0  0
   38.6226  -20.8182   37.9250 C   0  0  0  0  0  0  0  0  0  0  0  0
   39.8113  -20.9162   38.5940 C   0  0  0  0  0  0  0  0  0  0  0  0
   40.8695  -20.1351   38.3228 N   0  0  0  0  0  0  0  0  0  0  0  0
   40.7738  -19.2140   37.3568 C   0  0  0  0  0  0  0  0  0  0  0  0
   41.7635  -18.4806   37.1001 O   0  0  0  0  0  0  0  0  0  0  0  0
   39.5758  -19.0813   36.6483 C   0  0  0  0  0  0  0  0  0  0  0  0
   41.7392  -20.2822   38.8881 H   0  0  0  0  0  0  0  0  0  0  0  0
   35.0614  -16.7740   35.3886 O   0  0  0  0  0  0  0  0  0  0  0  0
   34.2839  -13.1464   37.3772 C   0  0  0  0  0  0  0  0  0  0  0  0
   33.4062  -13.6618   36.4628 C   0  0  0  0  0  0  0  0  0  0  0  0
   33.6625  -14.8456   35.8145 C   0  0  0  0  0  0  0  0  0  0  0  0
   34.8299  -15.5895   36.0502 C   0  0  0  0  0  0  0  0  0  0  0  0
   35.6896  -15.0370   36.9798 C   0  0  0  0  0  0  0  0  0  0  0  0
   36.8364  -15.7024   37.2940 F   0  0  0  0  0  0  0  0  0  0  0  0
   35.4415  -13.8432   37.6396 C   0  0  0  0  0  0  0  0  0  0  0  0
   33.2148  -10.9364   37.6307 C   0  0  0  0  0  0  0  0  0  0  0  0
   34.0575  -11.9698   38.0391 O   0  0  0  0  0  0  0  0  0  0  0  0
 28 29  1  0  0  0
 29 21  1  0  0  0
 21 22  2  0  0  0
 22 23  1  0  0  0
 23 24  2  0  0  0
 24 20  1  0  0  0
 20  1  1  0  0  0
  1  2  2  0  0  0
  2  3  1  0  0  0
  3  4  2  0  0  0
  4  5  1  0  0  0
  4  6  1  0  0  0
  6  7  2  0  0  0
  7  8  1  0  0  0
  8  9  2  0  0  0
  8 10  1  0  0  0
 10 12  1  0  0  0
 12 13  1  0  0  0
 13 14  2  0  0  0
 14 15  1  0  0  0
 15 16  1  0  0  0
 16 17  2  0  0  0
 16 18  1  0  0  0
 24 25  1  0  0  0
 25 26  1  0  0  0
 25 27  2  0  0  0
 27 21  1  0  0  0
  7  1  1  0  0  0
 18 12  2  0  0  0
 10 11  1  0  0  0
 15 19  1  0  0  0
M  END
> <minimizedAffinity>
-6.71462

> <CNNscore>
0.3183823526

> <CNNaffinity>
5.1345338821

> <CNN_VS>
1.6347450018

> <CNNaffinity_variance>
0.2520189881

$$$$
[H]c1c([H])c(Oc2c([H])c([H])c(OC([H])([H])[H])c([H])c2F)c(C(=O)N([H])c2c([H])c([H])n([H])c(=O)c2[H])c([H])c1Cl


 29 31  0  0  0  0  0  0  0  0999 V2000
   36.8412  -18.6216   36.7104 C   0  0  0  0  0  0  0  0  0  0  0  0
   37.2990  -17.3489   36.3323 C   0  0  0  0  0  0  0  0  0  0  0  0
   36.3592  -16.3798   36.0675 C   0  0  0  0  0  0  0  0  0  0  0  0
   35.0172  -16.6284   36.1644 C   0  0  0  0  0  0  0  0  0  0  0  0
   33.8289  -15.3785   35.8225 Cl  0  0  0  0  0  0  0  0  0  0  0  0
   34.6189  -17.8745   36.5343 C   0  0  0  0  0  0  0  0  0  0  0  0
   35.5068  -18.9328   36.8258 C   0  0  0  0  0  0  0  0  0  0  0  0
   34.9835  -20.2180   37.2094 C   0  0  0  0  0  0  0  0  0  0  0  0
   34.1479  -20.2007   38.1938 O   0  0  0  0  0  0  0  0  0  0  0  0
   35.2439  -21.4780   36.6775 N   0  0  0  0  0  0  0  0  0  0  0  0
   35.9043  -21.5822   35.8732 H   0  0  0  0  0  0  0  0  0  0  0  0
   34.6908  -22.7248   37.1216 C   0  0  0  0  0  0  0  0  0  0  0  0
   33.5217  -23.2031   36.5014 C   0  0  0  0  0  0  0  0  0  0  0  0
   32.9957  -24.4021   36.8964 C   0  0  0  0  0  0  0  0  0  0  0  0
   33.5446  -25.1593   37.8601 N   0  0  0  0  0  0  0  0  0  0  0  0
   34.6572  -24.7368   38.4718 C   0  0  0  0  0  0  0  0  0  0  0  0
   35.1741  -25.4440   39.3751 O   0  0  0  0  0  0  0  0  0  0  0  0
   35.2275  -23.5163   38.0975 C   0  0  0  0  0  0  0  0  0  0  0  0
   33.0709  -26.0635   38.0962 H   0  0  0  0  0  0  0  0  0  0  0  0
   37.7843  -19.5701   36.9657 O   0  0  0  0  0  0  0  0  0  0  0  0
   40.8742  -20.9473   34.4609 C   0  0  0  0  0  0  0  0  0  0  0  0
   39.5962  -21.4223   34.3455 C   0  0  0  0  0  0  0  0  0  0  0  0
   38.5895  -20.9718   35.1646 C   0  0  0  0  0  0  0  0  0  0  0  0
   38.8111  -20.0060   36.1596 C   0  0  0  0  0  0  0  0  0  0  0  0
   40.1129  -19.5511   36.2439 C   0  0  0  0  0  0  0  0  0  0  0  0
   40.4175  -18.5921   37.1627 F   0  0  0  0  0  0  0  0  0  0  0  0
   41.1365  -19.9988   35.4231 C   0  0  0  0  0  0  0  0  0  0  0  0
   41.9336  -22.5561   32.9180 C   0  0  0  0  0  0  0  0  0  0  0  0
   41.8985  -21.3762   33.6607 O   0  0  0  0  0  0  0  0  0  0  0  0
 28 29  1  0  0  0
 29 21  1  0  0  0
 21 22  2  0  0  0
 22 23  1  0  0  0
 23 24  2  0  0  0
 24 20  1  0  0  0
 20  1  1  0  0  0
  1  2  2  0  0  0
  2  3  1  0  0  0
  3  4  2  0  0  0
  4  5  1  0  0  0
  4  6  1  0  0  0
  6  7  2  0  0  0
  7  8  1  0  0  0
  8  9  2  0  0  0
  8 10  1  0  0  0
 10 12  1  0  0  0
 12 13  1  0  0  0
 13 14  2  0  0  0
 14 15  1  0  0  0
 15 16  1  0  0  0
 16 17  2  0  0  0
 16 18  1  0  0  0
 24 25  1  0  0  0
 25 26  1  0  0  0
 25 27  2  0  0  0
 27 21  1  0  0  0
  7  1  1  0  0  0
 18 12  2  0  0  0
 10 11  1  0  0  0
 15 19  1  0  0  0
M  END
> <minimizedAffinity>
-4.75579

> <CNNscore>
0.3146429062

> <CNNaffinity>
4.9396409988

> <CNN_VS>
1.5542229414

> <CNNaffinity_variance>
0.0613213703

$$$$
[H]O[C@]1([H])[C@@]([H])(C([H])([H])OP(=O)(O[H])OP(=O)(O[H])OP(=O)(O[H])OP(=O)(O[H])OP(=O)(O[H])O[H])O[C@@]([H])(n2c([H])c([H])c(=O)n([H])c2=O)[C@]1([H])O[H]


 46 47  0  0  0  0  0  0  0  0999 V2000
   36.4007  -16.7305   36.5787 P   0  0  0  0  0  0  0  0  0  0  0  0
   36.9628  -16.8382   34.9833 O   0  0  0  0  0  0  0  0  0  0  0  0
   37.4583  -16.0077   37.3789 O   0  0  0  0  0  0  0  0  0  0  0  0
   36.1908  -16.8220   34.3445 H   0  0  0  0  0  0  0  0  0  0  0  0
   34.9788  -15.8649   36.5993 O   0  0  0  0  0  0  0  0  0  0  0  0
   35.0447  -14.7260   37.3993 C   0  0  0  0  0  0  0  0  0  0  0  0
   34.7518  -11.4924   36.0430 O   0  0  0  0  0  0  0  0  0  0  0  0
   34.6734  -12.2718   37.1914 C   0  0  0  0  0  0  0  0  0  0  0  0
   33.5463  -11.7108   38.0490 C   0  0  0  0  0  0  0  0  0  0  0  0
   33.4418  -10.3338   37.9260 O   0  0  0  0  0  0  0  0  0  0  0  0
   32.3622  -12.4377   37.4331 C   0  0  0  0  0  0  0  0  0  0  0  0
   32.8671  -13.7344   37.3251 O   0  0  0  0  0  0  0  0  0  0  0  0
   34.1452  -13.6301   36.8440 C   0  0  0  0  0  0  0  0  0  0  0  0
   34.3706  -11.9786   35.2471 H   0  0  0  0  0  0  0  0  0  0  0  0
   33.8398   -9.9172   38.7372 H   0  0  0  0  0  0  0  0  0  0  0  0
   31.1976  -12.3740   38.2707 N   0  0  0  0  0  0  0  0  0  0  0  0
   31.0174  -13.1239   39.3646 C   0  0  0  0  0  0  0  0  0  0  0  0
   29.8734  -13.0334   40.1521 C   0  0  0  0  0  0  0  0  0  0  0  0
   28.9184  -12.1192   39.7455 C   0  0  0  0  0  0  0  0  0  0  0  0
   27.8541  -11.9765   40.4039 O   0  0  0  0  0  0  0  0  0  0  0  0
   29.1048  -11.3679   38.6451 N   0  0  0  0  0  0  0  0  0  0  0  0
   30.2290  -11.4993   37.9250 C   0  0  0  0  0  0  0  0  0  0  0  0
   30.3517  -10.7602   36.8904 O   0  0  0  0  0  0  0  0  0  0  0  0
   28.3622  -10.6714   38.3470 H   0  0  0  0  0  0  0  0  0  0  0  0
   36.2481  -18.2837   37.1859 O   0  0  0  0  0  0  0  0  0  0  0  0
   35.3089  -19.1890   36.1099 P   0  0  0  0  0  0  0  0  0  0  0  0
   33.7821  -18.4412   36.0305 O   0  0  0  0  0  0  0  0  0  0  0  0
   35.9167  -19.1263   34.7282 O   0  0  0  0  0  0  0  0  0  0  0  0
   33.8580  -17.6829   35.3868 H   0  0  0  0  0  0  0  0  0  0  0  0
   35.1881  -20.7693   36.6650 O   0  0  0  0  0  0  0  0  0  0  0  0
   34.0205  -20.9458   37.8712 P   0  0  0  0  0  0  0  0  0  0  0  0
   32.5029  -20.4245   37.3459 O   0  0  0  0  0  0  0  0  0  0  0  0
   34.4300  -20.0354   39.0184 O   0  0  0  0  0  0  0  0  0  0  0  0
   32.5574  -20.2861   36.3789 H   0  0  0  0  0  0  0  0  0  0  0  0
   33.9622  -22.5179   38.4702 O   0  0  0  0  0  0  0  0  0  0  0  0
   33.8640  -23.5768   37.1475 P   0  0  0  0  0  0  0  0  0  0  0  0
   32.9940  -24.9263   37.6479 O   0  0  0  0  0  0  0  0  0  0  0  0
   33.0946  -22.9302   36.0003 O   0  0  0  0  0  0  0  0  0  0  0  0
   33.3733  -25.3675   38.4324 H   0  0  0  0  0  0  0  0  0  0  0  0
   35.3987  -24.0706   36.6579 O   0  0  0  0  0  0  0  0  0  0  0  0
   36.0272  -25.2399   37.6783 P   0  0  0  0  0  0  0  0  0  0  0  0
   37.7291  -25.2890   37.5482 O   0  0  0  0  0  0  0  0  0  0  0  0
   35.5780  -24.8515   39.2767 O   0  0  0  0  0  0  0  0  0  0  0  0
   35.5257  -26.6260   37.3370 O   0  0  0  0  0  0  0  0  0  0  0  0
   38.1362  -24.4277   37.8345 H   0  0  0  0  0  0  0  0  0  0  0  0
   34.9489  -24.0872   39.2990 H   0  0  0  0  0  0  0  0  0  0  0  0
  7  8  1  0  0  0
  8  9  1  0  0  0
  9 10  1  0  0  0
  9 11  1  0  0  0
 11 12  1  0  0  0
 12 13  1  0  0  0
 13  6  1  0  0  0
  6  5  1  0  0  0
  5  1  1  0  0  0
  1  2  1  0  0  0
  1  3  2  0  0  0
  1 25  1  0  0  0
 25 26  1  0  0  0
 26 27  1  0  0  0
 26 28  2  0  0  0
 26 30  1  0  0  0
 30 31  1  0  0  0
 31 32  1  0  0  0
 31 33  2  0  0  0
 31 35  1  0  0  0
 35 36  1  0  0  0
 36 37  1  0  0  0
 36 38  2  0  0  0
 36 40  1  0  0  0
 40 41  1  0  0  0
 41 42  1  0  0  0
 41 43  1  0  0  0
 41 44  2  0  0  0
 11 16  1  0  0  0
 16 17  1  0  0  0
 17 18  2  0  0  0
 18 19  1  0  0  0
 19 20  2  0  0  0
 19 21  1  0  0  0
 21 22  1  0  0  0
 22 23  2  0  0  0
 13  8  1  0  0  0
 22 16  1  0  0  0
  7 14  1  0  0  0
 10 15  1  0  0  0
  2  4  1  0  0  0
 27 29  1  0  0  0
 32 34  1  0  0  0
 37 39  1  0  0  0
 42 45  1  0  0  0
 43 46  1  0  0  0
 21 24  1  0  0  0
M  END
> <minimizedAffinity>
-6.48458

> <CNNscore>
0.2325492948

> <CNNaffinity>
4.9510812759

> <CNN_VS>
1.1513704062

> <CNNaffinity_variance>
0.9392820597

$$$$
[H]O[C@]1([H])[C@@]([H])(C([H])([H])OP(=O)(O[H])OP(=O)(O[H])OP(=O)(O[H])OP(=O)(O[H])OP(=O)(O[H])O[H])O[C@@]([H])(n2c([H])c([H])c(=O)n([H])c2=O)[C@]1([H])O[H]


 46 47  0  0  0  0  0  0  0  0999 V2000
   37.2046  -18.2702   35.1037 P   0  0  0  0  0  0  0  0  0  0  0  0
   36.9459  -17.4393   36.5582 O   0  0  0  0  0  0  0  0  0  0  0  0
   36.9182  -17.3042   33.9784 O   0  0  0  0  0  0  0  0  0  0  0  0
   37.5576  -17.7918   37.2694 H   0  0  0  0  0  0  0  0  0  0  0  0
   38.7906  -18.7712   35.0356 O   0  0  0  0  0  0  0  0  0  0  0  0
   39.2323  -19.0102   33.7360 C   0  0  0  0  0  0  0  0  0  0  0  0
   41.7641  -21.2168   32.6861 O   0  0  0  0  0  0  0  0  0  0  0  0
   40.8914  -20.8679   33.7103 C   0  0  0  0  0  0  0  0  0  0  0  0
   41.6131  -21.1121   35.0294 C   0  0  0  0  0  0  0  0  0  0  0  0
   42.4722  -22.1976   34.9534 O   0  0  0  0  0  0  0  0  0  0  0  0
   42.3576  -19.7943   35.1681 C   0  0  0  0  0  0  0  0  0  0  0  0
   41.3569  -18.8815   34.8315 O   0  0  0  0  0  0  0  0  0  0  0  0
   40.7090  -19.3810   33.7331 C   0  0  0  0  0  0  0  0  0  0  0  0
   42.1393  -20.3984   32.2337 H   0  0  0  0  0  0  0  0  0  0  0  0
   42.0412  -22.9690   35.4109 H   0  0  0  0  0  0  0  0  0  0  0  0
   42.8522  -19.5943   36.5013 N   0  0  0  0  0  0  0  0  0  0  0  0
   42.1089  -19.1411   37.5179 C   0  0  0  0  0  0  0  0  0  0  0  0
   42.6249  -18.9601   38.7978 C   0  0  0  0  0  0  0  0  0  0  0  0
   43.9603  -19.2752   38.9721 C   0  0  0  0  0  0  0  0  0  0  0  0
   44.5034  -19.1394   40.1004 O   0  0  0  0  0  0  0  0  0  0  0  0
   44.7028  -19.7305   37.9466 N   0  0  0  0  0  0  0  0  0  0  0  0
   44.1499  -19.8847   36.7341 C   0  0  0  0  0  0  0  0  0  0  0  0
   44.9025  -20.3203   35.7983 O   0  0  0  0  0  0  0  0  0  0  0  0
   45.7257  -19.9675   38.0973 H   0  0  0  0  0  0  0  0  0  0  0  0
   36.1009  -19.5267   35.0152 O   0  0  0  0  0  0  0  0  0  0  0  0
   34.6865  -19.0535   35.8120 P   0  0  0  0  0  0  0  0  0  0  0  0
   34.3929  -17.4323   35.3855 O   0  0  0  0  0  0  0  0  0  0  0  0
   33.5213  -19.8728   35.3085 O   0  0  0  0  0  0  0  0  0  0  0  0
   33.9370  -17.4385   34.4982 H   0  0  0  0  0  0  0  0  0  0  0  0
   34.8948  -19.2219   37.4698 O   0  0  0  0  0  0  0  0  0  0  0  0
   35.7707  -20.6065   37.8764 P   0  0  0  0  0  0  0  0  0  0  0  0
   35.5111  -21.8522   36.7667 O   0  0  0  0  0  0  0  0  0  0  0  0
   35.2377  -21.0879   39.2169 O   0  0  0  0  0  0  0  0  0  0  0  0
   35.0394  -21.4698   35.9995 H   0  0  0  0  0  0  0  0  0  0  0  0
   37.4110  -20.2828   38.0719 O   0  0  0  0  0  0  0  0  0  0  0  0
   38.2717  -21.6894   37.6702 P   0  0  0  0  0  0  0  0  0  0  0  0
   37.4450  -22.9924   38.3389 O   0  0  0  0  0  0  0  0  0  0  0  0
   38.2993  -21.8865   36.1581 O   0  0  0  0  0  0  0  0  0  0  0  0
   37.3114  -22.9175   39.3035 H   0  0  0  0  0  0  0  0  0  0  0  0
   39.8284  -21.6455   38.3135 O   0  0  0  0  0  0  0  0  0  0  0  0
   39.8329  -22.0110   39.9475 P   0  0  0  0  0  0  0  0  0  0  0  0
   38.4404  -21.3733   40.7025 O   0  0  0  0  0  0  0  0  0  0  0  0
   39.8590  -23.7077   40.1155 O   0  0  0  0  0  0  0  0  0  0  0  0
   41.0257  -21.4158   40.6632 O   0  0  0  0  0  0  0  0  0  0  0  0
   37.6123  -21.7817   40.3325 H   0  0  0  0  0  0  0  0  0  0  0  0
   39.9775  -24.1550   39.2400 H   0  0  0  0  0  0  0  0  0  0  0  0
  7  8  1  0  0  0
  8  9  1  0  0  0
  9 10  1  0  0  0
  9 11  1  0  0  0
 11 12  1  0  0  0
 12 13  1  0  0  0
 13  6  1  0  0  0
  6  5  1  0  0  0
  5  1  1  0  0  0
  1  2  1  0  0  0
  1  3  2  0  0  0
  1 25  1  0  0  0
 25 26  1  0  0  0
 26 27  1  0  0  0
 26 28  2  0  0  0
 26 30  1  0  0  0
 30 31  1  0  0  0
 31 32  1  0  0  0
 31 33  2  0  0  0
 31 35  1  0  0  0
 35 36  1  0  0  0
 36 37  1  0  0  0
 36 38  2  0  0  0
 36 40  1  0  0  0
 40 41  1  0  0  0
 41 42  1  0  0  0
 41 43  1  0  0  0
 41 44  2  0  0  0
 11 16  1  0  0  0
 16 17  1  0  0  0
 17 18  2  0  0  0
 18 19  1  0  0  0
 19 20  2  0  0  0
 19 21  1  0  0  0
 21 22  1  0  0  0
 22 23  2  0  0  0
 13  8  1  0  0  0
 22 16  1  0  0  0
  7 14  1  0  0  0
 10 15  1  0  0  0
  2  4  1  0  0  0
 27 29  1  0  0  0
 32 34  1  0  0  0
 37 39  1  0  0  0
 42 45  1  0  0  0
 43 46  1  0  0  0
 21 24  1  0  0  0
M  END
> <minimizedAffinity>
-4.62362

> <CNNscore>
0.2046610415

> <CNNaffinity>
4.4353294373

> <CNN_VS>
0.9077391624

> <CNNaffinity_variance>
0.5815884471

$$$$
[H]O[C@]1([H])[C@@]([H])(C([H])([H])OP(=O)(O[H])OP(=O)(O[H])OP(=O)(O[H])OP(=O)(O[H])OP(=O)(O[H])O[H])O[C@@]([H])(n2c([H])c([H])c(=O)n([H])c2=O)[C@]1([H])O[H]


 46 47  0  0  0  0  0  0  0  0999 V2000
   34.4132  -18.6373   34.4402 P   0  0  0  0  0  0  0  0  0  0  0  0
   35.6663  -18.1854   33.3922 O   0  0  0  0  0  0  0  0  0  0  0  0
   33.4466  -17.4787   34.5092 O   0  0  0  0  0  0  0  0  0  0  0  0
   36.0273  -18.9919   32.9195 H   0  0  0  0  0  0  0  0  0  0  0  0
   33.6479  -19.9829   33.8280 O   0  0  0  0  0  0  0  0  0  0  0  0
   32.2585  -19.8833   33.8615 C   0  0  0  0  0  0  0  0  0  0  0  0
   29.5170  -21.4043   35.4589 O   0  0  0  0  0  0  0  0  0  0  0  0
   30.7530  -20.7906   35.6262 C   0  0  0  0  0  0  0  0  0  0  0  0
   31.4561  -21.4863   36.7848 C   0  0  0  0  0  0  0  0  0  0  0  0
   30.5585  -21.9084   37.7535 O   0  0  0  0  0  0  0  0  0  0  0  0
   32.0950  -22.6488   36.0428 C   0  0  0  0  0  0  0  0  0  0  0  0
   32.6111  -22.0018   34.9191 O   0  0  0  0  0  0  0  0  0  0  0  0
   31.6475  -21.1357   34.4750 C   0  0  0  0  0  0  0  0  0  0  0  0
   29.5147  -22.0018   34.6476 H   0  0  0  0  0  0  0  0  0  0  0  0
   30.6062  -21.2754   38.5197 H   0  0  0  0  0  0  0  0  0  0  0  0
   33.1181  -23.2868   36.8228 N   0  0  0  0  0  0  0  0  0  0  0  0
   34.3651  -22.8183   36.9526 C   0  0  0  0  0  0  0  0  0  0  0  0
   35.3303  -23.4658   37.7185 C   0  0  0  0  0  0  0  0  0  0  0  0
   34.9344  -24.6322   38.3477 C   0  0  0  0  0  0  0  0  0  0  0  0
   35.7484  -25.2783   39.0594 O   0  0  0  0  0  0  0  0  0  0  0  0
   33.6795  -25.0985   38.2137 N   0  0  0  0  0  0  0  0  0  0  0  0
   32.7919  -24.4305   37.4616 C   0  0  0  0  0  0  0  0  0  0  0  0
   31.6155  -24.9200   37.3704 O   0  0  0  0  0  0  0  0  0  0  0  0
   33.3922  -25.9947   38.7031 H   0  0  0  0  0  0  0  0  0  0  0  0
   35.0651  -18.8731   35.9647 O   0  0  0  0  0  0  0  0  0  0  0  0
   36.7395  -18.6567   35.8698 P   0  0  0  0  0  0  0  0  0  0  0  0
   37.0079  -17.0382   35.4171 O   0  0  0  0  0  0  0  0  0  0  0  0
   37.3554  -18.8534   37.2353 O   0  0  0  0  0  0  0  0  0  0  0  0
   36.9445  -16.4857   36.2452 H   0  0  0  0  0  0  0  0  0  0  0  0
   37.3785  -19.7221   34.7400 O   0  0  0  0  0  0  0  0  0  0  0  0
   38.8892  -19.2321   34.1679 P   0  0  0  0  0  0  0  0  0  0  0  0
   39.8111  -18.5153   35.3874 O   0  0  0  0  0  0  0  0  0  0  0  0
   38.6371  -18.1635   33.1157 O   0  0  0  0  0  0  0  0  0  0  0  0
   39.3575  -18.6845   36.2377 H   0  0  0  0  0  0  0  0  0  0  0  0
   39.7214  -20.4902   33.4208 O   0  0  0  0  0  0  0  0  0  0  0  0
   41.3549  -20.3720   33.8658 P   0  0  0  0  0  0  0  0  0  0  0  0
   42.1971  -21.5437   33.0019 O   0  0  0  0  0  0  0  0  0  0  0  0
   41.9200  -19.0115   33.4711 O   0  0  0  0  0  0  0  0  0  0  0  0
   41.8545  -22.4487   33.1340 H   0  0  0  0  0  0  0  0  0  0  0  0
   41.5516  -20.6654   35.5133 O   0  0  0  0  0  0  0  0  0  0  0  0
   43.1138  -21.1484   35.8734 P   0  0  0  0  0  0  0  0  0  0  0  0
   44.2407  -20.2294   34.9781 O   0  0  0  0  0  0  0  0  0  0  0  0
   43.3728  -20.9184   37.5430 O   0  0  0  0  0  0  0  0  0  0  0  0
   43.3593  -22.5992   35.5209 O   0  0  0  0  0  0  0  0  0  0  0  0
   44.1896  -19.2654   35.2182 H   0  0  0  0  0  0  0  0  0  0  0  0
   42.5376  -20.6539   38.0044 H   0  0  0  0  0  0  0  0  0  0  0  0
  7  8  1  0  0  0
  8  9  1  0  0  0
  9 10  1  0  0  0
  9 11  1  0  0  0
 11 12  1  0  0  0
 12 13  1  0  0  0
 13  6  1  0  0  0
  6  5  1  0  0  0
  5  1  1  0  0  0
  1  2  1  0  0  0
  1  3  2  0  0  0
  1 25  1  0  0  0
 25 26  1  0  0  0
 26 27  1  0  0  0
 26 28  2  0  0  0
 26 30  1  0  0  0
 30 31  1  0  0  0
 31 32  1  0  0  0
 31 33  2  0  0  0
 31 35  1  0  0  0
 35 36  1  0  0  0
 36 37  1  0  0  0
 36 38  2  0  0  0
 36 40  1  0  0  0
 40 41  1  0  0  0
 41 42  1  0  0  0
 41 43  1  0  0  0
 41 44  2  0  0  0
 11 16  1  0  0  0
 16 17  1  0  0  0
 17 18  2  0  0  0
 18 19  1  0  0  0
 19 20  2  0  0  0
 19 21  1  0  0  0
 21 22  1  0  0  0
 22 23  2  0  0  0
 13  8  1  0  0  0
 22 16  1  0  0  0
  7 14  1  0  0  0
 10 15  1  0  0  0
  2  4  1  0  0  0
 27 29  1  0  0  0
 32 34  1  0  0  0
 37 39  1  0  0  0
 42 45  1  0  0  0
 43 46  1  0  0  0
 21 24  1  0  0  0
M  END
> <minimizedAffinity>
-5.52751

> <CNNscore>
0.1468581557

> <CNNaffinity>
4.5256147385

> <CNN_VS>
0.6646234393

> <CNNaffinity_variance>
1.3584053516

$$$$
[H]O[C@]1([H])[C@@]([H])(C([H])([H])OP(=O)(O[H])OP(=O)(O[H])OP(=O)(O[H])OP(=O)(O[H])OP(=O)(O[H])O[H])O[C@@]([H])(n2c([H])c([H])c(=O)n([H])c2=O)[C@]1([H])O[H]


 46 47  0  0  0  0  0  0  0  0999 V2000
   37.0243  -18.2045   34.5308 P   0  0  0  0  0  0  0  0  0  0  0  0
   37.1122  -16.8607   35.5600 O   0  0  0  0  0  0  0  0  0  0  0  0
   38.0461  -17.9996   33.4374 O   0  0  0  0  0  0  0  0  0  0  0  0
   36.8812  -17.1293   36.4973 H   0  0  0  0  0  0  0  0  0  0  0  0
   37.3838  -19.5800   35.3968 O   0  0  0  0  0  0  0  0  0  0  0  0
   38.6350  -19.5291   36.0076 C   0  0  0  0  0  0  0  0  0  0  0  0
   38.9691  -22.9866   36.5693 O   0  0  0  0  0  0  0  0  0  0  0  0
   38.0954  -21.9066   36.5178 C   0  0  0  0  0  0  0  0  0  0  0  0
   37.0450  -22.1159   37.6012 C   0  0  0  0  0  0  0  0  0  0  0  0
   36.7547  -23.4591   37.7846 O   0  0  0  0  0  0  0  0  0  0  0  0
   37.7736  -21.5141   38.7916 C   0  0  0  0  0  0  0  0  0  0  0  0
   38.2852  -20.3425   38.2317 O   0  0  0  0  0  0  0  0  0  0  0  0
   38.7912  -20.6713   37.0021 C   0  0  0  0  0  0  0  0  0  0  0  0
   39.8477  -22.7237   36.9866 H   0  0  0  0  0  0  0  0  0  0  0  0
   35.8828  -23.6524   37.3458 H   0  0  0  0  0  0  0  0  0  0  0  0
   36.8850  -21.2514   39.8886 N   0  0  0  0  0  0  0  0  0  0  0  0
   35.6533  -20.7458   39.7528 C   0  0  0  0  0  0  0  0  0  0  0  0
   34.8205  -20.5048   40.8417 C   0  0  0  0  0  0  0  0  0  0  0  0
   35.3329  -20.8169   42.0879 C   0  0  0  0  0  0  0  0  0  0  0  0
   34.6425  -20.6285   43.1244 O   0  0  0  0  0  0  0  0  0  0  0  0
   36.5718  -21.3250   42.2186 N   0  0  0  0  0  0  0  0  0  0  0  0
   37.3290  -21.5358   41.1314 C   0  0  0  0  0  0  0  0  0  0  0  0
   38.4967  -22.0200   41.3158 O   0  0  0  0  0  0  0  0  0  0  0  0
   36.9497  -21.5589   43.1818 H   0  0  0  0  0  0  0  0  0  0  0  0
   35.5020  -18.2309   33.8331 O   0  0  0  0  0  0  0  0  0  0  0  0
   34.3742  -18.6383   35.0253 P   0  0  0  0  0  0  0  0  0  0  0  0
   34.5955  -20.2886   35.3774 O   0  0  0  0  0  0  0  0  0  0  0  0
   34.6670  -17.8622   36.2881 O   0  0  0  0  0  0  0  0  0  0  0  0
   35.3559  -20.3539   36.0198 H   0  0  0  0  0  0  0  0  0  0  0  0
   32.8236  -18.3368   34.4555 O   0  0  0  0  0  0  0  0  0  0  0  0
   31.7821  -19.6452   34.6850 P   0  0  0  0  0  0  0  0  0  0  0  0
   32.1874  -20.9431   33.6841 O   0  0  0  0  0  0  0  0  0  0  0  0
   30.3939  -19.1820   34.2712 O   0  0  0  0  0  0  0  0  0  0  0  0
   33.0618  -20.7494   33.2901 H   0  0  0  0  0  0  0  0  0  0  0  0
   31.6982  -20.1114   36.3003 O   0  0  0  0  0  0  0  0  0  0  0  0
   31.3971  -21.7810   36.3464 P   0  0  0  0  0  0  0  0  0  0  0  0
   31.1839  -22.2087   37.9589 O   0  0  0  0  0  0  0  0  0  0  0  0
   30.1058  -22.1126   35.6057 O   0  0  0  0  0  0  0  0  0  0  0  0
   31.9367  -21.9647   38.5312 H   0  0  0  0  0  0  0  0  0  0  0  0
   32.7029  -22.6445   35.7233 O   0  0  0  0  0  0  0  0  0  0  0  0
   33.3018  -23.7463   36.8327 P   0  0  0  0  0  0  0  0  0  0  0  0
   32.0983  -24.8841   37.2486 O   0  0  0  0  0  0  0  0  0  0  0  0
   34.6351  -24.5427   36.1286 O   0  0  0  0  0  0  0  0  0  0  0  0
   33.7350  -23.0823   38.1213 O   0  0  0  0  0  0  0  0  0  0  0  0
   31.8187  -25.4170   36.4565 H   0  0  0  0  0  0  0  0  0  0  0  0
   34.8764  -24.1399   35.2568 H   0  0  0  0  0  0  0  0  0  0  0  0
  7  8  1  0  0  0
  8  9  1  0  0  0
  9 10  1  0  0  0
  9 11  1  0  0  0
 11 12  1  0  0  0
 12 13  1  0  0  0
 13  6  1  0  0  0
  6  5  1  0  0  0
  5  1  1  0  0  0
  1  2  1  0  0  0
  1  3  2  0  0  0
  1 25  1  0  0  0
 25 26  1  0  0  0
 26 27  1  0  0  0
 26 28  2  0  0  0
 26 30  1  0  0  0
 30 31  1  0  0  0
 31 32  1  0  0  0
 31 33  2  0  0  0
 31 35  1  0  0  0
 35 36  1  0  0  0
 36 37  1  0  0  0
 36 38  2  0  0  0
 36 40  1  0  0  0
 40 41  1  0  0  0
 41 42  1  0  0  0
 41 43  1  0  0  0
 41 44  2  0  0  0
 11 16  1  0  0  0
 16 17  1  0  0  0
 17 18  2  0  0  0
 18 19  1  0  0  0
 19 20  2  0  0  0
 19 21  1  0  0  0
 21 22  1  0  0  0
 22 23  2  0  0  0
 13  8  1  0  0  0
 22 16  1  0  0  0
  7 14  1  0  0  0
 10 15  1  0  0  0
  2  4  1  0  0  0
 27 29  1  0  0  0
 32 34  1  0  0  0
 37 39  1  0  0  0
 42 45  1  0  0  0
 43 46  1  0  0  0
 21 24  1  0  0  0
M  END
> <minimizedAffinity>
-5.29718

> <CNNscore>
0.1380981505

> <CNNaffinity>
4.5335884094

> <CNN_VS>
0.6260801554

> <CNNaffinity_variance>
0.9144219160

$$$$
[H]O[C@]1([H])[C@@]([H])(C([H])([H])OP(=O)(O[H])OP(=O)(O[H])OP(=O)(O[H])OP(=O)(O[H])OP(=O)(O[H])O[H])O[C@@]([H])(n2c([H])c([H])c(=O)n([H])c2=O)[C@]1([H])O[H]


 46 47  0  0  0  0  0  0  0  0999 V2000
   36.3286  -17.0099   36.1654 P   0  0  0  0  0  0  0  0  0  0  0  0
   36.9358  -16.7002   34.6136 O   0  0  0  0  0  0  0  0  0  0  0  0
   37.3792  -16.5648   37.1551 O   0  0  0  0  0  0  0  0  0  0  0  0
   36.1841  -16.4872   33.9860 H   0  0  0  0  0  0  0  0  0  0  0  0
   34.9287  -16.1371   36.3883 O   0  0  0  0  0  0  0  0  0  0  0  0
   35.1329  -14.9454   37.0806 C   0  0  0  0  0  0  0  0  0  0  0  0
   35.2798  -11.8126   35.4850 O   0  0  0  0  0  0  0  0  0  0  0  0
   35.0610  -12.4880   36.6802 C   0  0  0  0  0  0  0  0  0  0  0  0
   33.9712  -11.7386   37.4362 C   0  0  0  0  0  0  0  0  0  0  0  0
   34.0342  -10.3721   37.2106 O   0  0  0  0  0  0  0  0  0  0  0  0
   32.7379  -12.3713   36.8128 C   0  0  0  0  0  0  0  0  0  0  0  0
   33.0917  -13.7214   36.8235 O   0  0  0  0  0  0  0  0  0  0  0  0
   34.3929  -13.8001   36.4032 C   0  0  0  0  0  0  0  0  0  0  0  0
   34.8791  -12.3118   34.7069 H   0  0  0  0  0  0  0  0  0  0  0  0
   34.4428   -9.9426   38.0097 H   0  0  0  0  0  0  0  0  0  0  0  0
   31.5537  -12.1118   37.5824 N   0  0  0  0  0  0  0  0  0  0  0  0
   30.4859  -11.4519   37.1178 C   0  0  0  0  0  0  0  0  0  0  0  0
   29.3550  -11.2197   37.8952 C   0  0  0  0  0  0  0  0  0  0  0  0
   29.3870  -11.7098   39.1882 C   0  0  0  0  0  0  0  0  0  0  0  0
   28.4031  -11.5415   39.9563 O   0  0  0  0  0  0  0  0  0  0  0  0
   30.4630  -12.3725   39.6498 N   0  0  0  0  0  0  0  0  0  0  0  0
   31.5250  -12.5661   38.8533 C   0  0  0  0  0  0  0  0  0  0  0  0
   32.5179  -13.2018   39.3451 O   0  0  0  0  0  0  0  0  0  0  0  0
   30.4713  -12.7420   40.6442 H   0  0  0  0  0  0  0  0  0  0  0  0
   36.1193  -18.6638   36.3251 O   0  0  0  0  0  0  0  0  0  0  0  0
   37.6425  -19.3980   36.3287 P   0  0  0  0  0  0  0  0  0  0  0  0
   38.7588  -18.2323   35.7887 O   0  0  0  0  0  0  0  0  0  0  0  0
   38.0239  -19.7700   37.7424 O   0  0  0  0  0  0  0  0  0  0  0  0
   38.9900  -17.6599   36.5723 H   0  0  0  0  0  0  0  0  0  0  0  0
   37.6203  -20.7385   35.3174 O   0  0  0  0  0  0  0  0  0  0  0  0
   39.0601  -20.9257   34.4564 P   0  0  0  0  0  0  0  0  0  0  0  0
   39.0447  -20.0354   33.0219 O   0  0  0  0  0  0  0  0  0  0  0  0
   39.1540  -22.3928   34.0673 O   0  0  0  0  0  0  0  0  0  0  0  0
   38.2701  -19.4384   33.0539 H   0  0  0  0  0  0  0  0  0  0  0  0
   40.4101  -20.5647   35.3949 O   0  0  0  0  0  0  0  0  0  0  0  0
   41.6039  -19.9298   34.3691 P   0  0  0  0  0  0  0  0  0  0  0  0
   41.7272  -20.9586   33.0445 O   0  0  0  0  0  0  0  0  0  0  0  0
   41.1890  -18.5567   33.8508 O   0  0  0  0  0  0  0  0  0  0  0  0
   41.9182  -21.8856   33.2855 H   0  0  0  0  0  0  0  0  0  0  0  0
   43.0958  -19.8678   35.1497 O   0  0  0  0  0  0  0  0  0  0  0  0
   43.5592  -21.3727   35.7186 P   0  0  0  0  0  0  0  0  0  0  0  0
   45.0280  -21.2548   36.5817 O   0  0  0  0  0  0  0  0  0  0  0  0
   42.3289  -21.9586   36.7436 O   0  0  0  0  0  0  0  0  0  0  0  0
   43.7931  -22.3609   34.5970 O   0  0  0  0  0  0  0  0  0  0  0  0
   44.9270  -20.6771   37.3852 H   0  0  0  0  0  0  0  0  0  0  0  0
   41.5344  -21.3679   36.7275 H   0  0  0  0  0  0  0  0  0  0  0  0
  7  8  1  0  0  0
  8  9  1  0  0  0
  9 10  1  0  0  0
  9 11  1  0  0  0
 11 12  1  0  0  0
 12 13  1  0  0  0
 13  6  1  0  0  0
  6  5  1  0  0  0
  5  1  1  0  0  0
  1  2  1  0  0  0
  1  3  2  0  0  0
  1 25  1  0  0  0
 25 26  1  0  0  0
 26 27  1  0  0  0
 26 28  2  0  0  0
 26 30  1  0  0  0
 30 31  1  0  0  0
 31 32  1  0  0  0
 31 33  2  0  0  0
 31 35  1  0  0  0
 35 36  1  0  0  0
 36 37  1  0  0  0
 36 38  2  0  0  0
 36 40  1  0  0  0
 40 41  1  0  0  0
 41 42  1  0  0  0
 41 43  1  0  0  0
 41 44  2  0  0  0
 11 16  1  0  0  0
 16 17  1  0  0  0
 17 18  2  0  0  0
 18 19  1  0  0  0
 19 20  2  0  0  0
 19 21  1  0  0  0
 21 22  1  0  0  0
 22 23  2  0  0  0
 13  8  1  0  0  0
 22 16  1  0  0  0
  7 14  1  0  0  0
 10 15  1  0  0  0
  2  4  1  0  0  0
 27 29  1  0  0  0
 32 34  1  0  0  0
 37 39  1  0  0  0
 42 45  1  0  0  0
 43 46  1  0  0  0
 21 24  1  0  0  0
M  END
> <minimizedAffinity>
-6.99924

> <CNNscore>
0.1167356521

> <CNNaffinity>
4.7127656937

> <CNN_VS>
0.5501477718

> <CNNaffinity_variance>
0.9726346731

$$$$
[H]O[C@]1([H])[C@@]([H])(C([H])([H])OP(=O)(O[H])OP(=O)(O[H])OP(=O)(O[H])OP(=O)(O[H])OP(=O)(O[H])O[H])O[C@@]([H])(n2c([H])c([H])c(=O)n([H])c2=O)[C@]1([H])O[H]


 46 47  0  0  0  0  0  0  0  0999 V2000
   34.9350  -21.3230   39.5792 P   0  0  0  0  0  0  0  0  0  0  0  0
   35.8496  -22.0464   40.8093 O   0  0  0  0  0  0  0  0  0  0  0  0
   34.7480  -19.8717   39.9537 O   0  0  0  0  0  0  0  0  0  0  0  0
   36.4142  -22.7827   40.4308 H   0  0  0  0  0  0  0  0  0  0  0  0
   35.7657  -21.4385   38.1412 O   0  0  0  0  0  0  0  0  0  0  0  0
   36.4822  -20.2847   37.8306 C   0  0  0  0  0  0  0  0  0  0  0  0
   36.6181  -19.7019   34.3631 O   0  0  0  0  0  0  0  0  0  0  0  0
   36.9572  -19.2285   35.6253 C   0  0  0  0  0  0  0  0  0  0  0  0
   36.8347  -17.7104   35.5927 C   0  0  0  0  0  0  0  0  0  0  0  0
   37.1732  -17.1928   34.3519 O   0  0  0  0  0  0  0  0  0  0  0  0
   35.3530  -17.5610   35.8968 C   0  0  0  0  0  0  0  0  0  0  0  0
   35.2000  -18.4658   36.9483 O   0  0  0  0  0  0  0  0  0  0  0  0
   35.8883  -19.5998   36.6073 C   0  0  0  0  0  0  0  0  0  0  0  0
   35.7023  -20.1221   34.3665 H   0  0  0  0  0  0  0  0  0  0  0  0
   38.0856  -16.8010   34.4158 H   0  0  0  0  0  0  0  0  0  0  0  0
   35.0157  -16.2185   36.2789 N   0  0  0  0  0  0  0  0  0  0  0  0
   33.9490  -15.5528   35.8204 C   0  0  0  0  0  0  0  0  0  0  0  0
   33.6548  -14.2508   36.2148 C   0  0  0  0  0  0  0  0  0  0  0  0
   34.5288  -13.6694   37.1155 C   0  0  0  0  0  0  0  0  0  0  0  0
   34.3333  -12.4935   37.5223 O   0  0  0  0  0  0  0  0  0  0  0  0
   35.5995  -14.3434   37.5732 N   0  0  0  0  0  0  0  0  0  0  0  0
   35.8319  -15.5972   37.1566 C   0  0  0  0  0  0  0  0  0  0  0  0
   36.8632  -16.1882   37.6246 O   0  0  0  0  0  0  0  0  0  0  0  0
   36.2600  -13.8827   38.2637 H   0  0  0  0  0  0  0  0  0  0  0  0
   33.4305  -22.0578   39.5445 O   0  0  0  0  0  0  0  0  0  0  0  0
   33.6544  -23.7330   39.4909 P   0  0  0  0  0  0  0  0  0  0  0  0
   35.1678  -24.0104   38.7633 O   0  0  0  0  0  0  0  0  0  0  0  0
   33.7200  -24.2821   40.8968 O   0  0  0  0  0  0  0  0  0  0  0  0
   35.8606  -23.9016   39.4726 H   0  0  0  0  0  0  0  0  0  0  0  0
   32.4121  -24.4359   38.6061 O   0  0  0  0  0  0  0  0  0  0  0  0
   32.7213  -24.4439   36.9467 P   0  0  0  0  0  0  0  0  0  0  0  0
   31.3340  -24.8170   36.0595 O   0  0  0  0  0  0  0  0  0  0  0  0
   33.7250  -25.5571   36.6903 O   0  0  0  0  0  0  0  0  0  0  0  0
   30.5731  -24.7812   36.6736 H   0  0  0  0  0  0  0  0  0  0  0  0
   33.4205  -23.0038   36.4264 O   0  0  0  0  0  0  0  0  0  0  0  0
   32.1703  -21.9578   35.9536 P   0  0  0  0  0  0  0  0  0  0  0  0
   32.7902  -20.3945   35.9693 O   0  0  0  0  0  0  0  0  0  0  0  0
   31.7266  -22.2646   34.5270 O   0  0  0  0  0  0  0  0  0  0  0  0
   33.1696  -20.1328   36.8304 H   0  0  0  0  0  0  0  0  0  0  0  0
   30.8777  -22.0407   37.0312 O   0  0  0  0  0  0  0  0  0  0  0  0
   29.5313  -21.2361   36.4452 P   0  0  0  0  0  0  0  0  0  0  0  0
   28.7302  -22.1911   35.2781 O   0  0  0  0  0  0  0  0  0  0  0  0
   28.4854  -20.9207   37.7545 O   0  0  0  0  0  0  0  0  0  0  0  0
   29.8942  -19.9339   35.7656 O   0  0  0  0  0  0  0  0  0  0  0  0
   28.3919  -23.0372   35.6771 H   0  0  0  0  0  0  0  0  0  0  0  0
   28.9048  -21.1640   38.6179 H   0  0  0  0  0  0  0  0  0  0  0  0
  7  8  1  0  0  0
  8  9  1  0  0  0
  9 10  1  0  0  0
  9 11  1  0  0  0
 11 12  1  0  0  0
 12 13  1  0  0  0
 13  6  1  0  0  0
  6  5  1  0  0  0
  5  1  1  0  0  0
  1  2  1  0  0  0
  1  3  2  0  0  0
  1 25  1  0  0  0
 25 26  1  0  0  0
 26 27  1  0  0  0
 26 28  2  0  0  0
 26 30  1  0  0  0
 30 31  1  0  0  0
 31 32  1  0  0  0
 31 33  2  0  0  0
 31 35  1  0  0  0
 35 36  1  0  0  0
 36 37  1  0  0  0
 36 38  2  0  0  0
 36 40  1  0  0  0
 40 41  1  0  0  0
 41 42  1  0  0  0
 41 43  1  0  0  0
 41 44  2  0  0  0
 11 16  1  0  0  0
 16 17  1  0  0  0
 17 18  2  0  0  0
 18 19  1  0  0  0
 19 20  2  0  0  0
 19 21  1  0  0  0
 21 22  1  0  0  0
 22 23  2  0  0  0
 13  8  1  0  0  0
 22 16  1  0  0  0
  7 14  1  0  0  0
 10 15  1  0  0  0
  2  4  1  0  0  0
 27 29  1  0  0  0
 32 34  1  0  0  0
 37 39  1  0  0  0
 42 45  1  0  0  0
 43 46  1  0  0  0
 21 24  1  0  0  0
M  END
> <minimizedAffinity>
-5.93222

> <CNNscore>
0.0997074619

> <CNNaffinity>
4.4166474342

> <CNN_VS>
0.4403727055

> <CNNaffinity_variance>
0.0900164992

$$$$
[H]O[C@]1([H])[C@@]([H])(C([H])([H])OP(=O)(O[H])OP(=O)(O[H])OP(=O)(O[H])OP(=O)(O[H])OP(=O)(O[H])O[H])O[C@@]([H])(n2c([H])c([H])c(=O)n([H])c2=O)[C@]1([H])O[H]


 46 47  0  0  0  0  0  0  0  0999 V2000
   36.7769  -17.8809   36.1070 P   0  0  0  0  0  0  0  0  0  0  0  0
   36.2241  -17.0384   34.7441 O   0  0  0  0  0  0  0  0  0  0  0  0
   37.1329  -16.8536   37.1554 O   0  0  0  0  0  0  0  0  0  0  0  0
   35.5399  -17.5842   34.2561 H   0  0  0  0  0  0  0  0  0  0  0  0
   35.5612  -18.8703   36.6675 O   0  0  0  0  0  0  0  0  0  0  0  0
   35.6714  -19.1538   38.0272 C   0  0  0  0  0  0  0  0  0  0  0  0
   36.0188  -22.6386   38.3700 O   0  0  0  0  0  0  0  0  0  0  0  0
   35.6374  -21.5952   37.5344 C   0  0  0  0  0  0  0  0  0  0  0  0
   34.4451  -22.0760   36.7171 C   0  0  0  0  0  0  0  0  0  0  0  0
   34.5285  -23.4302   36.4318 O   0  0  0  0  0  0  0  0  0  0  0  0
   33.3183  -21.7577   37.6862 C   0  0  0  0  0  0  0  0  0  0  0  0
   33.6778  -20.4767   38.1078 O   0  0  0  0  0  0  0  0  0  0  0  0
   35.0262  -20.4953   38.3475 C   0  0  0  0  0  0  0  0  0  0  0  0
   35.7371  -22.4637   39.3215 H   0  0  0  0  0  0  0  0  0  0  0  0
   34.8156  -23.5322   35.4846 H   0  0  0  0  0  0  0  0  0  0  0  0
   32.0344  -21.7800   37.0434 N   0  0  0  0  0  0  0  0  0  0  0  0
   31.5572  -20.7860   36.2847 C   0  0  0  0  0  0  0  0  0  0  0  0
   30.3062  -20.8444   35.6774 C   0  0  0  0  0  0  0  0  0  0  0  0
   29.5693  -21.9940   35.8979 C   0  0  0  0  0  0  0  0  0  0  0  0
   28.4270  -22.1252   35.3837 O   0  0  0  0  0  0  0  0  0  0  0  0
   30.0541  -22.9901   36.6614 N   0  0  0  0  0  0  0  0  0  0  0  0
   31.2679  -22.8769   37.2214 C   0  0  0  0  0  0  0  0  0  0  0  0
   31.6766  -23.8536   37.9361 O   0  0  0  0  0  0  0  0  0  0  0  0
   29.4760  -23.8652   36.8205 H   0  0  0  0  0  0  0  0  0  0  0  0
   38.1704  -18.7070   35.6821 O   0  0  0  0  0  0  0  0  0  0  0  0
   38.0159  -19.2287   34.0810 P   0  0  0  0  0  0  0  0  0  0  0  0
   36.3740  -19.6031   33.8353 O   0  0  0  0  0  0  0  0  0  0  0  0
   38.3686  -18.0988   33.1422 O   0  0  0  0  0  0  0  0  0  0  0  0
   35.9016  -18.7460   33.6423 H   0  0  0  0  0  0  0  0  0  0  0  0
   38.9935  -20.5715   33.8330 O   0  0  0  0  0  0  0  0  0  0  0  0
   40.6232  -20.1654   33.6646 P   0  0  0  0  0  0  0  0  0  0  0  0
   40.9593  -18.6562   34.3431 O   0  0  0  0  0  0  0  0  0  0  0  0
   40.8981  -20.0528   32.1732 O   0  0  0  0  0  0  0  0  0  0  0  0
   40.1760  -18.3861   34.8635 H   0  0  0  0  0  0  0  0  0  0  0  0
   41.6394  -21.3597   34.2767 O   0  0  0  0  0  0  0  0  0  0  0  0
   41.6822  -21.1932   35.9652 P   0  0  0  0  0  0  0  0  0  0  0  0
   40.1393  -20.7486   36.4655 O   0  0  0  0  0  0  0  0  0  0  0  0
   42.0160  -22.5266   36.6261 O   0  0  0  0  0  0  0  0  0  0  0  0
   39.8066  -19.9381   36.0341 H   0  0  0  0  0  0  0  0  0  0  0  0
   42.7696  -19.9903   36.4230 O   0  0  0  0  0  0  0  0  0  0  0  0
   42.1286  -18.9952   37.6072 P   0  0  0  0  0  0  0  0  0  0  0  0
   40.8121  -18.1033   36.9847 O   0  0  0  0  0  0  0  0  0  0  0  0
   41.6064  -19.9737   38.9024 O   0  0  0  0  0  0  0  0  0  0  0  0
   43.1361  -17.9861   38.1130 O   0  0  0  0  0  0  0  0  0  0  0  0
   40.0722  -18.7051   36.7022 H   0  0  0  0  0  0  0  0  0  0  0  0
   41.8727  -20.9183   38.7709 H   0  0  0  0  0  0  0  0  0  0  0  0
  7  8  1  0  0  0
  8  9  1  0  0  0
  9 10  1  0  0  0
  9 11  1  0  0  0
 11 12  1  0  0  0
 12 13  1  0  0  0
 13  6  1  0  0  0
  6  5  1  0  0  0
  5  1  1  0  0  0
  1  2  1  0  0  0
  1  3  2  0  0  0
  1 25  1  0  0  0
 25 26  1  0  0  0
 26 27  1  0  0  0
 26 28  2  0  0  0
 26 30  1  0  0  0
 30 31  1  0  0  0
 31 32  1  0  0  0
 31 33  2  0  0  0
 31 35  1  0  0  0
 35 36  1  0  0  0
 36 37  1  0  0  0
 36 38  2  0  0  0
 36 40  1  0  0  0
 40 41  1  0  0  0
 41 42  1  0  0  0
 41 43  1  0  0  0
 41 44  2  0  0  0
 11 16  1  0  0  0
 16 17  1  0  0  0
 17 18  2  0  0  0
 18 19  1  0  0  0
 19 20  2  0  0  0
 19 21  1  0  0  0
 21 22  1  0  0  0
 22 23  2  0  0  0
 13  8  1  0  0  0
 22 16  1  0  0  0
  7 14  1  0  0  0
 10 15  1  0  0  0
  2  4  1  0  0  0
 27 29  1  0  0  0
 32 34  1  0  0  0
 37 39  1  0  0  0
 42 45  1  0  0  0
 43 46  1  0  0  0
 21 24  1  0  0  0
M  END
> <minimizedAffinity>
-5.20200

> <CNNscore>
0.0989147797

> <CNNaffinity>
4.2078642845

> <CNN_VS>
0.4162199795

> <CNNaffinity_variance>
1.1316320896

$$$$
[H]O[C@]1([H])[C@@]([H])(C([H])([H])OP(=O)(O[H])OP(=O)(O[H])OP(=O)(O[H])OP(=O)(O[H])OP(=O)(O[H])O[H])O[C@@]([H])(n2c([H])c([H])c(=O)n([H])c2=O)[C@]1([H])O[H]


 46 47  0  0  0  0  0  0  0  0999 V2000
   35.5453  -15.9541   36.6290 P   0  0  0  0  0  0  0  0  0  0  0  0
   36.0023  -15.3581   38.1485 O   0  0  0  0  0  0  0  0  0  0  0  0
   36.6178  -15.5470   35.6465 O   0  0  0  0  0  0  0  0  0  0  0  0
   35.6686  -15.9664   38.8715 H   0  0  0  0  0  0  0  0  0  0  0  0
   35.4395  -17.6138   36.7028 O   0  0  0  0  0  0  0  0  0  0  0  0
   36.5244  -18.2017   37.3498 C   0  0  0  0  0  0  0  0  0  0  0  0
   37.5249  -21.2533   38.7878 O   0  0  0  0  0  0  0  0  0  0  0  0
   37.1422  -20.5992   37.6225 C   0  0  0  0  0  0  0  0  0  0  0  0
   36.3192  -21.5797   36.7967 C   0  0  0  0  0  0  0  0  0  0  0  0
   36.7615  -22.8842   36.9544 O   0  0  0  0  0  0  0  0  0  0  0  0
   34.9485  -21.3554   37.4139 C   0  0  0  0  0  0  0  0  0  0  0  0
   34.9075  -19.9620   37.4826 O   0  0  0  0  0  0  0  0  0  0  0  0
   36.1273  -19.5455   37.9455 C   0  0  0  0  0  0  0  0  0  0  0  0
   36.9884  -20.9321   39.5779 H   0  0  0  0  0  0  0  0  0  0  0  0
   37.2863  -23.1352   36.1472 H   0  0  0  0  0  0  0  0  0  0  0  0
   33.8969  -21.8923   36.5967 N   0  0  0  0  0  0  0  0  0  0  0  0
   33.3241  -21.2340   35.5818 C   0  0  0  0  0  0  0  0  0  0  0  0
   32.3060  -21.7887   34.8116 C   0  0  0  0  0  0  0  0  0  0  0  0
   31.9089  -23.0699   35.1490 C   0  0  0  0  0  0  0  0  0  0  0  0
   30.9934  -23.6430   34.5009 O   0  0  0  0  0  0  0  0  0  0  0  0
   32.4883  -23.7270   36.1701 N   0  0  0  0  0  0  0  0  0  0  0  0
   33.4658  -23.1405   36.8774 C   0  0  0  0  0  0  0  0  0  0  0  0
   33.9791  -23.8116   37.8355 O   0  0  0  0  0  0  0  0  0  0  0  0
   32.1718  -24.7092   36.4158 H   0  0  0  0  0  0  0  0  0  0  0  0
   34.1119  -15.2106   36.1847 O   0  0  0  0  0  0  0  0  0  0  0  0
   34.0954  -13.6493   36.8337 P   0  0  0  0  0  0  0  0  0  0  0  0
   35.6859  -13.0518   36.7347 O   0  0  0  0  0  0  0  0  0  0  0  0
   33.2219  -12.7555   35.9849 O   0  0  0  0  0  0  0  0  0  0  0  0
   35.8144  -12.7068   35.8076 H   0  0  0  0  0  0  0  0  0  0  0  0
   33.5625  -13.7101   38.4250 O   0  0  0  0  0  0  0  0  0  0  0  0
   32.4066  -12.5286   38.7678 P   0  0  0  0  0  0  0  0  0  0  0  0
   32.9792  -10.9802   38.4140 O   0  0  0  0  0  0  0  0  0  0  0  0
   32.1568  -12.5777   40.2671 O   0  0  0  0  0  0  0  0  0  0  0  0
   33.8106  -11.0819   37.9081 H   0  0  0  0  0  0  0  0  0  0  0  0
   30.9401  -12.8369   38.0012 O   0  0  0  0  0  0  0  0  0  0  0  0
   29.9056  -11.5269   38.3079 P   0  0  0  0  0  0  0  0  0  0  0  0
   29.7901  -11.3581   39.9772 O   0  0  0  0  0  0  0  0  0  0  0  0
   30.4980  -10.2357   37.7528 O   0  0  0  0  0  0  0  0  0  0  0  0
   29.4874  -12.1676   40.4322 H   0  0  0  0  0  0  0  0  0  0  0  0
   28.3677  -11.8166   37.6834 O   0  0  0  0  0  0  0  0  0  0  0  0
   27.3952  -12.6219   38.7829 P   0  0  0  0  0  0  0  0  0  0  0  0
   26.0665  -13.3401   37.9861 O   0  0  0  0  0  0  0  0  0  0  0  0
   28.3335  -13.8240   39.5461 O   0  0  0  0  0  0  0  0  0  0  0  0
   26.8224  -11.6908   39.8289 O   0  0  0  0  0  0  0  0  0  0  0  0
   26.3680  -14.0266   37.3324 H   0  0  0  0  0  0  0  0  0  0  0  0
   29.2870  -13.7549   39.2883 H   0  0  0  0  0  0  0  0  0  0  0  0
  7  8  1  0  0  0
  8  9  1  0  0  0
  9 10  1  0  0  0
  9 11  1  0  0  0
 11 12  1  0  0  0
 12 13  1  0  0  0
 13  6  1  0  0  0
  6  5  1  0  0  0
  5  1  1  0  0  0
  1  2  1  0  0  0
  1  3  2  0  0  0
  1 25  1  0  0  0
 25 26  1  0  0  0
 26 27  1  0  0  0
 26 28  2  0  0  0
 26 30  1  0  0  0
 30 31  1  0  0  0
 31 32  1  0  0  0
 31 33  2  0  0  0
 31 35  1  0  0  0
 35 36  1  0  0  0
 36 37  1  0  0  0
 36 38  2  0  0  0
 36 40  1  0  0  0
 40 41  1  0  0  0
 41 42  1  0  0  0
 41 43  1  0  0  0
 41 44  2  0  0  0
 11 16  1  0  0  0
 16 17  1  0  0  0
 17 18  2  0  0  0
 18 19  1  0  0  0
 19 20  2  0  0  0
 19 21  1  0  0  0
 21 22  1  0  0  0
 22 23  2  0  0  0
 13  8  1  0  0  0
 22 16  1  0  0  0
  7 14  1  0  0  0
 10 15  1  0  0  0
  2  4  1  0  0  0
 27 29  1  0  0  0
 32 34  1  0  0  0
 37 39  1  0  0  0
 42 45  1  0  0  0
 43 46  1  0  0  0
 21 24  1  0  0  0
M  END
> <minimizedAffinity>
-6.18141

> <CNNscore>
0.0980171934

> <CNNaffinity>
4.2162313461

> <CNN_VS>
0.4132631719

> <CNNaffinity_variance>
0.8230555654

$$$$
[H]O[C@]1([H])[C@@]([H])(C([H])([H])OP(=O)(O[H])OP(=O)(O[H])OP(=O)(O[H])OP(=O)(O[H])OP(=O)(O[H])O[H])O[C@@]([H])(n2c([H])c([H])c(=O)n([H])c2=O)[C@]1([H])O[H]


 46 47  0  0  0  0  0  0  0  0999 V2000
   35.5114  -15.1167   36.3970 P   0  0  0  0  0  0  0  0  0  0  0  0
   35.8097  -14.7127   38.0159 O   0  0  0  0  0  0  0  0  0  0  0  0
   36.3112  -14.1623   35.5420 O   0  0  0  0  0  0  0  0  0  0  0  0
   35.7562  -15.5319   38.5905 H   0  0  0  0  0  0  0  0  0  0  0  0
   36.0096  -16.6815   36.1240 O   0  0  0  0  0  0  0  0  0  0  0  0
   36.2732  -17.3832   37.2985 C   0  0  0  0  0  0  0  0  0  0  0  0
   34.2243  -20.2419   37.4037 O   0  0  0  0  0  0  0  0  0  0  0  0
   35.1862  -19.4886   38.0666 C   0  0  0  0  0  0  0  0  0  0  0  0
   36.1000  -20.4596   38.8034 C   0  0  0  0  0  0  0  0  0  0  0  0
   35.4109  -21.5758   39.2521 O   0  0  0  0  0  0  0  0  0  0  0  0
   37.0791  -20.7935   37.6899 C   0  0  0  0  0  0  0  0  0  0  0  0
   37.3310  -19.5263   37.1621 O   0  0  0  0  0  0  0  0  0  0  0  0
   36.1262  -18.8814   37.0704 C   0  0  0  0  0  0  0  0  0  0  0  0
   34.4091  -20.2775   36.4138 H   0  0  0  0  0  0  0  0  0  0  0  0
   35.2563  -21.4746   40.2298 H   0  0  0  0  0  0  0  0  0  0  0  0
   38.2690  -21.4219   38.1912 N   0  0  0  0  0  0  0  0  0  0  0  0
   39.3234  -20.7549   38.6756 C   0  0  0  0  0  0  0  0  0  0  0  0
   40.4604  -21.4002   39.1531 C   0  0  0  0  0  0  0  0  0  0  0  0
   40.4490  -22.7824   39.1029 C   0  0  0  0  0  0  0  0  0  0  0  0
   41.4397  -23.4416   39.5159 O   0  0  0  0  0  0  0  0  0  0  0  0
   39.3863  -23.4477   38.6151 N   0  0  0  0  0  0  0  0  0  0  0  0
   38.3176  -22.7709   38.1685 C   0  0  0  0  0  0  0  0  0  0  0  0
   37.3380  -23.4549   37.7164 O   0  0  0  0  0  0  0  0  0  0  0  0
   39.3938  -24.5081   38.5836 H   0  0  0  0  0  0  0  0  0  0  0  0
   33.8847  -14.8678   36.0866 O   0  0  0  0  0  0  0  0  0  0  0  0
   33.4387  -13.3718   36.7366 P   0  0  0  0  0  0  0  0  0  0  0  0
   34.6310  -12.2505   36.2700 O   0  0  0  0  0  0  0  0  0  0  0  0
   32.1311  -12.9228   36.1276 O   0  0  0  0  0  0  0  0  0  0  0  0
   34.4123  -11.9562   35.3423 H   0  0  0  0  0  0  0  0  0  0  0  0
   33.3362  -13.4959   38.4082 O   0  0  0  0  0  0  0  0  0  0  0  0
   31.9963  -12.6850   39.0380 P   0  0  0  0  0  0  0  0  0  0  0  0
   31.8296  -11.1462   38.3633 O   0  0  0  0  0  0  0  0  0  0  0  0
   32.2556  -12.4925   40.5241 O   0  0  0  0  0  0  0  0  0  0  0  0
   32.4422  -11.0901   37.6025 H   0  0  0  0  0  0  0  0  0  0  0  0
   30.5822  -13.5851   38.8845 O   0  0  0  0  0  0  0  0  0  0  0  0
   29.2679  -12.5252   39.0569 P   0  0  0  0  0  0  0  0  0  0  0  0
   29.6767  -11.4068   40.2445 O   0  0  0  0  0  0  0  0  0  0  0  0
   29.0268  -11.7567   37.7617 O   0  0  0  0  0  0  0  0  0  0  0  0
   29.9224  -11.8142   41.0974 H   0  0  0  0  0  0  0  0  0  0  0  0
   27.8860  -13.3562   39.5455 O   0  0  0  0  0  0  0  0  0  0  0  0
   28.2625  -14.6593   40.5271 P   0  0  0  0  0  0  0  0  0  0  0  0
   28.6945  -16.0119   39.5785 O   0  0  0  0  0  0  0  0  0  0  0  0
   29.5672  -14.2133   41.5304 O   0  0  0  0  0  0  0  0  0  0  0  0
   27.0913  -15.0867   41.3843 O   0  0  0  0  0  0  0  0  0  0  0  0
   29.5115  -15.8279   39.0416 H   0  0  0  0  0  0  0  0  0  0  0  0
   29.7860  -13.2526   41.4317 H   0  0  0  0  0  0  0  0  0  0  0  0
  7  8  1  0  0  0
  8  9  1  0  0  0
  9 10  1  0  0  0
  9 11  1  0  0  0
 11 12  1  0  0  0
 12 13  1  0  0  0
 13  6  1  0  0  0
  6  5  1  0  0  0
  5  1  1  0  0  0
  1  2  1  0  0  0
  1  3  2  0  0  0
  1 25  1  0  0  0
 25 26  1  0  0  0
 26 27  1  0  0  0
 26 28  2  0  0  0
 26 30  1  0  0  0
 30 31  1  0  0  0
 31 32  1  0  0  0
 31 33  2  0  0  0
 31 35  1  0  0  0
 35 36  1  0  0  0
 36 37  1  0  0  0
 36 38  2  0  0  0
 36 40  1  0  0  0
 40 41  1  0  0  0
 41 42  1  0  0  0
 41 43  1  0  0  0
 41 44  2  0  0  0
 11 16  1  0  0  0
 16 17  1  0  0  0
 17 18  2  0  0  0
 18 19  1  0  0  0
 19 20  2  0  0  0
 19 21  1  0  0  0
 21 22  1  0  0  0
 22 23  2  0  0  0
 13  8  1  0  0  0
 22 16  1  0  0  0
  7 14  1  0  0  0
 10 15  1  0  0  0
  2  4  1  0  0  0
 27 29  1  0  0  0
 32 34  1  0  0  0
 37 39  1  0  0  0
 42 45  1  0  0  0
 43 46  1  0  0  0
 21 24  1  0  0  0
M  END
> <minimizedAffinity>
-6.07916

> <CNNscore>
0.0716328546

> <CNNaffinity>
4.4409713745

> <CNN_VS>
0.3181194663

> <CNNaffinity_variance>
0.7004830241

$$$$
[H]ON([H])C(=O)C([H])([H])N(C([H])([H])c1c([H])c([H])c([N+](=O)[O-])c([H])c1[H])S(=O)(=O)c1c([H])c([H])c([H])c2c([H])c([H])c([H])c([H])c12


 31 33  0  0  0  0  0  0  0  0999 V2000
   35.5951  -18.5300   34.8713 N   0  0  0  0  0  0  0  0  0  0  0  0
   35.5407  -17.8565   36.4296 S   0  0  0  0  0  0  0  0  0  0  0  0
   36.7974  -18.1030   37.2192 O   0  0  0  0  0  0  0  0  0  0  0  0
   34.4388  -18.5844   37.1981 O   0  0  0  0  0  0  0  0  0  0  0  0
   35.1018  -16.1743   36.3776 C   0  0  0  0  0  0  0  0  0  0  0  0
   33.8398  -15.7872   35.9070 C   0  0  0  0  0  0  0  0  0  0  0  0
   33.4581  -14.4823   35.8218 C   0  0  0  0  0  0  0  0  0  0  0  0
   34.3035  -13.4667   36.1987 C   0  0  0  0  0  0  0  0  0  0  0  0
   35.5600  -13.8058   36.6704 C   0  0  0  0  0  0  0  0  0  0  0  0
   36.4438  -12.8212   37.0745 C   0  0  0  0  0  0  0  0  0  0  0  0
   37.6947  -13.1181   37.5604 C   0  0  0  0  0  0  0  0  0  0  0  0
   38.0425  -14.4485   37.6318 C   0  0  0  0  0  0  0  0  0  0  0  0
   37.2080  -15.4692   37.2451 C   0  0  0  0  0  0  0  0  0  0  0  0
   35.9478  -15.1403   36.7566 C   0  0  0  0  0  0  0  0  0  0  0  0
   36.7129  -17.9495   34.1649 C   0  0  0  0  0  0  0  0  0  0  0  0
   38.5740  -21.2084   33.8793 O   0  0  0  0  0  0  0  0  0  0  0  0
   37.6168  -20.2814   34.1353 N   0  0  0  0  0  0  0  0  0  0  0  0
   37.7983  -18.8920   33.8588 C   0  0  0  0  0  0  0  0  0  0  0  0
   38.8959  -18.5706   33.3635 O   0  0  0  0  0  0  0  0  0  0  0  0
   38.6266  -21.9015   34.5704 H   0  0  0  0  0  0  0  0  0  0  0  0
   36.7210  -20.5901   34.5462 H   0  0  0  0  0  0  0  0  0  0  0  0
   34.4032  -18.3184   34.1071 C   0  0  0  0  0  0  0  0  0  0  0  0
   33.2502  -19.1439   34.4328 C   0  0  0  0  0  0  0  0  0  0  0  0
   32.0068  -18.6215   34.6772 C   0  0  0  0  0  0  0  0  0  0  0  0
   30.9107  -19.4274   34.9881 C   0  0  0  0  0  0  0  0  0  0  0  0
   31.0751  -20.7933   35.0533 C   0  0  0  0  0  0  0  0  0  0  0  0
   32.3164  -21.3451   34.8114 C   0  0  0  0  0  0  0  0  0  0  0  0
   33.3774  -20.5149   34.5068 C   0  0  0  0  0  0  0  0  0  0  0  0
   29.9923  -21.6438   35.3644 N   0  0  0  0  0  0  0  0  0  0  0  0
   30.0975  -22.9935   35.2517 O   0  0  0  0  0  0  0  0  0  0  0  0
   28.9240  -21.1481   35.7482 O   0  0  0  0  0  0  0  0  0  0  0  0
 16 17  1  0  0  0
 17 18  1  0  0  0
 18 19  2  0  0  0
 18 15  1  0  0  0
 15  1  1  0  0  0
  1 22  1  0  0  0
 22 23  1  0  0  0
 23 24  2  0  0  0
 24 25  1  0  0  0
 25 26  2  0  0  0
 26 27  1  0  0  0
 27 28  2  0  0  0
 26 29  1  0  0  0
 29 30  1  0  0  0
 29 31  2  0  0  0
  1  2  1  0  0  0
  2  3  2  0  0  0
  2  4  2  0  0  0
  2  5  1  0  0  0
  5  6  2  0  0  0
  6  7  1  0  0  0
  7  8  2  0  0  0
  8  9  1  0  0  0
  9 10  2  0  0  0
 10 11  1  0  0  0
 11 12  2  0  0  0
 12 13  1  0  0  0
 13 14  2  0  0  0
 28 23  1  0  0  0
 14  5  1  0  0  0
 14  9  1  0  0  0
 16 20  1  0  0  0
 17 21  1  0  0  0
M  CHG 1  29   1
M  CHG 1  30  -1
M  END
> <minimizedAffinity>
-7.38261

> <CNNscore>
0.3728082180

> <CNNaffinity>
5.0381112099

> <CNN_VS>
1.8782492876

> <CNNaffinity_variance>
0.3556003571

$$$$
[H]ON([H])C(=O)C([H])([H])N(C([H])([H])c1c([H])c([H])c([N+](=O)[O-])c([H])c1[H])S(=O)(=O)c1c([H])c([H])c([H])c2c([H])c([H])c([H])c([H])c12


 31 33  0  0  0  0  0  0  0  0999 V2000
   38.0222  -18.9786   35.8367 N   0  0  0  0  0  0  0  0  0  0  0  0
   36.5215  -19.1083   36.6216 S   0  0  0  0  0  0  0  0  0  0  0  0
   36.6522  -19.3479   38.1010 O   0  0  0  0  0  0  0  0  0  0  0  0
   35.8328  -20.3581   36.0754 O   0  0  0  0  0  0  0  0  0  0  0  0
   35.4936  -17.7551   36.2506 C   0  0  0  0  0  0  0  0  0  0  0  0
   34.2975  -17.9481   35.5464 C   0  0  0  0  0  0  0  0  0  0  0  0
   33.4716  -16.9186   35.2088 C   0  0  0  0  0  0  0  0  0  0  0  0
   33.7748  -15.6217   35.5470 C   0  0  0  0  0  0  0  0  0  0  0  0
   34.9475  -15.3872   36.2442 C   0  0  0  0  0  0  0  0  0  0  0  0
   35.2920  -14.1010   36.6194 C   0  0  0  0  0  0  0  0  0  0  0  0
   36.4408  -13.8289   37.3232 C   0  0  0  0  0  0  0  0  0  0  0  0
   37.2483  -14.8964   37.6462 C   0  0  0  0  0  0  0  0  0  0  0  0
   36.9589  -16.1943   37.3008 C   0  0  0  0  0  0  0  0  0  0  0  0
   35.7900  -16.4410   36.5882 C   0  0  0  0  0  0  0  0  0  0  0  0
   37.7847  -18.8951   34.4146 C   0  0  0  0  0  0  0  0  0  0  0  0
   40.2846  -20.0316   31.8408 O   0  0  0  0  0  0  0  0  0  0  0  0
   39.1875  -19.9547   32.6355 N   0  0  0  0  0  0  0  0  0  0  0  0
   39.0013  -18.9088   33.5901 C   0  0  0  0  0  0  0  0  0  0  0  0
   39.9105  -18.0590   33.6563 O   0  0  0  0  0  0  0  0  0  0  0  0
   40.5962  -20.9518   31.7108 H   0  0  0  0  0  0  0  0  0  0  0  0
   38.4571  -20.6797   32.5487 H   0  0  0  0  0  0  0  0  0  0  0  0
   38.9077  -20.0733   36.0954 C   0  0  0  0  0  0  0  0  0  0  0  0
   39.9661  -19.8552   37.0695 C   0  0  0  0  0  0  0  0  0  0  0  0
   40.0356  -20.5359   38.2573 C   0  0  0  0  0  0  0  0  0  0  0  0
   41.0581  -20.3151   39.1810 C   0  0  0  0  0  0  0  0  0  0  0  0
   42.0333  -19.3847   38.8977 C   0  0  0  0  0  0  0  0  0  0  0  0
   41.9870  -18.6856   37.7089 C   0  0  0  0  0  0  0  0  0  0  0  0
   40.9592  -18.9318   36.8197 C   0  0  0  0  0  0  0  0  0  0  0  0
   43.0847  -19.1315   39.8049 N   0  0  0  0  0  0  0  0  0  0  0  0
   44.3855  -19.2232   39.4240 O   0  0  0  0  0  0  0  0  0  0  0  0
   42.8146  -18.8190   40.9726 O   0  0  0  0  0  0  0  0  0  0  0  0
 16 17  1  0  0  0
 17 18  1  0  0  0
 18 19  2  0  0  0
 18 15  1  0  0  0
 15  1  1  0  0  0
  1 22  1  0  0  0
 22 23  1  0  0  0
 23 24  2  0  0  0
 24 25  1  0  0  0
 25 26  2  0  0  0
 26 27  1  0  0  0
 27 28  2  0  0  0
 26 29  1  0  0  0
 29 30  1  0  0  0
 29 31  2  0  0  0
  1  2  1  0  0  0
  2  3  2  0  0  0
  2  4  2  0  0  0
  2  5  1  0  0  0
  5  6  2  0  0  0
  6  7  1  0  0  0
  7  8  2  0  0  0
  8  9  1  0  0  0
  9 10  2  0  0  0
 10 11  1  0  0  0
 11 12  2  0  0  0
 12 13  1  0  0  0
 13 14  2  0  0  0
 28 23  1  0  0  0
 14  5  1  0  0  0
 14  9  1  0  0  0
 16 20  1  0  0  0
 17 21  1  0  0  0
M  CHG 1  29   1
M  CHG 1  30  -1
M  END
> <minimizedAffinity>
-7.34518

> <CNNscore>
0.1943217963

> <CNNaffinity>
4.7403450012

> <CNN_VS>
0.9211523533

> <CNNaffinity_variance>
0.3724265993

$$$$
[H]ON([H])C(=O)C([H])([H])N(C([H])([H])c1c([H])c([H])c([N+](=O)[O-])c([H])c1[H])S(=O)(=O)c1c([H])c([H])c([H])c2c([H])c([H])c([H])c([H])c12


 31 33  0  0  0  0  0  0  0  0999 V2000
   36.0928  -16.0324   36.1234 N   0  0  0  0  0  0  0  0  0  0  0  0
   36.3097  -17.6058   35.5215 S   0  0  0  0  0  0  0  0  0  0  0  0
   37.7489  -18.0437   35.5298 O   0  0  0  0  0  0  0  0  0  0  0  0
   35.9087  -17.5847   34.0473 O   0  0  0  0  0  0  0  0  0  0  0  0
   35.2602  -18.7397   36.3203 C   0  0  0  0  0  0  0  0  0  0  0  0
   35.6520  -19.3376   37.5257 C   0  0  0  0  0  0  0  0  0  0  0  0
   34.8782  -20.2508   38.1763 C   0  0  0  0  0  0  0  0  0  0  0  0
   33.6579  -20.6361   37.6758 C   0  0  0  0  0  0  0  0  0  0  0  0
   33.2325  -20.0687   36.4869 C   0  0  0  0  0  0  0  0  0  0  0  0
   32.0061  -20.4135   35.9476 C   0  0  0  0  0  0  0  0  0  0  0  0
   31.5429  -19.8629   34.7765 C   0  0  0  0  0  0  0  0  0  0  0  0
   32.3538  -18.9432   34.1499 C   0  0  0  0  0  0  0  0  0  0  0  0
   33.5807  -18.5621   34.6370 C   0  0  0  0  0  0  0  0  0  0  0  0
   34.0251  -19.1355   35.8238 C   0  0  0  0  0  0  0  0  0  0  0  0
   36.7755  -15.9339   37.3923 C   0  0  0  0  0  0  0  0  0  0  0  0
   38.5748  -12.6655   36.8970 O   0  0  0  0  0  0  0  0  0  0  0  0
   38.0485  -13.8988   36.6897 N   0  0  0  0  0  0  0  0  0  0  0  0
   37.3145  -14.6003   37.6942 C   0  0  0  0  0  0  0  0  0  0  0  0
   37.1805  -14.0134   38.7854 O   0  0  0  0  0  0  0  0  0  0  0  0
   39.4543  -12.5523   36.4792 H   0  0  0  0  0  0  0  0  0  0  0  0
   38.1826  -14.3501   35.7705 H   0  0  0  0  0  0  0  0  0  0  0  0
   34.7210  -15.6659   36.3053 C   0  0  0  0  0  0  0  0  0  0  0  0
   34.4386  -14.2652   36.5793 C   0  0  0  0  0  0  0  0  0  0  0  0
   35.0350  -13.2385   35.8943 C   0  0  0  0  0  0  0  0  0  0  0  0
   34.7529  -11.8997   36.1691 C   0  0  0  0  0  0  0  0  0  0  0  0
   33.8467  -11.5912   37.1595 C   0  0  0  0  0  0  0  0  0  0  0  0
   33.2319  -12.6058   37.8643 C   0  0  0  0  0  0  0  0  0  0  0  0
   33.5371  -13.9189   37.5634 C   0  0  0  0  0  0  0  0  0  0  0  0
   33.5332  -10.2501   37.4686 N   0  0  0  0  0  0  0  0  0  0  0  0
   34.3953   -9.2388   37.1863 O   0  0  0  0  0  0  0  0  0  0  0  0
   32.4491   -9.9907   38.0085 O   0  0  0  0  0  0  0  0  0  0  0  0
 16 17  1  0  0  0
 17 18  1  0  0  0
 18 19  2  0  0  0
 18 15  1  0  0  0
 15  1  1  0  0  0
  1 22  1  0  0  0
 22 23  1  0  0  0
 23 24  2  0  0  0
 24 25  1  0  0  0
 25 26  2  0  0  0
 26 27  1  0  0  0
 27 28  2  0  0  0
 26 29  1  0  0  0
 29 30  1  0  0  0
 29 31  2  0  0  0
  1  2  1  0  0  0
  2  3  2  0  0  0
  2  4  2  0  0  0
  2  5  1  0  0  0
  5  6  2  0  0  0
  6  7  1  0  0  0
  7  8  2  0  0  0
  8  9  1  0  0  0
  9 10  2  0  0  0
 10 11  1  0  0  0
 11 12  2  0  0  0
 12 13  1  0  0  0
 13 14  2  0  0  0
 28 23  1  0  0  0
 14  5  1  0  0  0
 14  9  1  0  0  0
 16 20  1  0  0  0
 17 21  1  0  0  0
M  CHG 1  29   1
M  CHG 1  30  -1
M  END
> <minimizedAffinity>
-6.82012

> <CNNscore>
0.1739745289

> <CNNaffinity>
4.9684090614

> <CNN_VS>
0.8643766046

> <CNNaffinity_variance>
0.5086179376

$$$$
[H]ON([H])C(=O)C([H])([H])N(C([H])([H])c1c([H])c([H])c([N+](=O)[O-])c([H])c1[H])S(=O)(=O)c1c([H])c([H])c([H])c2c([H])c([H])c([H])c([H])c12


 31 33  0  0  0  0  0  0  0  0999 V2000
   36.2090  -18.6422   36.1015 N   0  0  0  0  0  0  0  0  0  0  0  0
   35.0883  -19.7008   36.8143 S   0  0  0  0  0  0  0  0  0  0  0  0
   34.9229  -19.4718   38.2919 O   0  0  0  0  0  0  0  0  0  0  0  0
   35.6596  -21.1126   36.6920 O   0  0  0  0  0  0  0  0  0  0  0  0
   33.5728  -19.6873   35.9608 C   0  0  0  0  0  0  0  0  0  0  0  0
   33.3687  -18.7985   34.8967 C   0  0  0  0  0  0  0  0  0  0  0  0
   32.1918  -18.7307   34.2140 C   0  0  0  0  0  0  0  0  0  0  0  0
   31.1316  -19.5420   34.5395 C   0  0  0  0  0  0  0  0  0  0  0  0
   31.2916  -20.4355   35.5847 C   0  0  0  0  0  0  0  0  0  0  0  0
   30.2588  -21.2831   35.9435 C   0  0  0  0  0  0  0  0  0  0  0  0
   30.3831  -22.1926   36.9666 C   0  0  0  0  0  0  0  0  0  0  0  0
   31.5884  -22.2309   37.6313 C   0  0  0  0  0  0  0  0  0  0  0  0
   32.6488  -21.4145   37.3204 C   0  0  0  0  0  0  0  0  0  0  0  0
   32.4955  -20.5030   36.2809 C   0  0  0  0  0  0  0  0  0  0  0  0
   37.2535  -19.4310   35.4910 C   0  0  0  0  0  0  0  0  0  0  0  0
   38.9253  -19.4457   32.1190 O   0  0  0  0  0  0  0  0  0  0  0  0
   38.5033  -19.8060   33.3572 N   0  0  0  0  0  0  0  0  0  0  0  0
   37.6686  -18.9691   34.1590 C   0  0  0  0  0  0  0  0  0  0  0  0
   37.3436  -17.8762   33.6560 O   0  0  0  0  0  0  0  0  0  0  0  0
   39.8492  -19.7184   31.9380 H   0  0  0  0  0  0  0  0  0  0  0  0
   38.7957  -20.7208   33.7371 H   0  0  0  0  0  0  0  0  0  0  0  0
   36.8022  -17.7208   37.0227 C   0  0  0  0  0  0  0  0  0  0  0  0
   36.3387  -16.3425   36.9745 C   0  0  0  0  0  0  0  0  0  0  0  0
   37.0294  -15.3053   37.5455 C   0  0  0  0  0  0  0  0  0  0  0  0
   36.5711  -13.9883   37.4899 C   0  0  0  0  0  0  0  0  0  0  0  0
   35.3872  -13.7131   36.8420 C   0  0  0  0  0  0  0  0  0  0  0  0
   34.6723  -14.7390   36.2586 C   0  0  0  0  0  0  0  0  0  0  0  0
   35.1582  -16.0297   36.3345 C   0  0  0  0  0  0  0  0  0  0  0  0
   34.8889  -12.3948   36.7632 N   0  0  0  0  0  0  0  0  0  0  0  0
   33.8594  -11.9794   37.5463 O   0  0  0  0  0  0  0  0  0  0  0  0
   35.4017  -11.6006   35.9629 O   0  0  0  0  0  0  0  0  0  0  0  0
 16 17  1  0  0  0
 17 18  1  0  0  0
 18 19  2  0  0  0
 18 15  1  0  0  0
 15  1  1  0  0  0
  1 22  1  0  0  0
 22 23  1  0  0  0
 23 24  2  0  0  0
 24 25  1  0  0  0
 25 26  2  0  0  0
 26 27  1  0  0  0
 27 28  2  0  0  0
 26 29  1  0  0  0
 29 30  1  0  0  0
 29 31  2  0  0  0
  1  2  1  0  0  0
  2  3  2  0  0  0
  2  4  2  0  0  0
  2  5  1  0  0  0
  5  6  2  0  0  0
  6  7  1  0  0  0
  7  8  2  0  0  0
  8  9  1  0  0  0
  9 10  2  0  0  0
 10 11  1  0  0  0
 11 12  2  0  0  0
 12 13  1  0  0  0
 13 14  2  0  0  0
 28 23  1  0  0  0
 14  5  1  0  0  0
 14  9  1  0  0  0
 16 20  1  0  0  0
 17 21  1  0  0  0
M  CHG 1  29   1
M  CHG 1  30  -1
M  END
> <minimizedAffinity>
-8.00439

> <CNNscore>
0.1721078902

> <CNNaffinity>
4.9001064301

> <CNN_VS>
0.8433469534

> <CNNaffinity_variance>
0.4340765476

$$$$
[H]ON([H])C(=O)C([H])([H])N(C([H])([H])c1c([H])c([H])c([N+](=O)[O-])c([H])c1[H])S(=O)(=O)c1c([H])c([H])c([H])c2c([H])c([H])c([H])c([H])c12


 31 33  0  0  0  0  0  0  0  0999 V2000
   40.6604  -20.2726   35.6282 N   0  0  0  0  0  0  0  0  0  0  0  0
   42.2717  -20.2807   36.1655 S   0  0  0  0  0  0  0  0  0  0  0  0
   43.1846  -19.4621   35.2939 O   0  0  0  0  0  0  0  0  0  0  0  0
   42.7824  -21.7152   36.0400 O   0  0  0  0  0  0  0  0  0  0  0  0
   42.3812  -19.8445   37.8456 C   0  0  0  0  0  0  0  0  0  0  0  0
   42.9974  -18.6446   38.2258 C   0  0  0  0  0  0  0  0  0  0  0  0
   43.1316  -18.2705   39.5288 C   0  0  0  0  0  0  0  0  0  0  0  0
   42.6627  -19.0622   40.5493 C   0  0  0  0  0  0  0  0  0  0  0  0
   42.0463  -20.2564   40.2171 C   0  0  0  0  0  0  0  0  0  0  0  0
   41.5457  -21.0833   41.2067 C   0  0  0  0  0  0  0  0  0  0  0  0
   40.9160  -22.2701   40.9168 C   0  0  0  0  0  0  0  0  0  0  0  0
   40.7993  -22.6122   39.5882 C   0  0  0  0  0  0  0  0  0  0  0  0
   41.2767  -21.8324   38.5626 C   0  0  0  0  0  0  0  0  0  0  0  0
   41.9102  -20.6366   38.8846 C   0  0  0  0  0  0  0  0  0  0  0  0
   40.6632  -20.3252   34.1849 C   0  0  0  0  0  0  0  0  0  0  0  0
   38.3531  -17.9570   32.3904 O   0  0  0  0  0  0  0  0  0  0  0  0
   38.8589  -19.0538   33.0087 N   0  0  0  0  0  0  0  0  0  0  0  0
   40.1886  -19.0991   33.5279 C   0  0  0  0  0  0  0  0  0  0  0  0
   40.8694  -18.0656   33.3820 O   0  0  0  0  0  0  0  0  0  0  0  0
   37.7837  -18.1809   31.6245 H   0  0  0  0  0  0  0  0  0  0  0  0
   38.2608  -19.8899   33.1090 H   0  0  0  0  0  0  0  0  0  0  0  0
   39.9153  -19.1249   36.0489 C   0  0  0  0  0  0  0  0  0  0  0  0
   38.6505  -19.3661   36.7261 C   0  0  0  0  0  0  0  0  0  0  0  0
   38.4672  -20.3927   37.6158 C   0  0  0  0  0  0  0  0  0  0  0  0
   37.2472  -20.6103   38.2575 C   0  0  0  0  0  0  0  0  0  0  0  0
   36.1876  -19.7706   37.9941 C   0  0  0  0  0  0  0  0  0  0  0  0
   36.3454  -18.7293   37.1026 C   0  0  0  0  0  0  0  0  0  0  0  0
   37.5682  -18.5460   36.4871 C   0  0  0  0  0  0  0  0  0  0  0  0
   34.9371  -19.9561   38.6220 N   0  0  0  0  0  0  0  0  0  0  0  0
   33.8329  -20.3035   37.9110 O   0  0  0  0  0  0  0  0  0  0  0  0
   34.8455  -19.7986   39.8471 O   0  0  0  0  0  0  0  0  0  0  0  0
 16 17  1  0  0  0
 17 18  1  0  0  0
 18 19  2  0  0  0
 18 15  1  0  0  0
 15  1  1  0  0  0
  1 22  1  0  0  0
 22 23  1  0  0  0
 23 24  2  0  0  0
 24 25  1  0  0  0
 25 26  2  0  0  0
 26 27  1  0  0  0
 27 28  2  0  0  0
 26 29  1  0  0  0
 29 30  1  0  0  0
 29 31  2  0  0  0
  1  2  1  0  0  0
  2  3  2  0  0  0
  2  4  2  0  0  0
  2  5  1  0  0  0
  5  6  2  0  0  0
  6  7  1  0  0  0
  7  8  2  0  0  0
  8  9  1  0  0  0
  9 10  2  0  0  0
 10 11  1  0  0  0
 11 12  2  0  0  0
 12 13  1  0  0  0
 13 14  2  0  0  0
 28 23  1  0  0  0
 14  5  1  0  0  0
 14  9  1  0  0  0
 16 20  1  0  0  0
 17 21  1  0  0  0
M  CHG 1  29   1
M  CHG 1  30  -1
M  END
> <minimizedAffinity>
-5.72768

> <CNNscore>
0.1672445387

> <CNNaffinity>
4.4976625443

> <CNN_VS>
0.7522094846

> <CNNaffinity_variance>
0.2707853019

$$$$
[H]ON([H])C(=O)C([H])([H])N(C([H])([H])c1c([H])c([H])c([N+](=O)[O-])c([H])c1[H])S(=O)(=O)c1c([H])c([H])c([H])c2c([H])c([H])c([H])c([H])c12


 31 33  0  0  0  0  0  0  0  0999 V2000
   38.1755  -18.4650   35.4378 N   0  0  0  0  0  0  0  0  0  0  0  0
   36.7443  -17.7333   35.9866 S   0  0  0  0  0  0  0  0  0  0  0  0
   36.1027  -16.8504   34.9512 O   0  0  0  0  0  0  0  0  0  0  0  0
   37.1269  -16.7935   37.1290 O   0  0  0  0  0  0  0  0  0  0  0  0
   35.6419  -18.9093   36.6399 C   0  0  0  0  0  0  0  0  0  0  0  0
   35.7188  -19.2770   37.9900 C   0  0  0  0  0  0  0  0  0  0  0  0
   34.8963  -20.2117   38.5430 C   0  0  0  0  0  0  0  0  0  0  0  0
   33.9370  -20.8491   37.7937 C   0  0  0  0  0  0  0  0  0  0  0  0
   33.8268  -20.5146   36.4549 C   0  0  0  0  0  0  0  0  0  0  0  0
   32.8687  -21.1184   35.6604 C   0  0  0  0  0  0  0  0  0  0  0  0
   32.7195  -20.8041   34.3307 C   0  0  0  0  0  0  0  0  0  0  0  0
   33.5691  -19.8539   33.8097 C   0  0  0  0  0  0  0  0  0  0  0  0
   34.5392  -19.2213   34.5488 C   0  0  0  0  0  0  0  0  0  0  0  0
   34.6685  -19.5589   35.8920 C   0  0  0  0  0  0  0  0  0  0  0  0
   38.1355  -18.5142   33.9950 C   0  0  0  0  0  0  0  0  0  0  0  0
   40.6458  -20.1939   31.7494 O   0  0  0  0  0  0  0  0  0  0  0  0
   39.4917  -19.8569   32.3783 N   0  0  0  0  0  0  0  0  0  0  0  0
   39.4244  -18.8200   33.3581 C   0  0  0  0  0  0  0  0  0  0  0  0
   40.4945  -18.2327   33.6090 O   0  0  0  0  0  0  0  0  0  0  0  0
   40.7347  -21.1600   31.6098 H   0  0  0  0  0  0  0  0  0  0  0  0
   38.6267  -20.3688   32.1409 H   0  0  0  0  0  0  0  0  0  0  0  0
   38.3787  -19.7896   35.9414 C   0  0  0  0  0  0  0  0  0  0  0  0
   39.3215  -19.9455   37.0385 C   0  0  0  0  0  0  0  0  0  0  0  0
   39.0969  -20.7851   38.0985 C   0  0  0  0  0  0  0  0  0  0  0  0
   40.0119  -20.9235   39.1431 C   0  0  0  0  0  0  0  0  0  0  0  0
   41.1814  -20.1964   39.1157 C   0  0  0  0  0  0  0  0  0  0  0  0
   41.4323  -19.3440   38.0601 C   0  0  0  0  0  0  0  0  0  0  0  0
   40.5024  -19.2338   37.0447 C   0  0  0  0  0  0  0  0  0  0  0  0
   42.1330  -20.3075   40.1523 N   0  0  0  0  0  0  0  0  0  0  0  0
   42.9446  -19.2691   40.4820 O   0  0  0  0  0  0  0  0  0  0  0  0
   42.2295  -21.3744   40.7739 O   0  0  0  0  0  0  0  0  0  0  0  0
 16 17  1  0  0  0
 17 18  1  0  0  0
 18 19  2  0  0  0
 18 15  1  0  0  0
 15  1  1  0  0  0
  1 22  1  0  0  0
 22 23  1  0  0  0
 23 24  2  0  0  0
 24 25  1  0  0  0
 25 26  2  0  0  0
 26 27  1  0  0  0
 27 28  2  0  0  0
 26 29  1  0  0  0
 29 30  1  0  0  0
 29 31  2  0  0  0
  1  2  1  0  0  0
  2  3  2  0  0  0
  2  4  2  0  0  0
  2  5  1  0  0  0
  5  6  2  0  0  0
  6  7  1  0  0  0
  7  8  2  0  0  0
  8  9  1  0  0  0
  9 10  2  0  0  0
 10 11  1  0  0  0
 11 12  2  0  0  0
 12 13  1  0  0  0
 13 14  2  0  0  0
 28 23  1  0  0  0
 14  5  1  0  0  0
 14  9  1  0  0  0
 16 20  1  0  0  0
 17 21  1  0  0  0
M  CHG 1  29   1
M  CHG 1  30  -1
M  END
> <minimizedAffinity>
-6.34715

> <CNNscore>
0.1545830518

> <CNNaffinity>
4.4871106148

> <CNN_VS>
0.6936312318

> <CNNaffinity_variance>
0.4393032491

$$$$
[H]ON([H])C(=O)C([H])([H])N(C([H])([H])c1c([H])c([H])c([N+](=O)[O-])c([H])c1[H])S(=O)(=O)c1c([H])c([H])c([H])c2c([H])c([H])c([H])c([H])c12


 31 33  0  0  0  0  0  0  0  0999 V2000
   36.3541  -18.9478   34.6877 N   0  0  0  0  0  0  0  0  0  0  0  0
   36.6755  -18.4576   36.2818 S   0  0  0  0  0  0  0  0  0  0  0  0
   35.6116  -17.5543   36.8434 O   0  0  0  0  0  0  0  0  0  0  0  0
   37.9428  -17.6049   36.2452 O   0  0  0  0  0  0  0  0  0  0  0  0
   37.0068  -19.8214   37.3092 C   0  0  0  0  0  0  0  0  0  0  0  0
   38.3291  -20.1750   37.6102 C   0  0  0  0  0  0  0  0  0  0  0  0
   38.6414  -21.2491   38.3878 C   0  0  0  0  0  0  0  0  0  0  0  0
   37.6617  -22.0501   38.9230 C   0  0  0  0  0  0  0  0  0  0  0  0
   36.3414  -21.7353   38.6507 C   0  0  0  0  0  0  0  0  0  0  0  0
   35.3174  -22.5028   39.1761 C   0  0  0  0  0  0  0  0  0  0  0  0
   33.9944  -22.2152   38.9394 C   0  0  0  0  0  0  0  0  0  0  0  0
   33.7200  -21.1210   38.1497 C   0  0  0  0  0  0  0  0  0  0  0  0
   34.6939  -20.3226   37.6003 C   0  0  0  0  0  0  0  0  0  0  0  0
   36.0246  -20.6370   37.8557 C   0  0  0  0  0  0  0  0  0  0  0  0
   37.4919  -18.6016   33.8683 C   0  0  0  0  0  0  0  0  0  0  0  0
   39.1241  -21.9929   33.8699 O   0  0  0  0  0  0  0  0  0  0  0  0
   38.1993  -21.0004   33.8956 N   0  0  0  0  0  0  0  0  0  0  0  0
   38.5530  -19.6180   33.8354 C   0  0  0  0  0  0  0  0  0  0  0  0
   39.7711  -19.3670   33.7568 O   0  0  0  0  0  0  0  0  0  0  0  0
   38.8996  -22.7374   34.4667 H   0  0  0  0  0  0  0  0  0  0  0  0
   37.1997  -21.2519   33.9614 H   0  0  0  0  0  0  0  0  0  0  0  0
   35.1795  -18.3537   34.1248 C   0  0  0  0  0  0  0  0  0  0  0  0
   33.8990  -18.9417   34.4873 C   0  0  0  0  0  0  0  0  0  0  0  0
   32.9305  -18.2521   35.1695 C   0  0  0  0  0  0  0  0  0  0  0  0
   31.7070  -18.8308   35.5095 C   0  0  0  0  0  0  0  0  0  0  0  0
   31.4563  -20.1370   35.1515 C   0  0  0  0  0  0  0  0  0  0  0  0
   32.4143  -20.8537   34.4642 C   0  0  0  0  0  0  0  0  0  0  0  0
   33.6133  -20.2466   34.1455 C   0  0  0  0  0  0  0  0  0  0  0  0
   30.2317  -20.7595   35.4761 N   0  0  0  0  0  0  0  0  0  0  0  0
   29.1987  -20.0549   36.0071 O   0  0  0  0  0  0  0  0  0  0  0  0
   30.0970  -21.9737   35.2720 O   0  0  0  0  0  0  0  0  0  0  0  0
 16 17  1  0  0  0
 17 18  1  0  0  0
 18 19  2  0  0  0
 18 15  1  0  0  0
 15  1  1  0  0  0
  1 22  1  0  0  0
 22 23  1  0  0  0
 23 24  2  0  0  0
 24 25  1  0  0  0
 25 26  2  0  0  0
 26 27  1  0  0  0
 27 28  2  0  0  0
 26 29  1  0  0  0
 29 30  1  0  0  0
 29 31  2  0  0  0
  1  2  1  0  0  0
  2  3  2  0  0  0
  2  4  2  0  0  0
  2  5  1  0  0  0
  5  6  2  0  0  0
  6  7  1  0  0  0
  7  8  2  0  0  0
  8  9  1  0  0  0
  9 10  2  0  0  0
 10 11  1  0  0  0
 11 12  2  0  0  0
 12 13  1  0  0  0
 13 14  2  0  0  0
 28 23  1  0  0  0
 14  5  1  0  0  0
 14  9  1  0  0  0
 16 20  1  0  0  0
 17 21  1  0  0  0
M  CHG 1  29   1
M  CHG 1  30  -1
M  END
> <minimizedAffinity>
-5.59083

> <CNNscore>
0.1510519534

> <CNNaffinity>
4.4312953949

> <CNN_VS>
0.6693558097

> <CNNaffinity_variance>
0.5687487721

$$$$
[H]ON([H])C(=O)C([H])([H])N(C([H])([H])c1c([H])c([H])c([N+](=O)[O-])c([H])c1[H])S(=O)(=O)c1c([H])c([H])c([H])c2c([H])c([H])c([H])c([H])c12


 31 33  0  0  0  0  0  0  0  0999 V2000
   37.6538  -18.5145   36.1227 N   0  0  0  0  0  0  0  0  0  0  0  0
   36.2000  -17.7592   36.5710 S   0  0  0  0  0  0  0  0  0  0  0  0
   35.5136  -18.4443   37.7212 O   0  0  0  0  0  0  0  0  0  0  0  0
   35.2369  -17.8983   35.3930 O   0  0  0  0  0  0  0  0  0  0  0  0
   36.4290  -16.0571   36.8456 C   0  0  0  0  0  0  0  0  0  0  0  0
   37.6518  -15.5781   37.3346 C   0  0  0  0  0  0  0  0  0  0  0  0
   37.8722  -14.2584   37.5910 C   0  0  0  0  0  0  0  0  0  0  0  0
   36.8925  -13.3184   37.3797 C   0  0  0  0  0  0  0  0  0  0  0  0
   35.6691  -13.7494   36.8961 C   0  0  0  0  0  0  0  0  0  0  0  0
   34.6540  -12.8411   36.6545 C   0  0  0  0  0  0  0  0  0  0  0  0
   33.4302  -13.2280   36.1627 C   0  0  0  0  0  0  0  0  0  0  0  0
   33.2473  -14.5702   35.9155 C   0  0  0  0  0  0  0  0  0  0  0  0
   34.2172  -15.5180   36.1362 C   0  0  0  0  0  0  0  0  0  0  0  0
   35.4462  -15.0987   36.6348 C   0  0  0  0  0  0  0  0  0  0  0  0
   37.5066  -19.0200   34.7779 C   0  0  0  0  0  0  0  0  0  0  0  0
   40.4856  -17.7571   32.8553 O   0  0  0  0  0  0  0  0  0  0  0  0
   39.7058  -18.3999   33.7607 N   0  0  0  0  0  0  0  0  0  0  0  0
   38.2817  -18.2920   33.7633 C   0  0  0  0  0  0  0  0  0  0  0  0
   37.7854  -17.5673   32.8792 O   0  0  0  0  0  0  0  0  0  0  0  0
   41.3161  -17.4124   33.2454 H   0  0  0  0  0  0  0  0  0  0  0  0
   40.1575  -18.9910   34.4772 H   0  0  0  0  0  0  0  0  0  0  0  0
   38.0360  -19.5923   36.9839 C   0  0  0  0  0  0  0  0  0  0  0  0
   39.4235  -19.6339   37.4198 C   0  0  0  0  0  0  0  0  0  0  0  0
   40.3814  -18.7820   36.9344 C   0  0  0  0  0  0  0  0  0  0  0  0
   41.7083  -18.8346   37.3633 C   0  0  0  0  0  0  0  0  0  0  0  0
   42.0758  -19.7701   38.3051 C   0  0  0  0  0  0  0  0  0  0  0  0
   41.1310  -20.6397   38.8103 C   0  0  0  0  0  0  0  0  0  0  0  0
   39.8275  -20.5569   38.3611 C   0  0  0  0  0  0  0  0  0  0  0  0
   43.4073  -19.8565   38.7657 N   0  0  0  0  0  0  0  0  0  0  0  0
   43.7832  -20.7970   39.6711 O   0  0  0  0  0  0  0  0  0  0  0  0
   44.2500  -19.0577   38.3346 O   0  0  0  0  0  0  0  0  0  0  0  0
 16 17  1  0  0  0
 17 18  1  0  0  0
 18 19  2  0  0  0
 18 15  1  0  0  0
 15  1  1  0  0  0
  1 22  1  0  0  0
 22 23  1  0  0  0
 23 24  2  0  0  0
 24 25  1  0  0  0
 25 26  2  0  0  0
 26 27  1  0  0  0
 27 28  2  0  0  0
 26 29  1  0  0  0
 29 30  1  0  0  0
 29 31  2  0  0  0
  1  2  1  0  0  0
  2  3  2  0  0  0
  2  4  2  0  0  0
  2  5  1  0  0  0
  5  6  2  0  0  0
  6  7  1  0  0  0
  7  8  2  0  0  0
  8  9  1  0  0  0
  9 10  2  0  0  0
 10 11  1  0  0  0
 11 12  2  0  0  0
 12 13  1  0  0  0
 13 14  2  0  0  0
 28 23  1  0  0  0
 14  5  1  0  0  0
 14  9  1  0  0  0
 16 20  1  0  0  0
 17 21  1  0  0  0
M  CHG 1  29   1
M  CHG 1  30  -1
M  END
> <minimizedAffinity>
-6.71239

> <CNNscore>
0.1375195384

> <CNNaffinity>
4.8244853020

> <CNN_VS>
0.6634609699

> <CNNaffinity_variance>
0.2147995234

$$$$
[H]ON([H])C(=O)C([H])([H])N(C([H])([H])c1c([H])c([H])c([N+](=O)[O-])c([H])c1[H])S(=O)(=O)c1c([H])c([H])c([H])c2c([H])c([H])c([H])c([H])c12


 31 33  0  0  0  0  0  0  0  0999 V2000
   36.8642  -19.0193   36.3622 N   0  0  0  0  0  0  0  0  0  0  0  0
   38.4934  -19.3610   36.0250 S   0  0  0  0  0  0  0  0  0  0  0  0
   39.4471  -18.4857   36.7917 O   0  0  0  0  0  0  0  0  0  0  0  0
   38.7321  -19.0177   34.5554 O   0  0  0  0  0  0  0  0  0  0  0  0
   38.8381  -21.0550   36.2165 C   0  0  0  0  0  0  0  0  0  0  0  0
   38.8996  -21.8950   35.0964 C   0  0  0  0  0  0  0  0  0  0  0  0
   39.1400  -23.2322   35.1955 C   0  0  0  0  0  0  0  0  0  0  0  0
   39.3368  -23.8321   36.4160 C   0  0  0  0  0  0  0  0  0  0  0  0
   39.2849  -23.0378   37.5486 C   0  0  0  0  0  0  0  0  0  0  0  0
   39.4890  -23.5911   38.7999 C   0  0  0  0  0  0  0  0  0  0  0  0
   39.4582  -22.8339   39.9466 C   0  0  0  0  0  0  0  0  0  0  0  0
   39.2135  -21.4864   39.8042 C   0  0  0  0  0  0  0  0  0  0  0  0
   39.0030  -20.8811   38.5889 C   0  0  0  0  0  0  0  0  0  0  0  0
   39.0392  -21.6712   37.4447 C   0  0  0  0  0  0  0  0  0  0  0  0
   36.1287  -20.2622   36.3535 C   0  0  0  0  0  0  0  0  0  0  0  0
   34.7978  -19.8084   39.8447 O   0  0  0  0  0  0  0  0  0  0  0  0
   35.4277  -19.5996   38.6612 N   0  0  0  0  0  0  0  0  0  0  0  0
   35.4224  -20.5630   37.6068 C   0  0  0  0  0  0  0  0  0  0  0  0
   34.8009  -21.6193   37.8327 O   0  0  0  0  0  0  0  0  0  0  0  0
   35.3019  -19.4609   40.6101 H   0  0  0  0  0  0  0  0  0  0  0  0
   35.9316  -18.7100   38.5146 H   0  0  0  0  0  0  0  0  0  0  0  0
   36.2577  -18.1151   35.4327 C   0  0  0  0  0  0  0  0  0  0  0  0
   35.7384  -16.8647   35.9652 C   0  0  0  0  0  0  0  0  0  0  0  0
   34.5167  -16.3552   35.6093 C   0  0  0  0  0  0  0  0  0  0  0  0
   34.0328  -15.1541   36.1297 C   0  0  0  0  0  0  0  0  0  0  0  0
   34.8017  -14.4515   37.0311 C   0  0  0  0  0  0  0  0  0  0  0  0
   36.0355  -14.9423   37.4063 C   0  0  0  0  0  0  0  0  0  0  0  0
   36.4804  -16.1346   36.8695 C   0  0  0  0  0  0  0  0  0  0  0  0
   34.3491  -13.2328   37.5810 N   0  0  0  0  0  0  0  0  0  0  0  0
   33.4132  -13.2051   38.5653 O   0  0  0  0  0  0  0  0  0  0  0  0
   34.8157  -12.1669   37.1567 O   0  0  0  0  0  0  0  0  0  0  0  0
 16 17  1  0  0  0
 17 18  1  0  0  0
 18 19  2  0  0  0
 18 15  1  0  0  0
 15  1  1  0  0  0
  1 22  1  0  0  0
 22 23  1  0  0  0
 23 24  2  0  0  0
 24 25  1  0  0  0
 25 26  2  0  0  0
 26 27  1  0  0  0
 27 28  2  0  0  0
 26 29  1  0  0  0
 29 30  1  0  0  0
 29 31  2  0  0  0
  1  2  1  0  0  0
  2  3  2  0  0  0
  2  4  2  0  0  0
  2  5  1  0  0  0
  5  6  2  0  0  0
  6  7  1  0  0  0
  7  8  2  0  0  0
  8  9  1  0  0  0
  9 10  2  0  0  0
 10 11  1  0  0  0
 11 12  2  0  0  0
 12 13  1  0  0  0
 13 14  2  0  0  0
 28 23  1  0  0  0
 14  5  1  0  0  0
 14  9  1  0  0  0
 16 20  1  0  0  0
 17 21  1  0  0  0
M  CHG 1  29   1
M  CHG 1  30  -1
M  END
> <minimizedAffinity>
-5.74454

> <CNNscore>
0.1356385648

> <CNNaffinity>
4.4457693100

> <CNN_VS>
0.6030177474

> <CNNaffinity_variance>
0.2935500741

$$$$
[H]c1c([H])c(N2C([H])([H])C([H])([H])N(c3c([H])c([H])c(C#N)c(C(F)(F)F)c3[H])[C@]([H])(C([H])(C([H])([H])[H])C([H])([H])[H])C2([H])[H])c(C(F)(F)F)c([H])c1F


 32 34  0  0  0  0  0  0  0  0999 V2000
   37.9068  -20.7050   35.8160 C   0  0  0  0  0  0  0  0  0  0  0  0
   36.4110  -21.0667   35.8591 C   0  0  0  0  0  0  0  0  0  0  0  0
   35.5686  -19.9798   36.2344 N   0  0  0  0  0  0  0  0  0  0  0  0
   36.1336  -18.9644   37.1650 C   0  0  0  0  0  0  0  0  0  0  0  0
   37.2612  -19.5751   37.9319 C   0  0  0  0  0  0  0  0  0  0  0  0
   38.2753  -20.0515   37.0152 N   0  0  0  0  0  0  0  0  0  0  0  0
   34.2374  -19.6947   35.8301 C   0  0  0  0  0  0  0  0  0  0  0  0
   34.0457  -18.7436   34.7951 C   0  0  0  0  0  0  0  0  0  0  0  0
   32.7804  -18.4294   34.3998 C   0  0  0  0  0  0  0  0  0  0  0  0
   31.6708  -19.0066   34.9734 C   0  0  0  0  0  0  0  0  0  0  0  0
   30.4525  -18.6468   34.5310 F   0  0  0  0  0  0  0  0  0  0  0  0
   31.8820  -19.9231   35.9719 C   0  0  0  0  0  0  0  0  0  0  0  0
   33.1636  -20.2910   36.4260 C   0  0  0  0  0  0  0  0  0  0  0  0
   33.2719  -21.2837   37.4955 C   0  0  0  0  0  0  0  0  0  0  0  0
   32.0681  -21.8025   37.9298 F   0  0  0  0  0  0  0  0  0  0  0  0
   34.1374  -20.9710   38.5114 F   0  0  0  0  0  0  0  0  0  0  0  0
   33.8884  -22.4343   36.9079 F   0  0  0  0  0  0  0  0  0  0  0  0
   39.6154  -19.8813   37.4583 C   0  0  0  0  0  0  0  0  0  0  0  0
   40.4040  -18.8787   36.9508 C   0  0  0  0  0  0  0  0  0  0  0  0
   41.6742  -18.7094   37.4357 C   0  0  0  0  0  0  0  0  0  0  0  0
   42.1689  -19.5262   38.4195 C   0  0  0  0  0  0  0  0  0  0  0  0
   41.3812  -20.5371   38.9345 C   0  0  0  0  0  0  0  0  0  0  0  0
   40.1130  -20.6948   38.4404 C   0  0  0  0  0  0  0  0  0  0  0  0
   41.8714  -21.4475   40.0001 C   0  0  0  0  0  0  0  0  0  0  0  0
   42.9868  -22.1349   39.5172 F   0  0  0  0  0  0  0  0  0  0  0  0
   42.2032  -20.7204   41.1192 F   0  0  0  0  0  0  0  0  0  0  0  0
   40.8378  -22.3294   40.3014 F   0  0  0  0  0  0  0  0  0  0  0  0
   43.4986  -19.3615   38.9384 C   0  0  0  0  0  0  0  0  0  0  0  0
   44.5679  -19.2313   39.3636 N   0  0  0  0  0  0  0  0  0  0  0  0
   39.6559  -20.6822   33.9691 C   0  0  0  0  0  0  0  0  0  0  0  0
   38.3333  -20.2205   34.5048 C   0  0  0  0  0  0  0  0  0  0  0  0
   38.2287  -18.7489   34.2210 C   0  0  0  0  0  0  0  0  0  0  0  0
 30 31  1  0  0  0
 31 32  1  0  0  0
 31  1  1  0  0  0
  1  2  1  0  0  0
  2  3  1  0  0  0
  3  4  1  0  0  0
  4  5  1  0  0  0
  5  6  1  0  0  0
  6 18  1  0  0  0
 18 19  2  0  0  0
 19 20  1  0  0  0
 20 21  2  0  0  0
 21 28  1  0  0  0
 28 29  3  0  0  0
 21 22  1  0  0  0
 22 23  2  0  0  0
 22 24  1  0  0  0
 24 25  1  0  0  0
 24 26  1  0  0  0
 24 27  1  0  0  0
  3  7  1  0  0  0
  7  8  2  0  0  0
  8  9  1  0  0  0
  9 10  2  0  0  0
 10 11  1  0  0  0
 10 12  1  0  0  0
 12 13  2  0  0  0
 13 14  1  0  0  0
 14 15  1  0  0  0
 14 16  1  0  0  0
 14 17  1  0  0  0
  6  1  1  0  0  0
 23 18  1  0  0  0
 13  7  1  0  0  0
M  END
> <minimizedAffinity>
-4.50472

> <CNNscore>
0.3866819143

> <CNNaffinity>
5.5845866203

> <CNN_VS>
2.1594586372

> <CNNaffinity_variance>
0.1656831801

$$$$
[H]c1c([H])c(N2C([H])([H])C([H])([H])N(c3c([H])c([H])c(C#N)c(C(F)(F)F)c3[H])[C@]([H])(C([H])(C([H])([H])[H])C([H])([H])[H])C2([H])[H])c(C(F)(F)F)c([H])c1F


 32 34  0  0  0  0  0  0  0  0999 V2000
   35.0490  -18.8597   36.3576 C   0  0  0  0  0  0  0  0  0  0  0  0
   34.3501  -20.1672   36.7722 C   0  0  0  0  0  0  0  0  0  0  0  0
   33.2450  -20.5153   35.9417 N   0  0  0  0  0  0  0  0  0  0  0  0
   32.4730  -19.4014   35.3258 C   0  0  0  0  0  0  0  0  0  0  0  0
   32.6765  -18.1592   36.1309 C   0  0  0  0  0  0  0  0  0  0  0  0
   34.0868  -17.8370   36.1859 N   0  0  0  0  0  0  0  0  0  0  0  0
   32.7621  -21.8016   35.5826 C   0  0  0  0  0  0  0  0  0  0  0  0
   32.2120  -21.9675   34.2856 C   0  0  0  0  0  0  0  0  0  0  0  0
   31.7179  -23.1826   33.9177 C   0  0  0  0  0  0  0  0  0  0  0  0
   31.7333  -24.2654   34.7666 C   0  0  0  0  0  0  0  0  0  0  0  0
   31.2275  -25.4343   34.3337 F   0  0  0  0  0  0  0  0  0  0  0  0
   32.2703  -24.0801   36.0151 C   0  0  0  0  0  0  0  0  0  0  0  0
   32.7968  -22.8502   36.4561 C   0  0  0  0  0  0  0  0  0  0  0  0
   33.3496  -22.7669   37.8083 C   0  0  0  0  0  0  0  0  0  0  0  0
   32.7094  -21.8721   38.6428 F   0  0  0  0  0  0  0  0  0  0  0  0
   34.7170  -22.7168   37.8894 F   0  0  0  0  0  0  0  0  0  0  0  0
   33.0486  -24.0168   38.4377 F   0  0  0  0  0  0  0  0  0  0  0  0
   34.3897  -16.4488   36.1374 C   0  0  0  0  0  0  0  0  0  0  0  0
   33.4960  -15.5500   35.6102 C   0  0  0  0  0  0  0  0  0  0  0  0
   33.7964  -14.2134   35.6247 C   0  0  0  0  0  0  0  0  0  0  0  0
   34.9758  -13.7607   36.1576 C   0  0  0  0  0  0  0  0  0  0  0  0
   35.8797  -14.6593   36.6896 C   0  0  0  0  0  0  0  0  0  0  0  0
   35.5662  -15.9930   36.6684 C   0  0  0  0  0  0  0  0  0  0  0  0
   37.1698  -14.2186   37.2777 C   0  0  0  0  0  0  0  0  0  0  0  0
   36.9010  -13.4722   38.4269 F   0  0  0  0  0  0  0  0  0  0  0  0
   37.9407  -15.3147   37.5866 F   0  0  0  0  0  0  0  0  0  0  0  0
   37.8183  -13.4415   36.3225 F   0  0  0  0  0  0  0  0  0  0  0  0
   35.3054  -12.3624   36.1804 C   0  0  0  0  0  0  0  0  0  0  0  0
   35.5689  -11.2347   36.1913 N   0  0  0  0  0  0  0  0  0  0  0  0
   35.7912  -19.1331   33.9400 C   0  0  0  0  0  0  0  0  0  0  0  0
   36.1311  -19.0767   35.3997 C   0  0  0  0  0  0  0  0  0  0  0  0
   37.1105  -20.1832   35.6704 C   0  0  0  0  0  0  0  0  0  0  0  0
 30 31  1  0  0  0
 31 32  1  0  0  0
 31  1  1  0  0  0
  1  2  1  0  0  0
  2  3  1  0  0  0
  3  4  1  0  0  0
  4  5  1  0  0  0
  5  6  1  0  0  0
  6 18  1  0  0  0
 18 19  2  0  0  0
 19 20  1  0  0  0
 20 21  2  0  0  0
 21 28  1  0  0  0
 28 29  3  0  0  0
 21 22  1  0  0  0
 22 23  2  0  0  0
 22 24  1  0  0  0
 24 25  1  0  0  0
 24 26  1  0  0  0
 24 27  1  0  0  0
  3  7  1  0  0  0
  7  8  2  0  0  0
  8  9  1  0  0  0
  9 10  2  0  0  0
 10 11  1  0  0  0
 10 12  1  0  0  0
 12 13  2  0  0  0
 13 14  1  0  0  0
 14 15  1  0  0  0
 14 16  1  0  0  0
 14 17  1  0  0  0
  6  1  1  0  0  0
 23 18  1  0  0  0
 13  7  1  0  0  0
M  END
> <minimizedAffinity>
-5.20371

> <CNNscore>
0.3607984185

> <CNNaffinity>
5.8776674271

> <CNN_VS>
2.1206531525

> <CNNaffinity_variance>
0.0549829081

$$$$
[H]c1c([H])c(N2C([H])([H])C([H])([H])N(c3c([H])c([H])c(C#N)c(C(F)(F)F)c3[H])[C@]([H])(C([H])(C([H])([H])[H])C([H])([H])[H])C2([H])[H])c(C(F)(F)F)c([H])c1F


 32 34  0  0  0  0  0  0  0  0999 V2000
   34.9047  -18.7749   35.3583 C   0  0  0  0  0  0  0  0  0  0  0  0
   35.4520  -20.1923   35.6062 C   0  0  0  0  0  0  0  0  0  0  0  0
   35.1608  -20.7005   36.9058 N   0  0  0  0  0  0  0  0  0  0  0  0
   35.0602  -19.7177   38.0193 C   0  0  0  0  0  0  0  0  0  0  0  0
   35.8130  -18.4805   37.6516 C   0  0  0  0  0  0  0  0  0  0  0  0
   35.2751  -17.9258   36.4274 N   0  0  0  0  0  0  0  0  0  0  0  0
   34.9245  -22.0402   37.3135 C   0  0  0  0  0  0  0  0  0  0  0  0
   33.5843  -22.5052   37.3261 C   0  0  0  0  0  0  0  0  0  0  0  0
   33.3204  -23.7777   37.7348 C   0  0  0  0  0  0  0  0  0  0  0  0
   34.3161  -24.6367   38.1397 C   0  0  0  0  0  0  0  0  0  0  0  0
   33.9796  -25.8793   38.5301 F   0  0  0  0  0  0  0  0  0  0  0  0
   35.6036  -24.1640   38.1187 C   0  0  0  0  0  0  0  0  0  0  0  0
   35.9424  -22.8601   37.7075 C   0  0  0  0  0  0  0  0  0  0  0  0
   37.3506  -22.4628   37.7207 C   0  0  0  0  0  0  0  0  0  0  0  0
   37.6819  -21.5319   38.6854 F   0  0  0  0  0  0  0  0  0  0  0  0
   37.9084  -22.2100   36.4944 F   0  0  0  0  0  0  0  0  0  0  0  0
   38.0827  -23.6110   38.1621 F   0  0  0  0  0  0  0  0  0  0  0  0
   35.2365  -16.5055   36.3758 C   0  0  0  0  0  0  0  0  0  0  0  0
   34.1126  -15.8458   35.9443 C   0  0  0  0  0  0  0  0  0  0  0  0
   34.0894  -14.4759   35.9549 C   0  0  0  0  0  0  0  0  0  0  0  0
   35.1715  -13.7550   36.3896 C   0  0  0  0  0  0  0  0  0  0  0  0
   36.3057  -14.4120   36.8249 C   0  0  0  0  0  0  0  0  0  0  0  0
   36.3149  -15.7822   36.8089 C   0  0  0  0  0  0  0  0  0  0  0  0
   37.5027  -13.6763   37.3047 C   0  0  0  0  0  0  0  0  0  0  0  0
   37.8181  -12.6864   36.3716 F   0  0  0  0  0  0  0  0  0  0  0  0
   37.2438  -13.1135   38.5325 F   0  0  0  0  0  0  0  0  0  0  0  0
   38.5392  -14.5980   37.4189 F   0  0  0  0  0  0  0  0  0  0  0  0
   35.1627  -12.3183   36.4068 C   0  0  0  0  0  0  0  0  0  0  0  0
   35.1546  -11.1602   36.4130 N   0  0  0  0  0  0  0  0  0  0  0  0
   32.3918  -18.7856   35.7530 C   0  0  0  0  0  0  0  0  0  0  0  0
   33.5527  -18.7803   34.8035 C   0  0  0  0  0  0  0  0  0  0  0  0
   33.2359  -19.7601   33.7095 C   0  0  0  0  0  0  0  0  0  0  0  0
 30 31  1  0  0  0
 31 32  1  0  0  0
 31  1  1  0  0  0
  1  2  1  0  0  0
  2  3  1  0  0  0
  3  4  1  0  0  0
  4  5  1  0  0  0
  5  6  1  0  0  0
  6 18  1  0  0  0
 18 19  2  0  0  0
 19 20  1  0  0  0
 20 21  2  0  0  0
 21 28  1  0  0  0
 28 29  3  0  0  0
 21 22  1  0  0  0
 22 23  2  0  0  0
 22 24  1  0  0  0
 24 25  1  0  0  0
 24 26  1  0  0  0
 24 27  1  0  0  0
  3  7  1  0  0  0
  7  8  2  0  0  0
  8  9  1  0  0  0
  9 10  2  0  0  0
 10 11  1  0  0  0
 10 12  1  0  0  0
 12 13  2  0  0  0
 13 14  1  0  0  0
 14 15  1  0  0  0
 14 16  1  0  0  0
 14 17  1  0  0  0
  6  1  1  0  0  0
 23 18  1  0  0  0
 13  7  1  0  0  0
M  END
> <minimizedAffinity>
-5.31003

> <CNNscore>
0.3526250720

> <CNNaffinity>
5.7480068207

> <CNN_VS>
2.0268912315

> <CNNaffinity_variance>
0.0212907530

$$$$
[H]c1c([H])c(N2C([H])([H])C([H])([H])N(c3c([H])c([H])c(C#N)c(C(F)(F)F)c3[H])[C@]([H])(C([H])(C([H])([H])[H])C([H])([H])[H])C2([H])[H])c(C(F)(F)F)c([H])c1F


 32 34  0  0  0  0  0  0  0  0999 V2000
   35.2593  -20.1337   36.8990 C   0  0  0  0  0  0  0  0  0  0  0  0
   33.7470  -19.9146   37.0863 C   0  0  0  0  0  0  0  0  0  0  0  0
   32.9526  -20.4783   36.0455 N   0  0  0  0  0  0  0  0  0  0  0  0
   33.5502  -20.5391   34.6835 C   0  0  0  0  0  0  0  0  0  0  0  0
   34.6327  -19.5147   34.5763 C   0  0  0  0  0  0  0  0  0  0  0  0
   35.6383  -19.7572   35.5892 N   0  0  0  0  0  0  0  0  0  0  0  0
   31.6444  -21.0269   36.1119 C   0  0  0  0  0  0  0  0  0  0  0  0
   31.4874  -22.3021   36.7135 C   0  0  0  0  0  0  0  0  0  0  0  0
   30.2494  -22.8676   36.7718 C   0  0  0  0  0  0  0  0  0  0  0  0
   29.1348  -22.2409   36.2638 C   0  0  0  0  0  0  0  0  0  0  0  0
   27.9446  -22.8608   36.3576 F   0  0  0  0  0  0  0  0  0  0  0  0
   29.3121  -21.0090   35.6872 C   0  0  0  0  0  0  0  0  0  0  0  0
   30.5644  -20.3707   35.5953 C   0  0  0  0  0  0  0  0  0  0  0  0
   30.6369  -19.0532   34.9631 C   0  0  0  0  0  0  0  0  0  0  0  0
   31.6063  -18.2151   35.4777 F   0  0  0  0  0  0  0  0  0  0  0  0
   29.4344  -18.4346   34.7387 F   0  0  0  0  0  0  0  0  0  0  0  0
   31.1218  -19.2764   33.6349 F   0  0  0  0  0  0  0  0  0  0  0  0
   36.9771  -19.5094   35.1801 C   0  0  0  0  0  0  0  0  0  0  0  0
   37.2595  -19.1041   33.8992 C   0  0  0  0  0  0  0  0  0  0  0  0
   38.5547  -18.8242   33.5511 C   0  0  0  0  0  0  0  0  0  0  0  0
   39.5721  -18.9431   34.4624 C   0  0  0  0  0  0  0  0  0  0  0  0
   39.2953  -19.3505   35.7527 C   0  0  0  0  0  0  0  0  0  0  0  0
   37.9956  -19.6269   36.0871 C   0  0  0  0  0  0  0  0  0  0  0  0
   40.3620  -19.4945   36.7754 C   0  0  0  0  0  0  0  0  0  0  0  0
   41.2656  -20.4658   36.3397 F   0  0  0  0  0  0  0  0  0  0  0  0
   41.0016  -18.2904   36.9557 F   0  0  0  0  0  0  0  0  0  0  0  0
   39.7496  -19.8842   37.9629 F   0  0  0  0  0  0  0  0  0  0  0  0
   40.9353  -18.6533   34.1128 C   0  0  0  0  0  0  0  0  0  0  0  0
   42.0334  -18.4127   33.8344 N   0  0  0  0  0  0  0  0  0  0  0  0
   35.0053  -22.6452   37.2130 C   0  0  0  0  0  0  0  0  0  0  0  0
   35.7322  -21.3695   37.5194 C   0  0  0  0  0  0  0  0  0  0  0  0
   36.0145  -21.3629   38.9949 C   0  0  0  0  0  0  0  0  0  0  0  0
 30 31  1  0  0  0
 31 32  1  0  0  0
 31  1  1  0  0  0
  1  2  1  0  0  0
  2  3  1  0  0  0
  3  4  1  0  0  0
  4  5  1  0  0  0
  5  6  1  0  0  0
  6 18  1  0  0  0
 18 19  2  0  0  0
 19 20  1  0  0  0
 20 21  2  0  0  0
 21 28  1  0  0  0
 28 29  3  0  0  0
 21 22  1  0  0  0
 22 23  2  0  0  0
 22 24  1  0  0  0
 24 25  1  0  0  0
 24 26  1  0  0  0
 24 27  1  0  0  0
  3  7  1  0  0  0
  7  8  2  0  0  0
  8  9  1  0  0  0
  9 10  2  0  0  0
 10 11  1  0  0  0
 10 12  1  0  0  0
 12 13  2  0  0  0
 13 14  1  0  0  0
 14 15  1  0  0  0
 14 16  1  0  0  0
 14 17  1  0  0  0
  6  1  1  0  0  0
 23 18  1  0  0  0
 13  7  1  0  0  0
M  END
> <minimizedAffinity>
-5.86936

> <CNNscore>
0.3485341668

> <CNNaffinity>
5.2973031998

> <CNN_VS>
1.8462911844

> <CNNaffinity_variance>
0.0779736564

$$$$
[H]c1c([H])c(N2C([H])([H])C([H])([H])N(c3c([H])c([H])c(C#N)c(C(F)(F)F)c3[H])[C@]([H])(C([H])(C([H])([H])[H])C([H])([H])[H])C2([H])[H])c(C(F)(F)F)c([H])c1F


 32 34  0  0  0  0  0  0  0  0999 V2000
   36.6749  -20.3051   36.3991 C   0  0  0  0  0  0  0  0  0  0  0  0
   37.8484  -21.2594   36.1125 C   0  0  0  0  0  0  0  0  0  0  0  0
   39.0167  -20.9783   36.8793 N   0  0  0  0  0  0  0  0  0  0  0  0
   39.2637  -19.5598   37.2571 C   0  0  0  0  0  0  0  0  0  0  0  0
   38.5381  -18.6649   36.3055 C   0  0  0  0  0  0  0  0  0  0  0  0
   37.1221  -18.9646   36.3347 N   0  0  0  0  0  0  0  0  0  0  0  0
   40.0037  -21.8727   37.3718 C   0  0  0  0  0  0  0  0  0  0  0  0
   41.1705  -22.0721   36.5899 C   0  0  0  0  0  0  0  0  0  0  0  0
   42.1261  -22.9417   37.0218 C   0  0  0  0  0  0  0  0  0  0  0  0
   41.9997  -23.6404   38.2004 C   0  0  0  0  0  0  0  0  0  0  0  0
   42.9846  -24.4820   38.5627 F   0  0  0  0  0  0  0  0  0  0  0  0
   40.8628  -23.4306   38.9387 C   0  0  0  0  0  0  0  0  0  0  0  0
   39.8386  -22.5462   38.5478 C   0  0  0  0  0  0  0  0  0  0  0  0
   38.6703  -22.3963   39.4159 C   0  0  0  0  0  0  0  0  0  0  0  0
   37.5106  -22.9687   38.9320 F   0  0  0  0  0  0  0  0  0  0  0  0
   38.4873  -21.1500   39.9564 F   0  0  0  0  0  0  0  0  0  0  0  0
   38.9295  -23.1993   40.5722 F   0  0  0  0  0  0  0  0  0  0  0  0
   36.2652  -17.8367   36.2129 C   0  0  0  0  0  0  0  0  0  0  0  0
   35.0883  -17.9178   35.5109 C   0  0  0  0  0  0  0  0  0  0  0  0
   34.2602  -16.8277   35.4552 C   0  0  0  0  0  0  0  0  0  0  0  0
   34.5897  -15.6579   36.0897 C   0  0  0  0  0  0  0  0  0  0  0  0
   35.7723  -15.5690   36.7976 C   0  0  0  0  0  0  0  0  0  0  0  0
   36.5907  -16.6670   36.8449 C   0  0  0  0  0  0  0  0  0  0  0  0
   36.1734  -14.3246   37.5012 C   0  0  0  0  0  0  0  0  0  0  0  0
   35.0807  -13.8585   38.2351 F   0  0  0  0  0  0  0  0  0  0  0  0
   37.2369  -14.5815   38.3345 F   0  0  0  0  0  0  0  0  0  0  0  0
   36.5490  -13.4007   36.5305 F   0  0  0  0  0  0  0  0  0  0  0  0
   33.7321  -14.5061   36.0408 C   0  0  0  0  0  0  0  0  0  0  0  0
   33.0402  -13.5779   36.0091 N   0  0  0  0  0  0  0  0  0  0  0  0
   34.4245  -21.2459   37.1211 C   0  0  0  0  0  0  0  0  0  0  0  0
   35.8071  -20.7835   37.4733 C   0  0  0  0  0  0  0  0  0  0  0  0
   35.6931  -19.9529   38.7200 C   0  0  0  0  0  0  0  0  0  0  0  0
 30 31  1  0  0  0
 31 32  1  0  0  0
 31  1  1  0  0  0
  1  2  1  0  0  0
  2  3  1  0  0  0
  3  4  1  0  0  0
  4  5  1  0  0  0
  5  6  1  0  0  0
  6 18  1  0  0  0
 18 19  2  0  0  0
 19 20  1  0  0  0
 20 21  2  0  0  0
 21 28  1  0  0  0
 28 29  3  0  0  0
 21 22  1  0  0  0
 22 23  2  0  0  0
 22 24  1  0  0  0
 24 25  1  0  0  0
 24 26  1  0  0  0
 24 27  1  0  0  0
  3  7  1  0  0  0
  7  8  2  0  0  0
  8  9  1  0  0  0
  9 10  2  0  0  0
 10 11  1  0  0  0
 10 12  1  0  0  0
 12 13  2  0  0  0
 13 14  1  0  0  0
 14 15  1  0  0  0
 14 16  1  0  0  0
 14 17  1  0  0  0
  6  1  1  0  0  0
 23 18  1  0  0  0
 13  7  1  0  0  0
M  END
> <minimizedAffinity>
-5.81326

> <CNNscore>
0.3367761075

> <CNNaffinity>
5.5811953545

> <CNN_VS>
1.8796132803

> <CNNaffinity_variance>
0.1489953995

$$$$
[H]c1c([H])c(N2C([H])([H])C([H])([H])N(c3c([H])c([H])c(C#N)c(C(F)(F)F)c3[H])[C@]([H])(C([H])(C([H])([H])[H])C([H])([H])[H])C2([H])[H])c(C(F)(F)F)c([H])c1F


 32 34  0  0  0  0  0  0  0  0999 V2000
   36.8625  -21.6828   38.7311 C   0  0  0  0  0  0  0  0  0  0  0  0
   38.2658  -22.3139   38.7815 C   0  0  0  0  0  0  0  0  0  0  0  0
   39.3150  -21.4061   38.4545 N   0  0  0  0  0  0  0  0  0  0  0  0
   39.0035  -20.3184   37.4871 C   0  0  0  0  0  0  0  0  0  0  0  0
   37.8305  -20.7229   36.6546 C   0  0  0  0  0  0  0  0  0  0  0  0
   36.6930  -20.9910   37.5090 N   0  0  0  0  0  0  0  0  0  0  0  0
   40.6493  -21.3645   38.9388 C   0  0  0  0  0  0  0  0  0  0  0  0
   40.9457  -20.4660   39.9960 C   0  0  0  0  0  0  0  0  0  0  0  0
   42.2210  -20.3839   40.4679 C   0  0  0  0  0  0  0  0  0  0  0  0
   43.2421  -21.1481   39.9516 C   0  0  0  0  0  0  0  0  0  0  0  0
   44.4767  -21.0129   40.4684 F   0  0  0  0  0  0  0  0  0  0  0  0
   42.9307  -22.0091   38.9302 C   0  0  0  0  0  0  0  0  0  0  0  0
   41.6333  -22.1410   38.3979 C   0  0  0  0  0  0  0  0  0  0  0  0
   41.4135  -23.0952   37.3106 C   0  0  0  0  0  0  0  0  0  0  0  0
   42.5454  -23.7634   36.8873 F   0  0  0  0  0  0  0  0  0  0  0  0
   40.6160  -22.6556   36.2860 F   0  0  0  0  0  0  0  0  0  0  0  0
   40.6389  -24.1616   37.8690 F   0  0  0  0  0  0  0  0  0  0  0  0
   35.4362  -20.5841   36.9837 C   0  0  0  0  0  0  0  0  0  0  0  0
   34.3149  -21.3565   37.1594 C   0  0  0  0  0  0  0  0  0  0  0  0
   33.1090  -20.9117   36.6852 C   0  0  0  0  0  0  0  0  0  0  0  0
   33.0057  -19.7073   36.0381 C   0  0  0  0  0  0  0  0  0  0  0  0
   34.1295  -18.9251   35.8576 C   0  0  0  0  0  0  0  0  0  0  0  0
   35.3290  -19.3823   36.3370 C   0  0  0  0  0  0  0  0  0  0  0  0
   34.0692  -17.6140   35.1634 C   0  0  0  0  0  0  0  0  0  0  0  0
   35.3529  -17.0651   35.1405 F   0  0  0  0  0  0  0  0  0  0  0  0
   33.5973  -17.7849   33.8831 F   0  0  0  0  0  0  0  0  0  0  0  0
   33.1961  -16.8029   35.8822 F   0  0  0  0  0  0  0  0  0  0  0  0
   31.7484  -19.2270   35.5351 C   0  0  0  0  0  0  0  0  0  0  0  0
   30.7357  -18.8335   35.1341 N   0  0  0  0  0  0  0  0  0  0  0  0
   37.2348  -21.4761   41.2390 C   0  0  0  0  0  0  0  0  0  0  0  0
   36.4550  -21.1084   40.0117 C   0  0  0  0  0  0  0  0  0  0  0  0
   34.9994  -21.1523   40.3809 C   0  0  0  0  0  0  0  0  0  0  0  0
 30 31  1  0  0  0
 31 32  1  0  0  0
 31  1  1  0  0  0
  1  2  1  0  0  0
  2  3  1  0  0  0
  3  4  1  0  0  0
  4  5  1  0  0  0
  5  6  1  0  0  0
  6 18  1  0  0  0
 18 19  2  0  0  0
 19 20  1  0  0  0
 20 21  2  0  0  0
 21 28  1  0  0  0
 28 29  3  0  0  0
 21 22  1  0  0  0
 22 23  2  0  0  0
 22 24  1  0  0  0
 24 25  1  0  0  0
 24 26  1  0  0  0
 24 27  1  0  0  0
  3  7  1  0  0  0
  7  8  2  0  0  0
  8  9  1  0  0  0
  9 10  2  0  0  0
 10 11  1  0  0  0
 10 12  1  0  0  0
 12 13  2  0  0  0
 13 14  1  0  0  0
 14 15  1  0  0  0
 14 16  1  0  0  0
 14 17  1  0  0  0
  6  1  1  0  0  0
 23 18  1  0  0  0
 13  7  1  0  0  0
M  END
> <minimizedAffinity>
-4.46690

> <CNNscore>
0.3238546848

> <CNNaffinity>
5.1793708801

> <CNN_VS>
1.6773635149

> <CNNaffinity_variance>
0.0937321633

$$$$
[H]c1c([H])c(N2C([H])([H])C([H])([H])N(c3c([H])c([H])c(C#N)c(C(F)(F)F)c3[H])[C@]([H])(C([H])(C([H])([H])[H])C([H])([H])[H])C2([H])[H])c(C(F)(F)F)c([H])c1F


 32 34  0  0  0  0  0  0  0  0999 V2000
   36.3305  -19.3119   36.2697 C   0  0  0  0  0  0  0  0  0  0  0  0
   37.1596  -20.4978   35.7440 C   0  0  0  0  0  0  0  0  0  0  0  0
   38.2902  -20.8109   36.5537 N   0  0  0  0  0  0  0  0  0  0  0  0
   38.9431  -19.6891   37.2824 C   0  0  0  0  0  0  0  0  0  0  0  0
   38.6192  -18.4026   36.5949 C   0  0  0  0  0  0  0  0  0  0  0  0
   37.1839  -18.2192   36.5504 N   0  0  0  0  0  0  0  0  0  0  0  0
   38.8986  -22.0709   36.7970 C   0  0  0  0  0  0  0  0  0  0  0  0
   38.4212  -22.8405   37.8890 C   0  0  0  0  0  0  0  0  0  0  0  0
   38.9990  -24.0430   38.1646 C   0  0  0  0  0  0  0  0  0  0  0  0
   40.0388  -24.5433   37.4152 C   0  0  0  0  0  0  0  0  0  0  0  0
   40.5594  -25.7384   37.7471 F   0  0  0  0  0  0  0  0  0  0  0  0
   40.4828  -23.7808   36.3648 C   0  0  0  0  0  0  0  0  0  0  0  0
   39.9287  -22.5304   36.0279 C   0  0  0  0  0  0  0  0  0  0  0  0
   40.4782  -21.8039   34.8828 C   0  0  0  0  0  0  0  0  0  0  0  0
   41.2644  -20.7165   35.2085 F   0  0  0  0  0  0  0  0  0  0  0  0
   39.6032  -21.5649   33.8551 F   0  0  0  0  0  0  0  0  0  0  0  0
   41.4333  -22.6815   34.2773 F   0  0  0  0  0  0  0  0  0  0  0  0
   36.7423  -16.8791   36.7250 C   0  0  0  0  0  0  0  0  0  0  0  0
   37.5824  -15.9206   37.2349 C   0  0  0  0  0  0  0  0  0  0  0  0
   37.1427  -14.6275   37.3429 C   0  0  0  0  0  0  0  0  0  0  0  0
   35.8770  -14.2771   36.9495 C   0  0  0  0  0  0  0  0  0  0  0  0
   35.0263  -15.2362   36.4357 C   0  0  0  0  0  0  0  0  0  0  0  0
   35.4793  -16.5254   36.3334 C   0  0  0  0  0  0  0  0  0  0  0  0
   33.6470  -14.9066   35.9963 C   0  0  0  0  0  0  0  0  0  0  0  0
   33.7134  -13.8577   35.0769 F   0  0  0  0  0  0  0  0  0  0  0  0
   33.0632  -16.0117   35.4224 F   0  0  0  0  0  0  0  0  0  0  0  0
   32.9292  -14.5295   37.1274 F   0  0  0  0  0  0  0  0  0  0  0  0
   35.4012  -12.9255   37.0562 C   0  0  0  0  0  0  0  0  0  0  0  0
   35.0156  -11.8374   37.1497 N   0  0  0  0  0  0  0  0  0  0  0  0
   35.5607  -19.7222   38.6593 C   0  0  0  0  0  0  0  0  0  0  0  0
   35.2713  -19.7259   37.1876 C   0  0  0  0  0  0  0  0  0  0  0  0
   34.5224  -20.9928   36.8857 C   0  0  0  0  0  0  0  0  0  0  0  0
 30 31  1  0  0  0
 31 32  1  0  0  0
 31  1  1  0  0  0
  1  2  1  0  0  0
  2  3  1  0  0  0
  3  4  1  0  0  0
  4  5  1  0  0  0
  5  6  1  0  0  0
  6 18  1  0  0  0
 18 19  2  0  0  0
 19 20  1  0  0  0
 20 21  2  0  0  0
 21 28  1  0  0  0
 28 29  3  0  0  0
 21 22  1  0  0  0
 22 23  2  0  0  0
 22 24  1  0  0  0
 24 25  1  0  0  0
 24 26  1  0  0  0
 24 27  1  0  0  0
  3  7  1  0  0  0
  7  8  2  0  0  0
  8  9  1  0  0  0
  9 10  2  0  0  0
 10 11  1  0  0  0
 10 12  1  0  0  0
 12 13  2  0  0  0
 13 14  1  0  0  0
 14 15  1  0  0  0
 14 16  1  0  0  0
 14 17  1  0  0  0
  6  1  1  0  0  0
 23 18  1  0  0  0
 13  7  1  0  0  0
M  END
> <minimizedAffinity>
-4.62424

> <CNNscore>
0.3231808245

> <CNNaffinity>
5.5721592903

> <CNN_VS>
1.8008149862

> <CNNaffinity_variance>
0.2165729553

$$$$
[H]c1c([H])c(N2C([H])([H])C([H])([H])N(c3c([H])c([H])c(C#N)c(C(F)(F)F)c3[H])[C@]([H])(C([H])(C([H])([H])[H])C([H])([H])[H])C2([H])[H])c(C(F)(F)F)c([H])c1F


 32 34  0  0  0  0  0  0  0  0999 V2000
   39.8484  -21.6894   37.5868 C   0  0  0  0  0  0  0  0  0  0  0  0
   40.7093  -22.7160   36.8287 C   0  0  0  0  0  0  0  0  0  0  0  0
   40.1711  -23.0934   35.5638 N   0  0  0  0  0  0  0  0  0  0  0  0
   38.6894  -23.0881   35.4203 C   0  0  0  0  0  0  0  0  0  0  0  0
   38.0649  -23.2143   36.7719 C   0  0  0  0  0  0  0  0  0  0  0  0
   38.5025  -22.1235   37.6171 N   0  0  0  0  0  0  0  0  0  0  0  0
   40.8511  -23.4668   34.3743 C   0  0  0  0  0  0  0  0  0  0  0  0
   41.1053  -24.8457   34.1582 C   0  0  0  0  0  0  0  0  0  0  0  0
   41.7767  -25.2359   33.0389 C   0  0  0  0  0  0  0  0  0  0  0  0
   42.2215  -24.3326   32.1011 C   0  0  0  0  0  0  0  0  0  0  0  0
   42.8775  -24.7920   31.0203 F   0  0  0  0  0  0  0  0  0  0  0  0
   41.9636  -23.0054   32.3323 C   0  0  0  0  0  0  0  0  0  0  0  0
   41.2753  -22.5375   33.4687 C   0  0  0  0  0  0  0  0  0  0  0  0
   41.0514  -21.0986   33.6117 C   0  0  0  0  0  0  0  0  0  0  0  0
   41.9303  -20.4561   34.4612 F   0  0  0  0  0  0  0  0  0  0  0  0
   39.7459  -20.7133   33.7730 F   0  0  0  0  0  0  0  0  0  0  0  0
   41.3912  -20.5167   32.3487 F   0  0  0  0  0  0  0  0  0  0  0  0
   37.5128  -21.6117   38.5002 C   0  0  0  0  0  0  0  0  0  0  0  0
   36.3762  -21.0137   38.0153 C   0  0  0  0  0  0  0  0  0  0  0  0
   35.4181  -20.5767   38.8917 C   0  0  0  0  0  0  0  0  0  0  0  0
   35.5779  -20.7277   40.2450 C   0  0  0  0  0  0  0  0  0  0  0  0
   36.7189  -21.3281   40.7400 C   0  0  0  0  0  0  0  0  0  0  0  0
   37.6687  -21.7604   39.8520 C   0  0  0  0  0  0  0  0  0  0  0  0
   36.9383  -21.5142   42.1966 C   0  0  0  0  0  0  0  0  0  0  0  0
   38.1933  -22.0966   42.3850 F   0  0  0  0  0  0  0  0  0  0  0  0
   36.8717  -20.2994   42.8378 F   0  0  0  0  0  0  0  0  0  0  0  0
   35.9288  -22.3496   42.6657 F   0  0  0  0  0  0  0  0  0  0  0  0
   34.5824  -20.2748   41.1770 C   0  0  0  0  0  0  0  0  0  0  0  0
   33.7845  -19.9122   41.9340 N   0  0  0  0  0  0  0  0  0  0  0  0
   40.9923  -19.5303   38.2944 C   0  0  0  0  0  0  0  0  0  0  0  0
   40.2121  -20.3083   37.2767 C   0  0  0  0  0  0  0  0  0  0  0  0
   39.1469  -19.3946   36.7407 C   0  0  0  0  0  0  0  0  0  0  0  0
 30 31  1  0  0  0
 31 32  1  0  0  0
 31  1  1  0  0  0
  1  2  1  0  0  0
  2  3  1  0  0  0
  3  4  1  0  0  0
  4  5  1  0  0  0
  5  6  1  0  0  0
  6 18  1  0  0  0
 18 19  2  0  0  0
 19 20  1  0  0  0
 20 21  2  0  0  0
 21 28  1  0  0  0
 28 29  3  0  0  0
 21 22  1  0  0  0
 22 23  2  0  0  0
 22 24  1  0  0  0
 24 25  1  0  0  0
 24 26  1  0  0  0
 24 27  1  0  0  0
  3  7  1  0  0  0
  7  8  2  0  0  0
  8  9  1  0  0  0
  9 10  2  0  0  0
 10 11  1  0  0  0
 10 12  1  0  0  0
 12 13  2  0  0  0
 13 14  1  0  0  0
 14 15  1  0  0  0
 14 16  1  0  0  0
 14 17  1  0  0  0
  6  1  1  0  0  0
 23 18  1  0  0  0
 13  7  1  0  0  0
M  END
> <minimizedAffinity>
-3.92416

> <CNNscore>
0.3104388714

> <CNNaffinity>
4.8267755508

> <CNN_VS>
1.4984188080

> <CNNaffinity_variance>
0.1113202721

$$$$
[H]c1c([H])c(N2C([H])([H])C([H])([H])N(c3c([H])c([H])c(C#N)c(C(F)(F)F)c3[H])[C@]([H])(C([H])(C([H])([H])[H])C([H])([H])[H])C2([H])[H])c(C(F)(F)F)c([H])c1F


 32 34  0  0  0  0  0  0  0  0999 V2000
   36.9896  -20.3644   38.4690 C   0  0  0  0  0  0  0  0  0  0  0  0
   35.7337  -19.5377   38.1382 C   0  0  0  0  0  0  0  0  0  0  0  0
   35.3575  -19.5907   36.7643 N   0  0  0  0  0  0  0  0  0  0  0  0
   36.4453  -19.7572   35.7618 C   0  0  0  0  0  0  0  0  0  0  0  0
   37.7354  -19.2928   36.3557 C   0  0  0  0  0  0  0  0  0  0  0  0
   38.0229  -20.0504   37.5553 N   0  0  0  0  0  0  0  0  0  0  0  0
   34.0624  -19.5272   36.1851 C   0  0  0  0  0  0  0  0  0  0  0  0
   33.2840  -20.7130   36.1644 C   0  0  0  0  0  0  0  0  0  0  0  0
   32.0466  -20.6925   35.5948 C   0  0  0  0  0  0  0  0  0  0  0  0
   31.5192  -19.5523   35.0334 C   0  0  0  0  0  0  0  0  0  0  0  0
   30.2903  -19.6078   34.4891 F   0  0  0  0  0  0  0  0  0  0  0  0
   32.2908  -18.4187   35.0657 C   0  0  0  0  0  0  0  0  0  0  0  0
   33.5767  -18.3741   35.6390 C   0  0  0  0  0  0  0  0  0  0  0  0
   34.3101  -17.1081   35.6219 C   0  0  0  0  0  0  0  0  0  0  0  0
   35.0930  -16.8760   36.7355 F   0  0  0  0  0  0  0  0  0  0  0  0
   33.5958  -16.0128   35.2108 F   0  0  0  0  0  0  0  0  0  0  0  0
   35.2983  -17.2358   34.5942 F   0  0  0  0  0  0  0  0  0  0  0  0
   39.3956  -20.3602   37.7574 C   0  0  0  0  0  0  0  0  0  0  0  0
   40.3069  -20.2223   36.7400 C   0  0  0  0  0  0  0  0  0  0  0  0
   41.6306  -20.4802   36.9813 C   0  0  0  0  0  0  0  0  0  0  0  0
   42.0582  -20.8738   38.2231 C   0  0  0  0  0  0  0  0  0  0  0  0
   41.1469  -21.0148   39.2513 C   0  0  0  0  0  0  0  0  0  0  0  0
   39.8263  -20.7535   38.9958 C   0  0  0  0  0  0  0  0  0  0  0  0
   41.5604  -21.4385   40.6129 C   0  0  0  0  0  0  0  0  0  0  0  0
   42.1204  -22.7149   40.5290 F   0  0  0  0  0  0  0  0  0  0  0  0
   42.4743  -20.5460   41.1222 F   0  0  0  0  0  0  0  0  0  0  0  0
   40.4192  -21.4493   41.4094 F   0  0  0  0  0  0  0  0  0  0  0  0
   43.4428  -21.1478   38.4920 C   0  0  0  0  0  0  0  0  0  0  0  0
   44.5567  -21.3752   38.7126 N   0  0  0  0  0  0  0  0  0  0  0  0
   36.5973  -22.7758   37.7606 C   0  0  0  0  0  0  0  0  0  0  0  0
   36.6767  -21.7417   38.8441 C   0  0  0  0  0  0  0  0  0  0  0  0
   35.5200  -21.9817   39.7723 C   0  0  0  0  0  0  0  0  0  0  0  0
 30 31  1  0  0  0
 31 32  1  0  0  0
 31  1  1  0  0  0
  1  2  1  0  0  0
  2  3  1  0  0  0
  3  4  1  0  0  0
  4  5  1  0  0  0
  5  6  1  0  0  0
  6 18  1  0  0  0
 18 19  2  0  0  0
 19 20  1  0  0  0
 20 21  2  0  0  0
 21 28  1  0  0  0
 28 29  3  0  0  0
 21 22  1  0  0  0
 22 23  2  0  0  0
 22 24  1  0  0  0
 24 25  1  0  0  0
 24 26  1  0  0  0
 24 27  1  0  0  0
  3  7  1  0  0  0
  7  8  2  0  0  0
  8  9  1  0  0  0
  9 10  2  0  0  0
 10 11  1  0  0  0
 10 12  1  0  0  0
 12 13  2  0  0  0
 13 14  1  0  0  0
 14 15  1  0  0  0
 14 16  1  0  0  0
 14 17  1  0  0  0
  6  1  1  0  0  0
 23 18  1  0  0  0
 13  7  1  0  0  0
M  END
> <minimizedAffinity>
-4.86881

> <CNNscore>
0.2798407376

> <CNNaffinity>
5.0923585892

> <CNN_VS>
1.4250494242

> <CNNaffinity_variance>
0.1745664626

$$$$
[H]C1=C2C([H])([H])C([H])([H])C3([H])C4([H])C([H])([H])C([H])=C(c5c([H])nc([H])c([H])c5[H])[C@@]4(C([H])([H])[H])C([H])([H])C([H])([H])C3([H])[C@@]2(C([H])([H])[H])C([H])([H])C([H])([H])C1=O


 26 30  0  0  0  0  0  0  0  0999 V2000
   33.3902  -22.1906   39.3988 C   0  0  0  0  0  0  0  0  0  0  0  0
   34.3369  -21.7309   38.2642 C   0  0  0  0  0  0  0  0  0  0  0  0
   35.1663  -22.9095   37.9040 C   0  0  0  0  0  0  0  0  0  0  0  0
   36.4541  -22.4662   37.2757 C   0  0  0  0  0  0  0  0  0  0  0  0
   37.3092  -21.6434   38.1756 C   0  0  0  0  0  0  0  0  0  0  0  0
   36.5448  -20.8119   39.1449 C   0  0  0  0  0  0  0  0  0  0  0  0
   36.5801  -21.2754   40.5791 C   0  0  0  0  0  0  0  0  0  0  0  0
   37.9255  -21.5409   41.1423 C   0  0  0  0  0  0  0  0  0  0  0  0
   38.9038  -21.8565   40.0390 C   0  0  0  0  0  0  0  0  0  0  0  0
   40.1544  -21.5370   40.2201 C   0  0  0  0  0  0  0  0  0  0  0  0
   41.1401  -21.8131   39.1985 C   0  0  0  0  0  0  0  0  0  0  0  0
   42.3254  -22.0502   39.4568 O   0  0  0  0  0  0  0  0  0  0  0  0
   40.5888  -21.7848   37.7920 C   0  0  0  0  0  0  0  0  0  0  0  0
   39.4589  -22.7677   37.8123 C   0  0  0  0  0  0  0  0  0  0  0  0
   38.3909  -22.5015   38.8341 C   0  0  0  0  0  0  0  0  0  0  0  0
   37.8872  -23.8763   39.2340 C   0  0  0  0  0  0  0  0  0  0  0  0
   35.0978  -20.5982   38.7882 C   0  0  0  0  0  0  0  0  0  0  0  0
   34.9986  -19.5617   37.7021 C   0  0  0  0  0  0  0  0  0  0  0  0
   33.8499  -20.0258   36.9076 C   0  0  0  0  0  0  0  0  0  0  0  0
   33.4537  -21.2474   37.2013 C   0  0  0  0  0  0  0  0  0  0  0  0
   32.3302  -21.9005   36.5232 C   0  0  0  0  0  0  0  0  0  0  0  0
   32.4815  -22.9582   35.6738 C   0  0  0  0  0  0  0  0  0  0  0  0
   31.3834  -23.5524   35.0473 C   0  0  0  0  0  0  0  0  0  0  0  0
   30.1035  -23.0882   35.2667 C   0  0  0  0  0  0  0  0  0  0  0  0
   29.9639  -22.0623   36.0915 N   0  0  0  0  0  0  0  0  0  0  0  0
   31.0221  -21.4841   36.6999 C   0  0  0  0  0  0  0  0  0  0  0  0
  2  1  1  0  0  0
  2  3  1  0  0  0
  3  4  1  0  0  0
  4  5  1  0  0  0
  5  6  1  0  0  0
  6  7  1  0  0  0
  7  8  1  0  0  0
  8  9  1  0  0  0
  9 10  2  0  0  0
 10 11  1  0  0  0
 11 12  2  0  0  0
 11 13  1  0  0  0
 13 14  1  0  0  0
 14 15  1  0  0  0
 15 16  1  0  0  0
  6 17  1  0  0  0
 17 18  1  0  0  0
 18 19  1  0  0  0
 19 20  2  0  0  0
 20 21  1  0  0  0
 21 22  2  0  0  0
 22 23  1  0  0  0
 23 24  2  0  0  0
 24 25  1  0  0  0
 25 26  2  0  0  0
 17  2  1  0  0  0
 26 21  1  0  0  0
 20  2  1  0  0  0
 15  5  1  0  0  0
 15  9  1  0  0  0
M  END
> <minimizedAffinity>
-3.96612

> <CNNscore>
0.5689657927

> <CNNaffinity>
4.9476037025

> <CNN_VS>
2.8150172234

> <CNNaffinity_variance>
0.0628664047

$$$$
[H]C1=C2C([H])([H])C([H])([H])C3([H])C4([H])C([H])([H])C([H])=C(c5c([H])nc([H])c([H])c5[H])[C@@]4(C([H])([H])[H])C([H])([H])C([H])([H])C3([H])[C@@]2(C([H])([H])[H])C([H])([H])C([H])([H])C1=O


 26 30  0  0  0  0  0  0  0  0999 V2000
   34.5049  -20.8257   37.9902 C   0  0  0  0  0  0  0  0  0  0  0  0
   35.5224  -20.1241   37.0589 C   0  0  0  0  0  0  0  0  0  0  0  0
   36.1339  -21.1898   36.2240 C   0  0  0  0  0  0  0  0  0  0  0  0
   37.4821  -20.7547   35.7314 C   0  0  0  0  0  0  0  0  0  0  0  0
   38.4644  -20.4958   36.8206 C   0  0  0  0  0  0  0  0  0  0  0  0
   37.8535  -19.9914   38.0805 C   0  0  0  0  0  0  0  0  0  0  0  0
   37.8008  -20.9727   39.2239 C   0  0  0  0  0  0  0  0  0  0  0  0
   39.0764  -21.6512   39.5559 C   0  0  0  0  0  0  0  0  0  0  0  0
   39.9888  -21.6706   38.3555 C   0  0  0  0  0  0  0  0  0  0  0  0
   41.2753  -21.6549   38.5645 C   0  0  0  0  0  0  0  0  0  0  0  0
   42.2018  -21.6712   37.4541 C   0  0  0  0  0  0  0  0  0  0  0  0
   43.3260  -22.1799   37.5260 O   0  0  0  0  0  0  0  0  0  0  0  0
   41.6700  -21.0113   36.2032 C   0  0  0  0  0  0  0  0  0  0  0  0
   40.3852  -21.7267   35.9191 C   0  0  0  0  0  0  0  0  0  0  0  0
   39.3760  -21.7060   37.0312 C   0  0  0  0  0  0  0  0  0  0  0  0
   38.6374  -23.0261   36.9075 C   0  0  0  0  0  0  0  0  0  0  0  0
   36.4678  -19.4231   37.9257 C   0  0  0  0  0  0  0  0  0  0  0  0
   36.5566  -18.0461   37.3261 C   0  0  0  0  0  0  0  0  0  0  0  0
   35.3478  -17.9723   36.4898 C   0  0  0  0  0  0  0  0  0  0  0  0
   34.7422  -19.1298   36.3197 C   0  0  0  0  0  0  0  0  0  0  0  0
   33.5246  -19.2767   35.5171 C   0  0  0  0  0  0  0  0  0  0  0  0
   32.3422  -18.6728   35.8337 C   0  0  0  0  0  0  0  0  0  0  0  0
   31.2039  -18.8390   35.0412 C   0  0  0  0  0  0  0  0  0  0  0  0
   31.2365  -19.6226   33.9068 C   0  0  0  0  0  0  0  0  0  0  0  0
   32.3863  -20.2052   33.6055 N   0  0  0  0  0  0  0  0  0  0  0  0
   33.4898  -20.0480   34.3682 C   0  0  0  0  0  0  0  0  0  0  0  0
  2  1  1  0  0  0
  2  3  1  0  0  0
  3  4  1  0  0  0
  4  5  1  0  0  0
  5  6  1  0  0  0
  6  7  1  0  0  0
  7  8  1  0  0  0
  8  9  1  0  0  0
  9 10  2  0  0  0
 10 11  1  0  0  0
 11 12  2  0  0  0
 11 13  1  0  0  0
 13 14  1  0  0  0
 14 15  1  0  0  0
 15 16  1  0  0  0
  6 17  1  0  0  0
 17 18  1  0  0  0
 18 19  1  0  0  0
 19 20  2  0  0  0
 20 21  1  0  0  0
 21 22  2  0  0  0
 22 23  1  0  0  0
 23 24  2  0  0  0
 24 25  1  0  0  0
 25 26  2  0  0  0
 17  2  1  0  0  0
 26 21  1  0  0  0
 20  2  1  0  0  0
 15  5  1  0  0  0
 15  9  1  0  0  0
M  END
> <minimizedAffinity>
-3.92282

> <CNNscore>
0.5449858308

> <CNNaffinity>
5.2465329170

> <CNN_VS>
2.8592860699

> <CNNaffinity_variance>
0.1340440959

$$$$
[H]C1=C2C([H])([H])C([H])([H])C3([H])C4([H])C([H])([H])C([H])=C(c5c([H])nc([H])c([H])c5[H])[C@@]4(C([H])([H])[H])C([H])([H])C([H])([H])C3([H])[C@@]2(C([H])([H])[H])C([H])([H])C([H])([H])C1=O


 26 30  0  0  0  0  0  0  0  0999 V2000
   32.0972  -18.3418   35.8873 C   0  0  0  0  0  0  0  0  0  0  0  0
   32.8931  -19.6378   35.6009 C   0  0  0  0  0  0  0  0  0  0  0  0
   33.7443  -19.8817   36.7937 C   0  0  0  0  0  0  0  0  0  0  0  0
   34.9327  -20.7178   36.4217 C   0  0  0  0  0  0  0  0  0  0  0  0
   35.8303  -20.0745   35.4225 C   0  0  0  0  0  0  0  0  0  0  0  0
   35.1266  -19.1823   34.4612 C   0  0  0  0  0  0  0  0  0  0  0  0
   35.3374  -17.7031   34.6626 C   0  0  0  0  0  0  0  0  0  0  0  0
   36.7470  -17.2581   34.7755 C   0  0  0  0  0  0  0  0  0  0  0  0
   37.6204  -18.3940   35.2451 C   0  0  0  0  0  0  0  0  0  0  0  0
   38.8635  -18.4125   34.8534 C   0  0  0  0  0  0  0  0  0  0  0  0
   39.7507  -19.4761   35.2695 C   0  0  0  0  0  0  0  0  0  0  0  0
   40.9678  -19.3163   35.4140 O   0  0  0  0  0  0  0  0  0  0  0  0
   39.0545  -20.7954   35.5100 C   0  0  0  0  0  0  0  0  0  0  0  0
   37.9893  -20.4796   36.5143 C   0  0  0  0  0  0  0  0  0  0  0  0
   37.0209  -19.4048   36.1109 C   0  0  0  0  0  0  0  0  0  0  0  0
   36.6389  -18.7209   37.4109 C   0  0  0  0  0  0  0  0  0  0  0  0
   33.6405  -19.4049   34.3666 C   0  0  0  0  0  0  0  0  0  0  0  0
   33.3709  -20.6345   33.5425 C   0  0  0  0  0  0  0  0  0  0  0  0
   32.1729  -21.2030   34.1810 C   0  0  0  0  0  0  0  0  0  0  0  0
   31.8780  -20.6615   35.3451 C   0  0  0  0  0  0  0  0  0  0  0  0
   30.7278  -21.0864   36.1481 C   0  0  0  0  0  0  0  0  0  0  0  0
   29.4472  -20.6917   35.8886 C   0  0  0  0  0  0  0  0  0  0  0  0
   28.3782  -21.1200   36.6794 C   0  0  0  0  0  0  0  0  0  0  0  0
   28.5816  -21.9601   37.7540 C   0  0  0  0  0  0  0  0  0  0  0  0
   29.8259  -22.3391   38.0000 N   0  0  0  0  0  0  0  0  0  0  0  0
   30.8630  -21.9280   37.2387 C   0  0  0  0  0  0  0  0  0  0  0  0
  2  1  1  0  0  0
  2  3  1  0  0  0
  3  4  1  0  0  0
  4  5  1  0  0  0
  5  6  1  0  0  0
  6  7  1  0  0  0
  7  8  1  0  0  0
  8  9  1  0  0  0
  9 10  2  0  0  0
 10 11  1  0  0  0
 11 12  2  0  0  0
 11 13  1  0  0  0
 13 14  1  0  0  0
 14 15  1  0  0  0
 15 16  1  0  0  0
  6 17  1  0  0  0
 17 18  1  0  0  0
 18 19  1  0  0  0
 19 20  2  0  0  0
 20 21  1  0  0  0
 21 22  2  0  0  0
 22 23  1  0  0  0
 23 24  2  0  0  0
 24 25  1  0  0  0
 25 26  2  0  0  0
 17  2  1  0  0  0
 26 21  1  0  0  0
 20  2  1  0  0  0
 15  5  1  0  0  0
 15  9  1  0  0  0
M  END
> <minimizedAffinity>
-5.66843

> <CNNscore>
0.5250526667

> <CNNaffinity>
5.4292254448

> <CNN_VS>
2.8506293297

> <CNNaffinity_variance>
0.1623916477

$$$$
[H]C1=C2C([H])([H])C([H])([H])C3([H])C4([H])C([H])([H])C([H])=C(c5c([H])nc([H])c([H])c5[H])[C@@]4(C([H])([H])[H])C([H])([H])C([H])([H])C3([H])[C@@]2(C([H])([H])[H])C([H])([H])C([H])([H])C1=O


 26 30  0  0  0  0  0  0  0  0999 V2000
   34.4208  -17.9078   36.6608 C   0  0  0  0  0  0  0  0  0  0  0  0
   34.8882  -19.1687   35.8950 C   0  0  0  0  0  0  0  0  0  0  0  0
   35.1702  -20.2048   36.9215 C   0  0  0  0  0  0  0  0  0  0  0  0
   36.1430  -21.2139   36.3876 C   0  0  0  0  0  0  0  0  0  0  0  0
   37.4706  -20.6391   36.0335 C   0  0  0  0  0  0  0  0  0  0  0  0
   37.4138  -19.2294   35.5596 C   0  0  0  0  0  0  0  0  0  0  0  0
   37.9291  -18.1909   36.5235 C   0  0  0  0  0  0  0  0  0  0  0  0
   39.2744  -18.4444   37.0923 C   0  0  0  0  0  0  0  0  0  0  0  0
   39.5900  -19.9186   37.0576 C   0  0  0  0  0  0  0  0  0  0  0  0
   40.8380  -20.2744   36.9356 C   0  0  0  0  0  0  0  0  0  0  0  0
   41.2041  -21.6730   36.8953 C   0  0  0  0  0  0  0  0  0  0  0  0
   42.2891  -22.0945   37.3110 O   0  0  0  0  0  0  0  0  0  0  0  0
   40.1415  -22.5673   36.3002 C   0  0  0  0  0  0  0  0  0  0  0  0
   38.9187  -22.2938   37.1207 C   0  0  0  0  0  0  0  0  0  0  0  0
   38.4783  -20.8586   37.1632 C   0  0  0  0  0  0  0  0  0  0  0  0
   37.8643  -20.6832   38.5401 C   0  0  0  0  0  0  0  0  0  0  0  0
   36.0530  -18.7710   35.1067 C   0  0  0  0  0  0  0  0  0  0  0  0
   35.7695  -19.3246   33.7367 C   0  0  0  0  0  0  0  0  0  0  0  0
   34.3185  -19.5679   33.7734 C   0  0  0  0  0  0  0  0  0  0  0  0
   33.7919  -19.4878   34.9783 C   0  0  0  0  0  0  0  0  0  0  0  0
   32.3647  -19.7012   35.2352 C   0  0  0  0  0  0  0  0  0  0  0  0
   31.3765  -19.0443   34.5606 C   0  0  0  0  0  0  0  0  0  0  0  0
   30.0270  -19.2770   34.8364 C   0  0  0  0  0  0  0  0  0  0  0  0
   29.6458  -20.1825   35.8041 C   0  0  0  0  0  0  0  0  0  0  0  0
   30.6091  -20.8161   36.4545 N   0  0  0  0  0  0  0  0  0  0  0  0
   31.9153  -20.5949   36.1918 C   0  0  0  0  0  0  0  0  0  0  0  0
  2  1  1  0  0  0
  2  3  1  0  0  0
  3  4  1  0  0  0
  4  5  1  0  0  0
  5  6  1  0  0  0
  6  7  1  0  0  0
  7  8  1  0  0  0
  8  9  1  0  0  0
  9 10  2  0  0  0
 10 11  1  0  0  0
 11 12  2  0  0  0
 11 13  1  0  0  0
 13 14  1  0  0  0
 14 15  1  0  0  0
 15 16  1  0  0  0
  6 17  1  0  0  0
 17 18  1  0  0  0
 18 19  1  0  0  0
 19 20  2  0  0  0
 20 21  1  0  0  0
 21 22  2  0  0  0
 22 23  1  0  0  0
 23 24  2  0  0  0
 24 25  1  0  0  0
 25 26  2  0  0  0
 17  2  1  0  0  0
 26 21  1  0  0  0
 20  2  1  0  0  0
 15  5  1  0  0  0
 15  9  1  0  0  0
M  END
> <minimizedAffinity>
-4.51185

> <CNNscore>
0.5148237944

> <CNNaffinity>
5.2189121246

> <CNN_VS>
2.6868200302

> <CNNaffinity_variance>
0.0781616792

$$$$
[H]C1=C2C([H])([H])C([H])([H])C3([H])C4([H])C([H])([H])C([H])=C(c5c([H])nc([H])c([H])c5[H])[C@@]4(C([H])([H])[H])C([H])([H])C([H])([H])C3([H])[C@@]2(C([H])([H])[H])C([H])([H])C([H])([H])C1=O


 26 30  0  0  0  0  0  0  0  0999 V2000
   36.3658  -19.1155   34.2557 C   0  0  0  0  0  0  0  0  0  0  0  0
   35.7187  -19.2772   35.6521 C   0  0  0  0  0  0  0  0  0  0  0  0
   35.3349  -20.7069   35.7757 C   0  0  0  0  0  0  0  0  0  0  0  0
   34.2256  -20.8628   36.7731 C   0  0  0  0  0  0  0  0  0  0  0  0
   32.9736  -20.1506   36.3948 C   0  0  0  0  0  0  0  0  0  0  0  0
   33.1978  -18.9054   35.6108 C   0  0  0  0  0  0  0  0  0  0  0  0
   32.8478  -18.9793   34.1462 C   0  0  0  0  0  0  0  0  0  0  0  0
   31.4977  -19.5020   33.8272 C   0  0  0  0  0  0  0  0  0  0  0  0
   30.9943  -20.3755   34.9485 C   0  0  0  0  0  0  0  0  0  0  0  0
   29.7079  -20.4291   35.1521 C   0  0  0  0  0  0  0  0  0  0  0  0
   29.1640  -21.2482   36.2127 C   0  0  0  0  0  0  0  0  0  0  0  0
   28.0460  -21.7715   36.1497 O   0  0  0  0  0  0  0  0  0  0  0  0
   30.0855  -21.4041   37.3999 C   0  0  0  0  0  0  0  0  0  0  0  0
   31.3560  -21.9450   36.8200 C   0  0  0  0  0  0  0  0  0  0  0  0
   31.9784  -21.1091   35.7385 C   0  0  0  0  0  0  0  0  0  0  0  0
   32.6486  -22.1092   34.8143 C   0  0  0  0  0  0  0  0  0  0  0  0
   34.5928  -18.3464   35.7011 C   0  0  0  0  0  0  0  0  0  0  0  0
   34.7638  -17.6401   37.0185 C   0  0  0  0  0  0  0  0  0  0  0  0
   36.1720  -17.9054   37.3543 C   0  0  0  0  0  0  0  0  0  0  0  0
   36.7384  -18.8257   36.6009 C   0  0  0  0  0  0  0  0  0  0  0  0
   38.1330  -19.2427   36.7731 C   0  0  0  0  0  0  0  0  0  0  0  0
   39.1898  -18.5540   36.2517 C   0  0  0  0  0  0  0  0  0  0  0  0
   40.5050  -18.9859   36.4392 C   0  0  0  0  0  0  0  0  0  0  0  0
   40.7813  -20.1283   37.1606 C   0  0  0  0  0  0  0  0  0  0  0  0
   39.7518  -20.7914   37.6635 N   0  0  0  0  0  0  0  0  0  0  0  0
   38.4784  -20.3782   37.4853 C   0  0  0  0  0  0  0  0  0  0  0  0
  2  1  1  0  0  0
  2  3  1  0  0  0
  3  4  1  0  0  0
  4  5  1  0  0  0
  5  6  1  0  0  0
  6  7  1  0  0  0
  7  8  1  0  0  0
  8  9  1  0  0  0
  9 10  2  0  0  0
 10 11  1  0  0  0
 11 12  2  0  0  0
 11 13  1  0  0  0
 13 14  1  0  0  0
 14 15  1  0  0  0
 15 16  1  0  0  0
  6 17  1  0  0  0
 17 18  1  0  0  0
 18 19  1  0  0  0
 19 20  2  0  0  0
 20 21  1  0  0  0
 21 22  2  0  0  0
 22 23  1  0  0  0
 23 24  2  0  0  0
 24 25  1  0  0  0
 25 26  2  0  0  0
 17  2  1  0  0  0
 26 21  1  0  0  0
 20  2  1  0  0  0
 15  5  1  0  0  0
 15  9  1  0  0  0
M  END
> <minimizedAffinity>
-4.47510

> <CNNscore>
0.5042216182

> <CNNaffinity>
5.2794485092

> <CNN_VS>
2.6620121002

> <CNNaffinity_variance>
0.0712743178

$$$$
[H]C1=C2C([H])([H])C([H])([H])C3([H])C4([H])C([H])([H])C([H])=C(c5c([H])nc([H])c([H])c5[H])[C@@]4(C([H])([H])[H])C([H])([H])C([H])([H])C3([H])[C@@]2(C([H])([H])[H])C([H])([H])C([H])([H])C1=O


 26 30  0  0  0  0  0  0  0  0999 V2000
   34.7967  -19.6438   34.1502 C   0  0  0  0  0  0  0  0  0  0  0  0
   33.7509  -19.4897   35.2804 C   0  0  0  0  0  0  0  0  0  0  0  0
   34.1433  -20.4425   36.3504 C   0  0  0  0  0  0  0  0  0  0  0  0
   32.9521  -20.8036   37.1871 C   0  0  0  0  0  0  0  0  0  0  0  0
   31.8702  -21.4891   36.4271 C   0  0  0  0  0  0  0  0  0  0  0  0
   31.7705  -21.0695   35.0026 C   0  0  0  0  0  0  0  0  0  0  0  0
   32.2521  -22.0738   33.9866 C   0  0  0  0  0  0  0  0  0  0  0  0
   31.6994  -23.4433   34.1156 C   0  0  0  0  0  0  0  0  0  0  0  0
   31.2493  -23.6968   35.5323 C   0  0  0  0  0  0  0  0  0  0  0  0
   30.2558  -24.5192   35.7208 C   0  0  0  0  0  0  0  0  0  0  0  0
   29.7778  -24.8023   37.0561 C   0  0  0  0  0  0  0  0  0  0  0  0
   29.2705  -25.8845   37.3715 O   0  0  0  0  0  0  0  0  0  0  0  0
   29.9553  -23.6572   38.0257 C   0  0  0  0  0  0  0  0  0  0  0  0
   31.4184  -23.3419   37.9699 C   0  0  0  0  0  0  0  0  0  0  0  0
   31.9541  -23.0058   36.6077 C   0  0  0  0  0  0  0  0  0  0  0  0
   33.3829  -23.5178   36.6170 C   0  0  0  0  0  0  0  0  0  0  0  0
   32.4456  -19.7625   34.6819 C   0  0  0  0  0  0  0  0  0  0  0  0
   31.5838  -18.6248   35.1581 C   0  0  0  0  0  0  0  0  0  0  0  0
   32.5709  -17.6182   35.5807 C   0  0  0  0  0  0  0  0  0  0  0  0
   33.8034  -18.0766   35.6601 C   0  0  0  0  0  0  0  0  0  0  0  0
   34.9355  -17.2393   36.0674 C   0  0  0  0  0  0  0  0  0  0  0  0
   36.0701  -17.7405   36.6371 C   0  0  0  0  0  0  0  0  0  0  0  0
   37.1270  -16.9071   37.0111 C   0  0  0  0  0  0  0  0  0  0  0  0
   37.0594  -15.5435   36.8167 C   0  0  0  0  0  0  0  0  0  0  0  0
   35.9563  -15.0641   36.2637 N   0  0  0  0  0  0  0  0  0  0  0  0
   34.9315  -15.8653   35.9002 C   0  0  0  0  0  0  0  0  0  0  0  0
  2  1  1  0  0  0
  2  3  1  0  0  0
  3  4  1  0  0  0
  4  5  1  0  0  0
  5  6  1  0  0  0
  6  7  1  0  0  0
  7  8  1  0  0  0
  8  9  1  0  0  0
  9 10  2  0  0  0
 10 11  1  0  0  0
 11 12  2  0  0  0
 11 13  1  0  0  0
 13 14  1  0  0  0
 14 15  1  0  0  0
 15 16  1  0  0  0
  6 17  1  0  0  0
 17 18  1  0  0  0
 18 19  1  0  0  0
 19 20  2  0  0  0
 20 21  1  0  0  0
 21 22  2  0  0  0
 22 23  1  0  0  0
 23 24  2  0  0  0
 24 25  1  0  0  0
 25 26  2  0  0  0
 17  2  1  0  0  0
 26 21  1  0  0  0
 20  2  1  0  0  0
 15  5  1  0  0  0
 15  9  1  0  0  0
M  END
> <minimizedAffinity>
-5.06170

> <CNNscore>
0.5020775199

> <CNNaffinity>
5.2110590935

> <CNN_VS>
2.6163556576

> <CNNaffinity_variance>
0.1345555335

$$$$
[H]C1=C2C([H])([H])C([H])([H])C3([H])C4([H])C([H])([H])C([H])=C(c5c([H])nc([H])c([H])c5[H])[C@@]4(C([H])([H])[H])C([H])([H])C([H])([H])C3([H])[C@@]2(C([H])([H])[H])C([H])([H])C([H])([H])C1=O


 26 30  0  0  0  0  0  0  0  0999 V2000
   32.6508  -21.1222   36.1772 C   0  0  0  0  0  0  0  0  0  0  0  0
   32.9969  -22.2919   37.1295 C   0  0  0  0  0  0  0  0  0  0  0  0
   32.9431  -21.7424   38.5086 C   0  0  0  0  0  0  0  0  0  0  0  0
   33.7920  -22.5670   39.4299 C   0  0  0  0  0  0  0  0  0  0  0  0
   35.2363  -22.5780   39.0667 C   0  0  0  0  0  0  0  0  0  0  0  0
   35.4949  -22.4589   37.6059 C   0  0  0  0  0  0  0  0  0  0  0  0
   36.0386  -21.1318   37.1410 C   0  0  0  0  0  0  0  0  0  0  0  0
   37.2229  -20.6233   37.8736 C   0  0  0  0  0  0  0  0  0  0  0  0
   37.2786  -21.2171   39.2585 C   0  0  0  0  0  0  0  0  0  0  0  0
   38.4499  -21.3884   39.8042 C   0  0  0  0  0  0  0  0  0  0  0  0
   38.5688  -21.9542   41.1299 C   0  0  0  0  0  0  0  0  0  0  0  0
   39.4923  -21.6693   41.9003 O   0  0  0  0  0  0  0  0  0  0  0  0
   37.4638  -22.9219   41.4839 C   0  0  0  0  0  0  0  0  0  0  0  0
   36.2020  -22.1416   41.2790 C   0  0  0  0  0  0  0  0  0  0  0  0
   36.0168  -21.5642   39.9050 C   0  0  0  0  0  0  0  0  0  0  0  0
   35.2506  -20.2731   40.1283 C   0  0  0  0  0  0  0  0  0  0  0  0
   34.3145  -22.7812   36.7285 C   0  0  0  0  0  0  0  0  0  0  0  0
   34.1396  -24.2737   36.6546 C   0  0  0  0  0  0  0  0  0  0  0  0
   32.6784  -24.4306   36.5735 C   0  0  0  0  0  0  0  0  0  0  0  0
   32.0057  -23.3292   36.8374 C   0  0  0  0  0  0  0  0  0  0  0  0
   30.5412  -23.2710   36.8167 C   0  0  0  0  0  0  0  0  0  0  0  0
   29.8147  -23.1102   35.6724 C   0  0  0  0  0  0  0  0  0  0  0  0
   28.4189  -23.0597   35.6964 C   0  0  0  0  0  0  0  0  0  0  0  0
   27.7245  -23.1710   36.8827 C   0  0  0  0  0  0  0  0  0  0  0  0
   28.4352  -23.3268   37.9886 N   0  0  0  0  0  0  0  0  0  0  0  0
   29.7848  -23.3763   37.9711 C   0  0  0  0  0  0  0  0  0  0  0  0
  2  1  1  0  0  0
  2  3  1  0  0  0
  3  4  1  0  0  0
  4  5  1  0  0  0
  5  6  1  0  0  0
  6  7  1  0  0  0
  7  8  1  0  0  0
  8  9  1  0  0  0
  9 10  2  0  0  0
 10 11  1  0  0  0
 11 12  2  0  0  0
 11 13  1  0  0  0
 13 14  1  0  0  0
 14 15  1  0  0  0
 15 16  1  0  0  0
  6 17  1  0  0  0
 17 18  1  0  0  0
 18 19  1  0  0  0
 19 20  2  0  0  0
 20 21  1  0  0  0
 21 22  2  0  0  0
 22 23  1  0  0  0
 23 24  2  0  0  0
 24 25  1  0  0  0
 25 26  2  0  0  0
 17  2  1  0  0  0
 26 21  1  0  0  0
 20  2  1  0  0  0
 15  5  1  0  0  0
 15  9  1  0  0  0
M  END
> <minimizedAffinity>
-3.57953

> <CNNscore>
0.4963101745

> <CNNaffinity>
4.7898135185

> <CNN_VS>
2.3772332668

> <CNNaffinity_variance>
0.1558795571

$$$$
[H]C1=C2C([H])([H])C([H])([H])C3([H])C4([H])C([H])([H])C([H])=C(c5c([H])nc([H])c([H])c5[H])[C@@]4(C([H])([H])[H])C([H])([H])C([H])([H])C3([H])[C@@]2(C([H])([H])[H])C([H])([H])C([H])([H])C1=O


 26 30  0  0  0  0  0  0  0  0999 V2000
   36.2266  -19.8786   38.3837 C   0  0  0  0  0  0  0  0  0  0  0  0
   37.2042  -20.1018   37.2050 C   0  0  0  0  0  0  0  0  0  0  0  0
   36.9902  -21.4958   36.7382 C   0  0  0  0  0  0  0  0  0  0  0  0
   38.2162  -22.0037   36.0392 C   0  0  0  0  0  0  0  0  0  0  0  0
   39.4233  -22.0610   36.9097 C   0  0  0  0  0  0  0  0  0  0  0  0
   39.4605  -21.0115   37.9644 C   0  0  0  0  0  0  0  0  0  0  0  0
   39.2013  -21.4852   39.3720 C   0  0  0  0  0  0  0  0  0  0  0  0
   40.0104  -22.6411   39.8269 C   0  0  0  0  0  0  0  0  0  0  0  0
   40.4796  -23.4514   38.6449 C   0  0  0  0  0  0  0  0  0  0  0  0
   41.6124  -24.0876   38.7501 C   0  0  0  0  0  0  0  0  0  0  0  0
   42.1160  -24.8808   37.6506 C   0  0  0  0  0  0  0  0  0  0  0  0
   42.8211  -25.8827   37.8141 O   0  0  0  0  0  0  0  0  0  0  0  0
   41.7021  -24.3729   36.2891 C   0  0  0  0  0  0  0  0  0  0  0  0
   40.2066  -24.3168   36.3486 C   0  0  0  0  0  0  0  0  0  0  0  0
   39.6363  -23.4747   37.4537 C   0  0  0  0  0  0  0  0  0  0  0  0
   38.3360  -24.1607   37.8309 C   0  0  0  0  0  0  0  0  0  0  0  0
   38.5467  -19.8400   37.7203 C   0  0  0  0  0  0  0  0  0  0  0  0
   39.1607  -18.9339   36.6879 C   0  0  0  0  0  0  0  0  0  0  0  0
   37.9886  -18.4240   35.9582 C   0  0  0  0  0  0  0  0  0  0  0  0
   36.8692  -19.0638   36.2282 C   0  0  0  0  0  0  0  0  0  0  0  0
   35.5885  -18.7175   35.6050 C   0  0  0  0  0  0  0  0  0  0  0  0
   34.9889  -19.4866   34.6500 C   0  0  0  0  0  0  0  0  0  0  0  0
   33.7669  -19.1203   34.0808 C   0  0  0  0  0  0  0  0  0  0  0  0
   33.1221  -17.9638   34.4662 C   0  0  0  0  0  0  0  0  0  0  0  0
   33.7091  -17.2226   35.3927 N   0  0  0  0  0  0  0  0  0  0  0  0
   34.8904  -17.5721   35.9464 C   0  0  0  0  0  0  0  0  0  0  0  0
  2  1  1  0  0  0
  2  3  1  0  0  0
  3  4  1  0  0  0
  4  5  1  0  0  0
  5  6  1  0  0  0
  6  7  1  0  0  0
  7  8  1  0  0  0
  8  9  1  0  0  0
  9 10  2  0  0  0
 10 11  1  0  0  0
 11 12  2  0  0  0
 11 13  1  0  0  0
 13 14  1  0  0  0
 14 15  1  0  0  0
 15 16  1  0  0  0
  6 17  1  0  0  0
 17 18  1  0  0  0
 18 19  1  0  0  0
 19 20  2  0  0  0
 20 21  1  0  0  0
 21 22  2  0  0  0
 22 23  1  0  0  0
 23 24  2  0  0  0
 24 25  1  0  0  0
 25 26  2  0  0  0
 17  2  1  0  0  0
 26 21  1  0  0  0
 20  2  1  0  0  0
 15  5  1  0  0  0
 15  9  1  0  0  0
M  END
> <minimizedAffinity>
-4.05711

> <CNNscore>
0.4847666025

> <CNNaffinity>
4.9921302795

> <CNN_VS>
2.4200179577

> <CNNaffinity_variance>
0.0772798136

$$$$
[H]C1=C2C([H])([H])C([H])([H])C3([H])C4([H])C([H])([H])C([H])=C(c5c([H])nc([H])c([H])c5[H])[C@@]4(C([H])([H])[H])C([H])([H])C([H])([H])C3([H])[C@@]2(C([H])([H])[H])C([H])([H])C([H])([H])C1=O


 26 30  0  0  0  0  0  0  0  0999 V2000
   35.7405  -20.5554   37.0384 C   0  0  0  0  0  0  0  0  0  0  0  0
   36.2677  -19.3808   36.1798 C   0  0  0  0  0  0  0  0  0  0  0  0
   36.9140  -19.9873   34.9876 C   0  0  0  0  0  0  0  0  0  0  0  0
   37.9296  -19.0458   34.4118 C   0  0  0  0  0  0  0  0  0  0  0  0
   39.0460  -18.7238   35.3435 C   0  0  0  0  0  0  0  0  0  0  0  0
   38.6564  -18.7258   36.7799 C   0  0  0  0  0  0  0  0  0  0  0  0
   39.1549  -19.8925   37.5943 C   0  0  0  0  0  0  0  0  0  0  0  0
   40.6064  -20.1780   37.4980 C   0  0  0  0  0  0  0  0  0  0  0  0
   41.1618  -19.6443   36.2016 C   0  0  0  0  0  0  0  0  0  0  0  0
   42.4071  -19.2598   36.1816 C   0  0  0  0  0  0  0  0  0  0  0  0
   42.9970  -18.7381   34.9686 C   0  0  0  0  0  0  0  0  0  0  0  0
   44.1974  -18.8599   34.7003 O   0  0  0  0  0  0  0  0  0  0  0  0
   42.0138  -18.0330   34.0635 C   0  0  0  0  0  0  0  0  0  0  0  0
   40.9386  -19.0460   33.8165 C   0  0  0  0  0  0  0  0  0  0  0  0
   40.2709  -19.5907   35.0466 C   0  0  0  0  0  0  0  0  0  0  0  0
   39.9059  -21.0196   34.6877 C   0  0  0  0  0  0  0  0  0  0  0  0
   37.1761  -18.6154   37.0316 C   0  0  0  0  0  0  0  0  0  0  0  0
   36.7408  -17.1887   36.8353 C   0  0  0  0  0  0  0  0  0  0  0  0
   35.3875  -17.3312   36.2746 C   0  0  0  0  0  0  0  0  0  0  0  0
   35.0913  -18.5572   35.8944 C   0  0  0  0  0  0  0  0  0  0  0  0
   33.7973  -18.9133   35.3052 C   0  0  0  0  0  0  0  0  0  0  0  0
   33.6728  -19.6324   34.1517 C   0  0  0  0  0  0  0  0  0  0  0  0
   32.4195  -19.9509   33.6233 C   0  0  0  0  0  0  0  0  0  0  0  0
   31.2602  -19.5474   34.2519 C   0  0  0  0  0  0  0  0  0  0  0  0
   31.3882  -18.8504   35.3700 N   0  0  0  0  0  0  0  0  0  0  0  0
   32.5974  -18.5398   35.8854 C   0  0  0  0  0  0  0  0  0  0  0  0
  2  1  1  0  0  0
  2  3  1  0  0  0
  3  4  1  0  0  0
  4  5  1  0  0  0
  5  6  1  0  0  0
  6  7  1  0  0  0
  7  8  1  0  0  0
  8  9  1  0  0  0
  9 10  2  0  0  0
 10 11  1  0  0  0
 11 12  2  0  0  0
 11 13  1  0  0  0
 13 14  1  0  0  0
 14 15  1  0  0  0
 15 16  1  0  0  0
  6 17  1  0  0  0
 17 18  1  0  0  0
 18 19  1  0  0  0
 19 20  2  0  0  0
 20 21  1  0  0  0
 21 22  2  0  0  0
 22 23  1  0  0  0
 23 24  2  0  0  0
 24 25  1  0  0  0
 25 26  2  0  0  0
 17  2  1  0  0  0
 26 21  1  0  0  0
 20  2  1  0  0  0
 15  5  1  0  0  0
 15  9  1  0  0  0
M  END
> <minimizedAffinity>
-6.56618

> <CNNscore>
0.4841948450

> <CNNaffinity>
5.4532017708

> <CNN_VS>
2.6404120922

> <CNNaffinity_variance>
0.1021861583

$$$$
[H]C1=C([H])C([H])(F)C([H])([H])C([H])=C1N([H])C(=O)C1(C(=O)N([H])c2c([H])c([H])c(Oc3c([H])c([H])nc4c([H])c(OC([H])([H])C([H])([H])C([H])([H])N5C([H])([H])C([H])([H])OC([H])([H])C5([H])[H])c(OC([H])([H])[H])c([H])c34)c(F)c2[H])C([H])([H])C1([H])[H]


 48 53  0  0  0  0  0  0  0  0999 V2000
   35.8356  -15.3779   37.0695 C   0  0  0  0  0  0  0  0  0  0  0  0
   34.5915  -15.4937   36.4653 C   0  0  0  0  0  0  0  0  0  0  0  0
   33.6978  -14.4729   36.3330 C   0  0  0  0  0  0  0  0  0  0  0  0
   34.0324  -13.2094   36.8331 C   0  0  0  0  0  0  0  0  0  0  0  0
   35.2507  -13.0513   37.4359 C   0  0  0  0  0  0  0  0  0  0  0  0
   36.1517  -14.1218   37.5575 C   0  0  0  0  0  0  0  0  0  0  0  0
   37.3476  -13.8794   38.1425 F   0  0  0  0  0  0  0  0  0  0  0  0
   33.0975  -12.1298   36.6484 N   0  0  0  0  0  0  0  0  0  0  0  0
   32.0660  -11.8741   37.5227 C   0  0  0  0  0  0  0  0  0  0  0  0
   31.9537  -12.6924   38.5236 O   0  0  0  0  0  0  0  0  0  0  0  0
   33.2581  -11.5843   35.7880 H   0  0  0  0  0  0  0  0  0  0  0  0
   31.0317  -10.8115   37.5295 C   0  0  0  0  0  0  0  0  0  0  0  0
   31.2585   -9.7053   36.5130 C   0  0  0  0  0  0  0  0  0  0  0  0
   31.6270   -9.3933   37.8908 C   0  0  0  0  0  0  0  0  0  0  0  0
   29.6641  -10.9927   38.0171 C   0  0  0  0  0  0  0  0  0  0  0  0
   28.7948  -11.2160   37.0564 O   0  0  0  0  0  0  0  0  0  0  0  0
   29.0912  -10.9840   39.2830 N   0  0  0  0  0  0  0  0  0  0  0  0
   29.6190  -10.8510   40.1612 H   0  0  0  0  0  0  0  0  0  0  0  0
   27.6548  -11.2032   39.4558 C   0  0  0  0  0  0  0  0  0  0  0  0
   26.8838  -10.1402   39.4910 C   0  0  0  0  0  0  0  0  0  0  0  0
   25.4330  -10.1381   39.6527 C   0  0  0  0  0  0  0  0  0  0  0  0
   24.8128  -11.4682   39.8351 C   0  0  0  0  0  0  0  0  0  0  0  0
   23.8486  -11.6896   38.8187 F   0  0  0  0  0  0  0  0  0  0  0  0
   25.7578  -12.5852   39.7791 C   0  0  0  0  0  0  0  0  0  0  0  0
   27.0607  -12.4921   39.6070 C   0  0  0  0  0  0  0  0  0  0  0  0
   36.6959  -16.4493   37.1687 O   0  0  0  0  0  0  0  0  0  0  0  0
   35.0729  -19.9492   38.5418 C   0  0  0  0  0  0  0  0  0  0  0  0
   35.6130  -18.7730   38.0996 C   0  0  0  0  0  0  0  0  0  0  0  0
   36.0703  -18.6970   36.8016 C   0  0  0  0  0  0  0  0  0  0  0  0
   36.6381  -17.5052   36.3015 C   0  0  0  0  0  0  0  0  0  0  0  0
   37.0929  -17.4521   35.0049 C   0  0  0  0  0  0  0  0  0  0  0  0
   37.0028  -18.5483   34.1757 C   0  0  0  0  0  0  0  0  0  0  0  0
   36.4615  -19.6799   34.6537 N   0  0  0  0  0  0  0  0  0  0  0  0
   36.0051  -19.7569   35.9346 C   0  0  0  0  0  0  0  0  0  0  0  0
   35.4568  -20.9470   36.3883 C   0  0  0  0  0  0  0  0  0  0  0  0
   34.9912  -21.0530   37.6768 C   0  0  0  0  0  0  0  0  0  0  0  0
   35.4729  -20.4661   40.8649 C   0  0  0  0  0  0  0  0  0  0  0  0
   34.5855  -20.1369   39.8209 O   0  0  0  0  0  0  0  0  0  0  0  0
   34.4456  -22.2101   38.1280 O   0  0  0  0  0  0  0  0  0  0  0  0
   35.1012  -23.4221   38.2242 C   0  0  0  0  0  0  0  0  0  0  0  0
   36.5298  -23.2720   38.7285 C   0  0  0  0  0  0  0  0  0  0  0  0
   36.6658  -24.0733   40.0302 C   0  0  0  0  0  0  0  0  0  0  0  0
   37.6076  -23.3871   40.8788 N   0  0  0  0  0  0  0  0  0  0  0  0
   38.4324  -24.3744   41.6136 C   0  0  0  0  0  0  0  0  0  0  0  0
   39.4612  -23.5224   42.3626 C   0  0  0  0  0  0  0  0  0  0  0  0
   39.0790  -22.1833   42.4418 O   0  0  0  0  0  0  0  0  0  0  0  0
   39.0813  -21.5611   41.1777 C   0  0  0  0  0  0  0  0  0  0  0  0
   38.5561  -22.5584   40.1367 C   0  0  0  0  0  0  0  0  0  0  0  0
 37 38  1  0  0  0
 38 27  1  0  0  0
 27 28  2  0  0  0
 28 29  1  0  0  0
 29 30  2  0  0  0
 30 26  1  0  0  0
 26  1  1  0  0  0
  1  2  2  0  0  0
  2  3  1  0  0  0
  3  4  2  0  0  0
  4  8  1  0  0  0
  8  9  1  0  0  0
  9 10  2  0  0  0
  9 12  1  0  0  0
 12 13  1  0  0  0
 13 14  1  0  0  0
 12 15  1  0  0  0
 15 16  2  0  0  0
 15 17  1  0  0  0
 17 19  1  0  0  0
 19 20  2  0  0  0
 20 21  1  0  0  0
 21 22  1  0  0  0
 22 23  1  0  0  0
 22 24  1  0  0  0
 24 25  2  0  0  0
  4  5  1  0  0  0
  5  6  2  0  0  0
  6  7  1  0  0  0
 30 31  1  0  0  0
 31 32  2  0  0  0
 32 33  1  0  0  0
 33 34  2  0  0  0
 34 35  1  0  0  0
 35 36  2  0  0  0
 36 39  1  0  0  0
 39 40  1  0  0  0
 40 41  1  0  0  0
 41 42  1  0  0  0
 42 43  1  0  0  0
 43 44  1  0  0  0
 44 45  1  0  0  0
 45 46  1  0  0  0
 46 47  1  0  0  0
 47 48  1  0  0  0
 36 27  1  0  0  0
 48 43  1  0  0  0
 34 29  1  0  0  0
  6  1  1  0  0  0
 14 12  1  0  0  0
 25 19  1  0  0  0
  8 11  1  0  0  0
 17 18  1  0  0  0
M  END
> <minimizedAffinity>
-7.29547

> <CNNscore>
0.3979830444

> <CNNaffinity>
7.0186853409

> <CNN_VS>
2.7933177948

> <CNNaffinity_variance>
0.0998573229

$$$$
[H]C1=C([H])C([H])(F)C([H])([H])C([H])=C1N([H])C(=O)C1(C(=O)N([H])c2c([H])c([H])c(Oc3c([H])c([H])nc4c([H])c(OC([H])([H])C([H])([H])C([H])([H])N5C([H])([H])C([H])([H])OC([H])([H])C5([H])[H])c(OC([H])([H])[H])c([H])c34)c(F)c2[H])C([H])([H])C1([H])[H]


 48 53  0  0  0  0  0  0  0  0999 V2000
   35.8374  -15.3667   36.9881 C   0  0  0  0  0  0  0  0  0  0  0  0
   34.6075  -15.4717   36.3536 C   0  0  0  0  0  0  0  0  0  0  0  0
   33.7034  -14.4572   36.2461 C   0  0  0  0  0  0  0  0  0  0  0  0
   34.0112  -13.2122   36.8063 C   0  0  0  0  0  0  0  0  0  0  0  0
   35.2148  -13.0652   37.4405 C   0  0  0  0  0  0  0  0  0  0  0  0
   36.1270  -14.1289   37.5354 C   0  0  0  0  0  0  0  0  0  0  0  0
   37.3076  -13.8971   38.1551 F   0  0  0  0  0  0  0  0  0  0  0  0
   33.0663  -12.1371   36.6481 N   0  0  0  0  0  0  0  0  0  0  0  0
   32.0272  -11.9181   37.5233 C   0  0  0  0  0  0  0  0  0  0  0  0
   31.9176  -12.7669   38.4986 O   0  0  0  0  0  0  0  0  0  0  0  0
   33.2263  -11.5646   35.8052 H   0  0  0  0  0  0  0  0  0  0  0  0
   30.9820  -10.8667   37.5553 C   0  0  0  0  0  0  0  0  0  0  0  0
   31.1890   -9.7420   36.5550 C   0  0  0  0  0  0  0  0  0  0  0  0
   31.5653   -9.4483   37.9347 C   0  0  0  0  0  0  0  0  0  0  0  0
   29.6202  -11.0702   38.0506 C   0  0  0  0  0  0  0  0  0  0  0  0
   28.7344  -11.2183   37.0906 O   0  0  0  0  0  0  0  0  0  0  0  0
   29.0668  -11.1454   39.3230 N   0  0  0  0  0  0  0  0  0  0  0  0
   29.6091  -11.0787   40.1998 H   0  0  0  0  0  0  0  0  0  0  0  0
   27.6312  -11.3641   39.5028 C   0  0  0  0  0  0  0  0  0  0  0  0
   26.8601  -10.3012   39.5356 C   0  0  0  0  0  0  0  0  0  0  0  0
   25.4099  -10.2987   39.7032 C   0  0  0  0  0  0  0  0  0  0  0  0
   24.7909  -11.6280   39.8951 C   0  0  0  0  0  0  0  0  0  0  0  0
   23.8225  -11.8549   38.8837 F   0  0  0  0  0  0  0  0  0  0  0  0
   25.7359  -12.7450   39.8409 C   0  0  0  0  0  0  0  0  0  0  0  0
   27.0381  -12.6524   39.6631 C   0  0  0  0  0  0  0  0  0  0  0  0
   36.7093  -16.4308   37.0596 O   0  0  0  0  0  0  0  0  0  0  0  0
   35.1066  -19.9009   38.5288 C   0  0  0  0  0  0  0  0  0  0  0  0
   35.6405  -18.7345   38.0544 C   0  0  0  0  0  0  0  0  0  0  0  0
   36.0588  -18.6790   36.7424 C   0  0  0  0  0  0  0  0  0  0  0  0
   36.6187  -17.4980   36.2091 C   0  0  0  0  0  0  0  0  0  0  0  0
   37.0343  -17.4654   34.8988 C   0  0  0  0  0  0  0  0  0  0  0  0
   36.9123  -18.5720   34.0877 C   0  0  0  0  0  0  0  0  0  0  0  0
   36.3786  -19.6933   34.5973 N   0  0  0  0  0  0  0  0  0  0  0  0
   35.9607  -19.7501   35.8923 C   0  0  0  0  0  0  0  0  0  0  0  0
   35.4188  -20.9302   36.3785 C   0  0  0  0  0  0  0  0  0  0  0  0
   34.9918  -21.0157   37.6818 C   0  0  0  0  0  0  0  0  0  0  0  0
   35.5162  -20.6192   40.7961 C   0  0  0  0  0  0  0  0  0  0  0  0
   34.6569  -20.0682   39.8244 O   0  0  0  0  0  0  0  0  0  0  0  0
   34.4529  -22.1630   38.1651 O   0  0  0  0  0  0  0  0  0  0  0  0
   34.3897  -23.3662   37.4897 C   0  0  0  0  0  0  0  0  0  0  0  0
   35.6196  -24.2314   37.7266 C   0  0  0  0  0  0  0  0  0  0  0  0
   35.7382  -25.2256   36.5636 C   0  0  0  0  0  0  0  0  0  0  0  0
   36.9982  -24.9907   35.9040 N   0  0  0  0  0  0  0  0  0  0  0  0
   37.7063  -23.8673   36.5610 C   0  0  0  0  0  0  0  0  0  0  0  0
   39.0647  -23.8146   35.8557 C   0  0  0  0  0  0  0  0  0  0  0  0
   39.0573  -24.5079   34.6454 O   0  0  0  0  0  0  0  0  0  0  0  0
   38.9052  -25.8956   34.8362 C   0  0  0  0  0  0  0  0  0  0  0  0
   37.9117  -26.1294   35.9819 C   0  0  0  0  0  0  0  0  0  0  0  0
 37 38  1  0  0  0
 38 27  1  0  0  0
 27 28  2  0  0  0
 28 29  1  0  0  0
 29 30  2  0  0  0
 30 26  1  0  0  0
 26  1  1  0  0  0
  1  2  2  0  0  0
  2  3  1  0  0  0
  3  4  2  0  0  0
  4  8  1  0  0  0
  8  9  1  0  0  0
  9 10  2  0  0  0
  9 12  1  0  0  0
 12 13  1  0  0  0
 13 14  1  0  0  0
 12 15  1  0  0  0
 15 16  2  0  0  0
 15 17  1  0  0  0
 17 19  1  0  0  0
 19 20  2  0  0  0
 20 21  1  0  0  0
 21 22  1  0  0  0
 22 23  1  0  0  0
 22 24  1  0  0  0
 24 25  2  0  0  0
  4  5  1  0  0  0
  5  6  2  0  0  0
  6  7  1  0  0  0
 30 31  1  0  0  0
 31 32  2  0  0  0
 32 33  1  0  0  0
 33 34  2  0  0  0
 34 35  1  0  0  0
 35 36  2  0  0  0
 36 39  1  0  0  0
 39 40  1  0  0  0
 40 41  1  0  0  0
 41 42  1  0  0  0
 42 43  1  0  0  0
 43 44  1  0  0  0
 44 45  1  0  0  0
 45 46  1  0  0  0
 46 47  1  0  0  0
 47 48  1  0  0  0
 36 27  1  0  0  0
 48 43  1  0  0  0
 34 29  1  0  0  0
  6  1  1  0  0  0
 14 12  1  0  0  0
 25 19  1  0  0  0
  8 11  1  0  0  0
 17 18  1  0  0  0
M  END
> <minimizedAffinity>
-7.50532

> <CNNscore>
0.3976797462

> <CNNaffinity>
7.0517592430

> <CNN_VS>
2.8043417931

> <CNNaffinity_variance>
0.1153093204

$$$$
[H]C1=C([H])C([H])(F)C([H])([H])C([H])=C1N([H])C(=O)C1(C(=O)N([H])c2c([H])c([H])c(Oc3c([H])c([H])nc4c([H])c(OC([H])([H])C([H])([H])C([H])([H])N5C([H])([H])C([H])([H])OC([H])([H])C5([H])[H])c(OC([H])([H])[H])c([H])c34)c(F)c2[H])C([H])([H])C1([H])[H]


 48 53  0  0  0  0  0  0  0  0999 V2000
   35.8273  -15.3718   37.0383 C   0  0  0  0  0  0  0  0  0  0  0  0
   34.5797  -15.4770   36.4393 C   0  0  0  0  0  0  0  0  0  0  0  0
   33.6888  -14.4519   36.3221 C   0  0  0  0  0  0  0  0  0  0  0  0
   34.0304  -13.1947   36.8334 C   0  0  0  0  0  0  0  0  0  0  0  0
   35.2524  -13.0470   37.4314 C   0  0  0  0  0  0  0  0  0  0  0  0
   36.1502  -14.1218   37.5374 C   0  0  0  0  0  0  0  0  0  0  0  0
   37.3500  -13.8896   38.1187 F   0  0  0  0  0  0  0  0  0  0  0  0
   33.0984  -12.1101   36.6646 N   0  0  0  0  0  0  0  0  0  0  0  0
   32.0445  -11.8877   37.5211 C   0  0  0  0  0  0  0  0  0  0  0  0
   31.9084  -12.7423   38.4880 O   0  0  0  0  0  0  0  0  0  0  0  0
   33.2798  -11.5332   35.8291 H   0  0  0  0  0  0  0  0  0  0  0  0
   31.0083  -10.8272   37.5404 C   0  0  0  0  0  0  0  0  0  0  0  0
   31.2296   -9.7119   36.5326 C   0  0  0  0  0  0  0  0  0  0  0  0
   31.6021   -9.4110   37.9118 C   0  0  0  0  0  0  0  0  0  0  0  0
   29.6426  -11.0152   38.0309 C   0  0  0  0  0  0  0  0  0  0  0  0
   28.7655  -11.2004   37.0693 O   0  0  0  0  0  0  0  0  0  0  0  0
   29.0780  -11.0446   39.3003 N   0  0  0  0  0  0  0  0  0  0  0  0
   29.6125  -10.9446   40.1788 H   0  0  0  0  0  0  0  0  0  0  0  0
   27.6414  -11.2596   39.4754 C   0  0  0  0  0  0  0  0  0  0  0  0
   26.8664  -10.1993   39.4468 C   0  0  0  0  0  0  0  0  0  0  0  0
   25.4144  -10.1940   39.5986 C   0  0  0  0  0  0  0  0  0  0  0  0
   24.7978  -11.5145   39.8500 C   0  0  0  0  0  0  0  0  0  0  0  0
   23.8413  -11.7953   38.8410 F   0  0  0  0  0  0  0  0  0  0  0  0
   25.7471  -12.6291   39.8619 C   0  0  0  0  0  0  0  0  0  0  0  0
   27.0508  -12.5405   39.6935 C   0  0  0  0  0  0  0  0  0  0  0  0
   36.6842  -16.4471   37.1220 O   0  0  0  0  0  0  0  0  0  0  0  0
   35.1546  -19.9142   38.6738 C   0  0  0  0  0  0  0  0  0  0  0  0
   35.6645  -18.7485   38.1718 C   0  0  0  0  0  0  0  0  0  0  0  0
   36.0428  -18.7035   36.8473 C   0  0  0  0  0  0  0  0  0  0  0  0
   36.5769  -17.5237   36.2855 C   0  0  0  0  0  0  0  0  0  0  0  0
   36.9528  -17.5015   34.9630 C   0  0  0  0  0  0  0  0  0  0  0  0
   36.8157  -18.6175   34.1673 C   0  0  0  0  0  0  0  0  0  0  0  0
   36.3066  -19.7376   34.7040 N   0  0  0  0  0  0  0  0  0  0  0  0
   35.9281  -19.7841   36.0115 C   0  0  0  0  0  0  0  0  0  0  0  0
   35.4107  -20.9633   36.5257 C   0  0  0  0  0  0  0  0  0  0  0  0
   35.0237  -21.0386   37.8421 C   0  0  0  0  0  0  0  0  0  0  0  0
   35.6119  -20.6722   40.9189 C   0  0  0  0  0  0  0  0  0  0  0  0
   34.7453  -20.0714   39.9840 O   0  0  0  0  0  0  0  0  0  0  0  0
   34.5088  -22.1850   38.3530 O   0  0  0  0  0  0  0  0  0  0  0  0
   33.1653  -22.4965   38.4299 C   0  0  0  0  0  0  0  0  0  0  0  0
   32.5280  -22.6655   37.0578 C   0  0  0  0  0  0  0  0  0  0  0  0
   31.1958  -21.9039   37.0503 C   0  0  0  0  0  0  0  0  0  0  0  0
   31.2926  -20.8475   36.0742 N   0  0  0  0  0  0  0  0  0  0  0  0
   32.1514  -21.2825   34.9481 C   0  0  0  0  0  0  0  0  0  0  0  0
   32.0601  -20.1337   33.9394 C   0  0  0  0  0  0  0  0  0  0  0  0
   31.5745  -18.9614   34.5185 O   0  0  0  0  0  0  0  0  0  0  0  0
   30.2262  -19.0876   34.9077 C   0  0  0  0  0  0  0  0  0  0  0  0
   30.0066  -20.4966   35.4740 C   0  0  0  0  0  0  0  0  0  0  0  0
 37 38  1  0  0  0
 38 27  1  0  0  0
 27 28  2  0  0  0
 28 29  1  0  0  0
 29 30  2  0  0  0
 30 26  1  0  0  0
 26  1  1  0  0  0
  1  2  2  0  0  0
  2  3  1  0  0  0
  3  4  2  0  0  0
  4  8  1  0  0  0
  8  9  1  0  0  0
  9 10  2  0  0  0
  9 12  1  0  0  0
 12 13  1  0  0  0
 13 14  1  0  0  0
 12 15  1  0  0  0
 15 16  2  0  0  0
 15 17  1  0  0  0
 17 19  1  0  0  0
 19 20  2  0  0  0
 20 21  1  0  0  0
 21 22  1  0  0  0
 22 23  1  0  0  0
 22 24  1  0  0  0
 24 25  2  0  0  0
  4  5  1  0  0  0
  5  6  2  0  0  0
  6  7  1  0  0  0
 30 31  1  0  0  0
 31 32  2  0  0  0
 32 33  1  0  0  0
 33 34  2  0  0  0
 34 35  1  0  0  0
 35 36  2  0  0  0
 36 39  1  0  0  0
 39 40  1  0  0  0
 40 41  1  0  0  0
 41 42  1  0  0  0
 42 43  1  0  0  0
 43 44  1  0  0  0
 44 45  1  0  0  0
 45 46  1  0  0  0
 46 47  1  0  0  0
 47 48  1  0  0  0
 36 27  1  0  0  0
 48 43  1  0  0  0
 34 29  1  0  0  0
  6  1  1  0  0  0
 14 12  1  0  0  0
 25 19  1  0  0  0
  8 11  1  0  0  0
 17 18  1  0  0  0
M  END
> <minimizedAffinity>
-8.61858

> <CNNscore>
0.3452499509

> <CNNaffinity>
7.2472381592

> <CNN_VS>
2.5021085739

> <CNNaffinity_variance>
0.0810196251

$$$$
[H]C1=C([H])C([H])(F)C([H])([H])C([H])=C1N([H])C(=O)C1(C(=O)N([H])c2c([H])c([H])c(Oc3c([H])c([H])nc4c([H])c(OC([H])([H])C([H])([H])C([H])([H])N5C([H])([H])C([H])([H])OC([H])([H])C5([H])[H])c(OC([H])([H])[H])c([H])c34)c(F)c2[H])C([H])([H])C1([H])[H]


 48 53  0  0  0  0  0  0  0  0999 V2000
   35.7620  -15.7592   36.9853 C   0  0  0  0  0  0  0  0  0  0  0  0
   34.5400  -15.7998   36.3286 C   0  0  0  0  0  0  0  0  0  0  0  0
   33.6896  -14.7409   36.2104 C   0  0  0  0  0  0  0  0  0  0  0  0
   34.0492  -13.5153   36.7823 C   0  0  0  0  0  0  0  0  0  0  0  0
   35.2470  -13.4313   37.4385 C   0  0  0  0  0  0  0  0  0  0  0  0
   36.1032  -14.5397   37.5440 C   0  0  0  0  0  0  0  0  0  0  0  0
   37.2825  -14.3698   38.1857 F   0  0  0  0  0  0  0  0  0  0  0  0
   33.1620  -12.3937   36.6129 N   0  0  0  0  0  0  0  0  0  0  0  0
   32.1525  -12.0963   37.4996 C   0  0  0  0  0  0  0  0  0  0  0  0
   32.0141  -12.9140   38.4977 O   0  0  0  0  0  0  0  0  0  0  0  0
   33.3380  -11.8514   35.7534 H   0  0  0  0  0  0  0  0  0  0  0  0
   31.1674  -10.9882   37.5227 C   0  0  0  0  0  0  0  0  0  0  0  0
   31.4244   -9.8955   36.4988 C   0  0  0  0  0  0  0  0  0  0  0  0
   31.8326   -9.5976   37.8685 C   0  0  0  0  0  0  0  0  0  0  0  0
   29.8024  -11.1067   38.0364 C   0  0  0  0  0  0  0  0  0  0  0  0
   28.8973  -11.2109   37.0886 O   0  0  0  0  0  0  0  0  0  0  0  0
   29.2617  -11.1378   39.3160 N   0  0  0  0  0  0  0  0  0  0  0  0
   29.8180  -11.0953   40.1855 H   0  0  0  0  0  0  0  0  0  0  0  0
   27.8181  -11.2699   39.5153 C   0  0  0  0  0  0  0  0  0  0  0  0
   27.1214  -10.1613   39.6219 C   0  0  0  0  0  0  0  0  0  0  0  0
   25.6780  -10.0714   39.8211 C   0  0  0  0  0  0  0  0  0  0  0  0
   24.9741  -11.3651   39.9551 C   0  0  0  0  0  0  0  0  0  0  0  0
   23.9743  -11.4711   38.9545 F   0  0  0  0  0  0  0  0  0  0  0  0
   25.8402  -12.5379   39.8205 C   0  0  0  0  0  0  0  0  0  0  0  0
   27.1421  -12.5226   39.6194 C   0  0  0  0  0  0  0  0  0  0  0  0
   36.5783  -16.8658   37.0667 O   0  0  0  0  0  0  0  0  0  0  0  0
   38.1685  -20.5942   37.6493 C   0  0  0  0  0  0  0  0  0  0  0  0
   37.6368  -19.3465   37.4726 C   0  0  0  0  0  0  0  0  0  0  0  0
   37.4772  -18.8664   36.1905 C   0  0  0  0  0  0  0  0  0  0  0  0
   36.9355  -17.5836   35.9588 C   0  0  0  0  0  0  0  0  0  0  0  0
   36.7893  -17.1217   34.6720 C   0  0  0  0  0  0  0  0  0  0  0  0
   37.1626  -17.8937   33.5940 C   0  0  0  0  0  0  0  0  0  0  0  0
   37.6765  -19.1135   33.8174 N   0  0  0  0  0  0  0  0  0  0  0  0
   37.8318  -19.5923   35.0829 C   0  0  0  0  0  0  0  0  0  0  0  0
   38.3706  -20.8565   35.2679 C   0  0  0  0  0  0  0  0  0  0  0  0
   38.5408  -21.3628   36.5340 C   0  0  0  0  0  0  0  0  0  0  0  0
   39.5651  -20.9104   39.5920 C   0  0  0  0  0  0  0  0  0  0  0  0
   38.3733  -21.1729   38.8871 O   0  0  0  0  0  0  0  0  0  0  0  0
   39.0595  -22.6015   36.7256 O   0  0  0  0  0  0  0  0  0  0  0  0
   39.5595  -23.4238   35.7349 C   0  0  0  0  0  0  0  0  0  0  0  0
   41.0294  -23.1558   35.4435 C   0  0  0  0  0  0  0  0  0  0  0  0
   41.1806  -22.8951   33.9388 C   0  0  0  0  0  0  0  0  0  0  0  0
   42.0851  -23.8824   33.4047 N   0  0  0  0  0  0  0  0  0  0  0  0
   41.3415  -25.1237   33.0866 C   0  0  0  0  0  0  0  0  0  0  0  0
   42.3823  -26.0244   32.4152 C   0  0  0  0  0  0  0  0  0  0  0  0
   43.6869  -25.5970   32.6621 O   0  0  0  0  0  0  0  0  0  0  0  0
   43.9600  -24.3606   32.0441 C   0  0  0  0  0  0  0  0  0  0  0  0
   42.7149  -23.4703   32.1515 C   0  0  0  0  0  0  0  0  0  0  0  0
 37 38  1  0  0  0
 38 27  1  0  0  0
 27 28  2  0  0  0
 28 29  1  0  0  0
 29 30  2  0  0  0
 30 26  1  0  0  0
 26  1  1  0  0  0
  1  2  2  0  0  0
  2  3  1  0  0  0
  3  4  2  0  0  0
  4  8  1  0  0  0
  8  9  1  0  0  0
  9 10  2  0  0  0
  9 12  1  0  0  0
 12 13  1  0  0  0
 13 14  1  0  0  0
 12 15  1  0  0  0
 15 16  2  0  0  0
 15 17  1  0  0  0
 17 19  1  0  0  0
 19 20  2  0  0  0
 20 21  1  0  0  0
 21 22  1  0  0  0
 22 23  1  0  0  0
 22 24  1  0  0  0
 24 25  2  0  0  0
  4  5  1  0  0  0
  5  6  2  0  0  0
  6  7  1  0  0  0
 30 31  1  0  0  0
 31 32  2  0  0  0
 32 33  1  0  0  0
 33 34  2  0  0  0
 34 35  1  0  0  0
 35 36  2  0  0  0
 36 39  1  0  0  0
 39 40  1  0  0  0
 40 41  1  0  0  0
 41 42  1  0  0  0
 42 43  1  0  0  0
 43 44  1  0  0  0
 44 45  1  0  0  0
 45 46  1  0  0  0
 46 47  1  0  0  0
 47 48  1  0  0  0
 36 27  1  0  0  0
 48 43  1  0  0  0
 34 29  1  0  0  0
  6  1  1  0  0  0
 14 12  1  0  0  0
 25 19  1  0  0  0
  8 11  1  0  0  0
 17 18  1  0  0  0
M  END
> <minimizedAffinity>
-7.56578

> <CNNscore>
0.2887290716

> <CNNaffinity>
6.7264924049

> <CNN_VS>
1.9421339035

> <CNNaffinity_variance>
0.1689103693

$$$$
[H]C1=C([H])C([H])(F)C([H])([H])C([H])=C1N([H])C(=O)C1(C(=O)N([H])c2c([H])c([H])c(Oc3c([H])c([H])nc4c([H])c(OC([H])([H])C([H])([H])C([H])([H])N5C([H])([H])C([H])([H])OC([H])([H])C5([H])[H])c(OC([H])([H])[H])c([H])c34)c(F)c2[H])C([H])([H])C1([H])[H]


 48 53  0  0  0  0  0  0  0  0999 V2000
   38.8563  -21.9336   40.1857 C   0  0  0  0  0  0  0  0  0  0  0  0
   40.0223  -21.1857   40.2725 C   0  0  0  0  0  0  0  0  0  0  0  0
   40.7475  -20.7564   39.2011 C   0  0  0  0  0  0  0  0  0  0  0  0
   40.3085  -21.0785   37.9119 C   0  0  0  0  0  0  0  0  0  0  0  0
   39.1620  -21.8140   37.7811 C   0  0  0  0  0  0  0  0  0  0  0  0
   38.4351  -22.2425   38.9039 C   0  0  0  0  0  0  0  0  0  0  0  0
   37.2971  -22.9433   38.6916 F   0  0  0  0  0  0  0  0  0  0  0  0
   41.0599  -20.5821   36.7882 N   0  0  0  0  0  0  0  0  0  0  0  0
   40.7090  -19.4462   36.0952 C   0  0  0  0  0  0  0  0  0  0  0  0
   39.6251  -18.8519   36.4902 O   0  0  0  0  0  0  0  0  0  0  0  0
   41.8685  -21.1710   36.5369 H   0  0  0  0  0  0  0  0  0  0  0  0
   41.3556  -18.7617   34.9497 C   0  0  0  0  0  0  0  0  0  0  0  0
   40.4213  -18.4514   33.7924 C   0  0  0  0  0  0  0  0  0  0  0  0
   41.2871  -19.6144   33.6214 C   0  0  0  0  0  0  0  0  0  0  0  0
   42.5773  -17.9623   35.0473 C   0  0  0  0  0  0  0  0  0  0  0  0
   43.5648  -18.5924   35.6440 O   0  0  0  0  0  0  0  0  0  0  0  0
   42.9152  -16.6785   34.6368 N   0  0  0  0  0  0  0  0  0  0  0  0
   42.2795  -16.0424   34.1283 H   0  0  0  0  0  0  0  0  0  0  0  0
   44.2546  -16.1428   34.8821 C   0  0  0  0  0  0  0  0  0  0  0  0
   45.1304  -16.2431   33.9081 C   0  0  0  0  0  0  0  0  0  0  0  0
   46.5123  -15.7738   33.9457 C   0  0  0  0  0  0  0  0  0  0  0  0
   46.9449  -15.1764   35.2275 C   0  0  0  0  0  0  0  0  0  0  0  0
   47.3931  -13.8485   35.0088 F   0  0  0  0  0  0  0  0  0  0  0  0
   45.8947  -15.1113   36.2456 C   0  0  0  0  0  0  0  0  0  0  0  0
   44.6578  -15.5455   36.1140 C   0  0  0  0  0  0  0  0  0  0  0  0
   38.1669  -22.3345   41.3089 O   0  0  0  0  0  0  0  0  0  0  0  0
   34.3608  -20.8240   41.2838 C   0  0  0  0  0  0  0  0  0  0  0  0
   35.6286  -21.3373   41.2768 C   0  0  0  0  0  0  0  0  0  0  0  0
   36.5069  -20.9548   42.2676 C   0  0  0  0  0  0  0  0  0  0  0  0
   37.8263  -21.4557   42.2999 C   0  0  0  0  0  0  0  0  0  0  0  0
   38.6883  -21.0574   43.2944 C   0  0  0  0  0  0  0  0  0  0  0  0
   38.2858  -20.1724   44.2702 C   0  0  0  0  0  0  0  0  0  0  0  0
   37.0304  -19.6985   44.2375 N   0  0  0  0  0  0  0  0  0  0  0  0
   36.1588  -20.0776   43.2620 C   0  0  0  0  0  0  0  0  0  0  0  0
   34.8723  -19.5602   43.2641 C   0  0  0  0  0  0  0  0  0  0  0  0
   33.9737  -19.9237   42.2902 C   0  0  0  0  0  0  0  0  0  0  0  0
   33.7890  -21.7084   39.1123 C   0  0  0  0  0  0  0  0  0  0  0  0
   33.4008  -21.1372   40.3408 O   0  0  0  0  0  0  0  0  0  0  0  0
   32.7103  -19.4296   42.2878 O   0  0  0  0  0  0  0  0  0  0  0  0
   31.8902  -19.3188   43.3937 C   0  0  0  0  0  0  0  0  0  0  0  0
   31.0287  -18.0643   43.3556 C   0  0  0  0  0  0  0  0  0  0  0  0
   31.5791  -17.0726   44.3892 C   0  0  0  0  0  0  0  0  0  0  0  0
   30.7523  -15.8922   44.3577 N   0  0  0  0  0  0  0  0  0  0  0  0
   30.0644  -15.7967   43.0490 C   0  0  0  0  0  0  0  0  0  0  0  0
   29.1334  -14.5901   43.2002 C   0  0  0  0  0  0  0  0  0  0  0  0
   29.4914  -13.7801   44.2779 O   0  0  0  0  0  0  0  0  0  0  0  0
   29.2939  -14.4307   45.5119 C   0  0  0  0  0  0  0  0  0  0  0  0
   29.6884  -15.9057   45.3601 C   0  0  0  0  0  0  0  0  0  0  0  0
 37 38  1  0  0  0
 38 27  1  0  0  0
 27 28  2  0  0  0
 28 29  1  0  0  0
 29 30  2  0  0  0
 30 26  1  0  0  0
 26  1  1  0  0  0
  1  2  2  0  0  0
  2  3  1  0  0  0
  3  4  2  0  0  0
  4  8  1  0  0  0
  8  9  1  0  0  0
  9 10  2  0  0  0
  9 12  1  0  0  0
 12 13  1  0  0  0
 13 14  1  0  0  0
 12 15  1  0  0  0
 15 16  2  0  0  0
 15 17  1  0  0  0
 17 19  1  0  0  0
 19 20  2  0  0  0
 20 21  1  0  0  0
 21 22  1  0  0  0
 22 23  1  0  0  0
 22 24  1  0  0  0
 24 25  2  0  0  0
  4  5  1  0  0  0
  5  6  2  0  0  0
  6  7  1  0  0  0
 30 31  1  0  0  0
 31 32  2  0  0  0
 32 33  1  0  0  0
 33 34  2  0  0  0
 34 35  1  0  0  0
 35 36  2  0  0  0
 36 39  1  0  0  0
 39 40  1  0  0  0
 40 41  1  0  0  0
 41 42  1  0  0  0
 42 43  1  0  0  0
 43 44  1  0  0  0
 44 45  1  0  0  0
 45 46  1  0  0  0
 46 47  1  0  0  0
 47 48  1  0  0  0
 36 27  1  0  0  0
 48 43  1  0  0  0
 34 29  1  0  0  0
  6  1  1  0  0  0
 14 12  1  0  0  0
 25 19  1  0  0  0
  8 11  1  0  0  0
 17 18  1  0  0  0
M  END
> <minimizedAffinity>
-6.35926

> <CNNscore>
0.2807625532

> <CNNaffinity>
5.9797377586

> <CNN_VS>
1.6788864136

> <CNNaffinity_variance>
0.0222352855

$$$$
[H]C1=C([H])C([H])(F)C([H])([H])C([H])=C1N([H])C(=O)C1(C(=O)N([H])c2c([H])c([H])c(Oc3c([H])c([H])nc4c([H])c(OC([H])([H])C([H])([H])C([H])([H])N5C([H])([H])C([H])([H])OC([H])([H])C5([H])[H])c(OC([H])([H])[H])c([H])c34)c(F)c2[H])C([H])([H])C1([H])[H]


 48 53  0  0  0  0  0  0  0  0999 V2000
   36.0023  -15.7425   36.6686 C   0  0  0  0  0  0  0  0  0  0  0  0
   34.8291  -15.8829   35.9404 C   0  0  0  0  0  0  0  0  0  0  0  0
   33.8075  -14.9804   35.9380 C   0  0  0  0  0  0  0  0  0  0  0  0
   33.9233  -13.8227   36.7157 C   0  0  0  0  0  0  0  0  0  0  0  0
   35.0650  -13.6443   37.4487 C   0  0  0  0  0  0  0  0  0  0  0  0
   36.1016  -14.5917   37.4312 C   0  0  0  0  0  0  0  0  0  0  0  0
   37.2102  -14.3307   38.1622 F   0  0  0  0  0  0  0  0  0  0  0  0
   32.8559  -12.8572   36.6704 N   0  0  0  0  0  0  0  0  0  0  0  0
   32.0447  -12.5859   37.7484 C   0  0  0  0  0  0  0  0  0  0  0  0
   32.2711  -13.2831   38.8192 O   0  0  0  0  0  0  0  0  0  0  0  0
   32.7409  -12.4086   35.7488 H   0  0  0  0  0  0  0  0  0  0  0  0
   30.9298  -11.6224   37.9142 C   0  0  0  0  0  0  0  0  0  0  0  0
   30.7318  -10.6799   36.7391 C   0  0  0  0  0  0  0  0  0  0  0  0
   31.4228  -10.1215   37.8976 C   0  0  0  0  0  0  0  0  0  0  0  0
   29.7811  -11.8317   38.7962 C   0  0  0  0  0  0  0  0  0  0  0  0
   28.6323  -11.8537   38.1575 O   0  0  0  0  0  0  0  0  0  0  0  0
   29.6494  -12.0177   40.1669 N   0  0  0  0  0  0  0  0  0  0  0  0
   30.4416  -12.0574   40.8289 H   0  0  0  0  0  0  0  0  0  0  0  0
   28.3313  -12.2078   40.7729 C   0  0  0  0  0  0  0  0  0  0  0  0
   27.7451  -11.1487   41.2832 C   0  0  0  0  0  0  0  0  0  0  0  0
   26.4360  -11.1205   41.9285 C   0  0  0  0  0  0  0  0  0  0  0  0
   25.7553  -12.4286   42.0404 C   0  0  0  0  0  0  0  0  0  0  0  0
   24.4946  -12.3684   41.3930 F   0  0  0  0  0  0  0  0  0  0  0  0
   26.4915  -13.5430   41.4407 C   0  0  0  0  0  0  0  0  0  0  0  0
   27.6697  -13.4698   40.8556 C   0  0  0  0  0  0  0  0  0  0  0  0
   37.0003  -16.6911   36.6253 O   0  0  0  0  0  0  0  0  0  0  0  0
   39.8869  -19.4577   35.7410 C   0  0  0  0  0  0  0  0  0  0  0  0
   38.9321  -18.5212   36.0273 C   0  0  0  0  0  0  0  0  0  0  0  0
   37.8050  -18.9096   36.7189 C   0  0  0  0  0  0  0  0  0  0  0  0
   36.7914  -17.9792   37.0345 C   0  0  0  0  0  0  0  0  0  0  0  0
   35.6724  -18.3886   37.7208 C   0  0  0  0  0  0  0  0  0  0  0  0
   35.5201  -19.7005   38.1120 C   0  0  0  0  0  0  0  0  0  0  0  0
   36.4860  -20.5828   37.8113 N   0  0  0  0  0  0  0  0  0  0  0  0
   37.6028  -20.2012   37.1316 C   0  0  0  0  0  0  0  0  0  0  0  0
   38.5739  -21.1466   36.8385 C   0  0  0  0  0  0  0  0  0  0  0  0
   39.7091  -20.7893   36.1515 C   0  0  0  0  0  0  0  0  0  0  0  0
   40.9897  -18.7817   33.7036 C   0  0  0  0  0  0  0  0  0  0  0  0
   41.0529  -19.1798   35.0540 O   0  0  0  0  0  0  0  0  0  0  0  0
   40.6689  -21.7048   35.8668 O   0  0  0  0  0  0  0  0  0  0  0  0
   40.4437  -22.9802   35.3868 C   0  0  0  0  0  0  0  0  0  0  0  0
   40.5102  -23.0500   33.8675 C   0  0  0  0  0  0  0  0  0  0  0  0
   41.8762  -22.5114   33.4217 C   0  0  0  0  0  0  0  0  0  0  0  0
   42.2095  -23.1305   32.1632 N   0  0  0  0  0  0  0  0  0  0  0  0
   43.6036  -23.6304   32.2040 C   0  0  0  0  0  0  0  0  0  0  0  0
   43.7775  -24.3696   30.8741 C   0  0  0  0  0  0  0  0  0  0  0  0
   42.7968  -24.0213   29.9454 O   0  0  0  0  0  0  0  0  0  0  0  0
   41.5195  -24.4680   30.3383 C   0  0  0  0  0  0  0  0  0  0  0  0
   41.3833  -24.2970   31.8570 C   0  0  0  0  0  0  0  0  0  0  0  0
 37 38  1  0  0  0
 38 27  1  0  0  0
 27 28  2  0  0  0
 28 29  1  0  0  0
 29 30  2  0  0  0
 30 26  1  0  0  0
 26  1  1  0  0  0
  1  2  2  0  0  0
  2  3  1  0  0  0
  3  4  2  0  0  0
  4  8  1  0  0  0
  8  9  1  0  0  0
  9 10  2  0  0  0
  9 12  1  0  0  0
 12 13  1  0  0  0
 13 14  1  0  0  0
 12 15  1  0  0  0
 15 16  2  0  0  0
 15 17  1  0  0  0
 17 19  1  0  0  0
 19 20  2  0  0  0
 20 21  1  0  0  0
 21 22  1  0  0  0
 22 23  1  0  0  0
 22 24  1  0  0  0
 24 25  2  0  0  0
  4  5  1  0  0  0
  5  6  2  0  0  0
  6  7  1  0  0  0
 30 31  1  0  0  0
 31 32  2  0  0  0
 32 33  1  0  0  0
 33 34  2  0  0  0
 34 35  1  0  0  0
 35 36  2  0  0  0
 36 39  1  0  0  0
 39 40  1  0  0  0
 40 41  1  0  0  0
 41 42  1  0  0  0
 42 43  1  0  0  0
 43 44  1  0  0  0
 44 45  1  0  0  0
 45 46  1  0  0  0
 46 47  1  0  0  0
 47 48  1  0  0  0
 36 27  1  0  0  0
 48 43  1  0  0  0
 34 29  1  0  0  0
  6  1  1  0  0  0
 14 12  1  0  0  0
 25 19  1  0  0  0
  8 11  1  0  0  0
 17 18  1  0  0  0
M  END
> <minimizedAffinity>
-7.65191

> <CNNscore>
0.2655547261

> <CNNaffinity>
6.7050123215

> <CNN_VS>
1.7805477381

> <CNNaffinity_variance>
0.1662285328

$$$$
[H]C1=C([H])C([H])(F)C([H])([H])C([H])=C1N([H])C(=O)C1(C(=O)N([H])c2c([H])c([H])c(Oc3c([H])c([H])nc4c([H])c(OC([H])([H])C([H])([H])C([H])([H])N5C([H])([H])C([H])([H])OC([H])([H])C5([H])[H])c(OC([H])([H])[H])c([H])c34)c(F)c2[H])C([H])([H])C1([H])[H]


 48 53  0  0  0  0  0  0  0  0999 V2000
   35.7584  -15.8369   36.9686 C   0  0  0  0  0  0  0  0  0  0  0  0
   34.5538  -15.8691   36.2802 C   0  0  0  0  0  0  0  0  0  0  0  0
   33.7044  -14.8100   36.1572 C   0  0  0  0  0  0  0  0  0  0  0  0
   34.0464  -13.5931   36.7578 C   0  0  0  0  0  0  0  0  0  0  0  0
   35.2268  -13.5176   37.4458 C   0  0  0  0  0  0  0  0  0  0  0  0
   36.0825  -14.6259   37.5555 C   0  0  0  0  0  0  0  0  0  0  0  0
   37.2446  -14.4643   38.2299 F   0  0  0  0  0  0  0  0  0  0  0  0
   33.1614  -12.4706   36.5837 N   0  0  0  0  0  0  0  0  0  0  0  0
   32.1901  -12.1334   37.4983 C   0  0  0  0  0  0  0  0  0  0  0  0
   32.0853  -12.9142   38.5295 O   0  0  0  0  0  0  0  0  0  0  0  0
   33.3071  -11.9605   35.6992 H   0  0  0  0  0  0  0  0  0  0  0  0
   31.2147  -11.0167   37.5208 C   0  0  0  0  0  0  0  0  0  0  0  0
   31.5066   -9.9053   36.5269 C   0  0  0  0  0  0  0  0  0  0  0  0
   31.8836   -9.6400   37.9121 C   0  0  0  0  0  0  0  0  0  0  0  0
   29.8364  -11.1329   37.9984 C   0  0  0  0  0  0  0  0  0  0  0  0
   28.9492  -11.1455   37.0284 O   0  0  0  0  0  0  0  0  0  0  0  0
   29.2680  -11.2383   39.2620 N   0  0  0  0  0  0  0  0  0  0  0  0
   29.8067  -11.2722   40.1429 H   0  0  0  0  0  0  0  0  0  0  0  0
   27.8176  -11.3440   39.4235 C   0  0  0  0  0  0  0  0  0  0  0  0
   27.1339  -10.2232   39.4680 C   0  0  0  0  0  0  0  0  0  0  0  0
   25.6867  -10.1070   39.6212 C   0  0  0  0  0  0  0  0  0  0  0  0
   24.9610  -11.3853   39.7828 C   0  0  0  0  0  0  0  0  0  0  0  0
   23.9891  -11.5161   38.7579 F   0  0  0  0  0  0  0  0  0  0  0  0
   25.8139  -12.5736   39.7177 C   0  0  0  0  0  0  0  0  0  0  0  0
   27.1212  -12.5829   39.5545 C   0  0  0  0  0  0  0  0  0  0  0  0
   36.5749  -16.9432   37.0533 O   0  0  0  0  0  0  0  0  0  0  0  0
   38.3572  -20.5833   37.6383 C   0  0  0  0  0  0  0  0  0  0  0  0
   37.7614  -19.3649   37.4608 C   0  0  0  0  0  0  0  0  0  0  0  0
   37.5564  -18.9050   36.1778 C   0  0  0  0  0  0  0  0  0  0  0  0
   36.9480  -17.6525   35.9451 C   0  0  0  0  0  0  0  0  0  0  0  0
   36.7572  -17.2100   34.6573 C   0  0  0  0  0  0  0  0  0  0  0  0
   37.1497  -17.9725   33.5793 C   0  0  0  0  0  0  0  0  0  0  0  0
   37.7270  -19.1634   33.8036 N   0  0  0  0  0  0  0  0  0  0  0  0
   37.9274  -19.6225   35.0701 C   0  0  0  0  0  0  0  0  0  0  0  0
   38.5311  -20.8568   35.2560 C   0  0  0  0  0  0  0  0  0  0  0  0
   38.7478  -21.3427   36.5230 C   0  0  0  0  0  0  0  0  0  0  0  0
   37.5368  -21.5254   39.7032 C   0  0  0  0  0  0  0  0  0  0  0  0
   38.6115  -21.1400   38.8770 O   0  0  0  0  0  0  0  0  0  0  0  0
   39.3303  -22.5526   36.7156 O   0  0  0  0  0  0  0  0  0  0  0  0
   40.6550  -22.7615   37.0464 C   0  0  0  0  0  0  0  0  0  0  0  0
   41.6108  -22.1851   36.0112 C   0  0  0  0  0  0  0  0  0  0  0  0
   42.5072  -21.1528   36.7080 C   0  0  0  0  0  0  0  0  0  0  0  0
   42.5727  -19.9821   35.8694 N   0  0  0  0  0  0  0  0  0  0  0  0
   41.9853  -20.2821   34.5428 C   0  0  0  0  0  0  0  0  0  0  0  0
   41.9991  -18.9363   33.8119 C   0  0  0  0  0  0  0  0  0  0  0  0
   42.8604  -18.0188   34.4134 O   0  0  0  0  0  0  0  0  0  0  0  0
   42.4052  -17.6295   35.6888 C   0  0  0  0  0  0  0  0  0  0  0  0
   41.8046  -18.8536   36.3924 C   0  0  0  0  0  0  0  0  0  0  0  0
 37 38  1  0  0  0
 38 27  1  0  0  0
 27 28  2  0  0  0
 28 29  1  0  0  0
 29 30  2  0  0  0
 30 26  1  0  0  0
 26  1  1  0  0  0
  1  2  2  0  0  0
  2  3  1  0  0  0
  3  4  2  0  0  0
  4  8  1  0  0  0
  8  9  1  0  0  0
  9 10  2  0  0  0
  9 12  1  0  0  0
 12 13  1  0  0  0
 13 14  1  0  0  0
 12 15  1  0  0  0
 15 16  2  0  0  0
 15 17  1  0  0  0
 17 19  1  0  0  0
 19 20  2  0  0  0
 20 21  1  0  0  0
 21 22  1  0  0  0
 22 23  1  0  0  0
 22 24  1  0  0  0
 24 25  2  0  0  0
  4  5  1  0  0  0
  5  6  2  0  0  0
  6  7  1  0  0  0
 30 31  1  0  0  0
 31 32  2  0  0  0
 32 33  1  0  0  0
 33 34  2  0  0  0
 34 35  1  0  0  0
 35 36  2  0  0  0
 36 39  1  0  0  0
 39 40  1  0  0  0
 40 41  1  0  0  0
 41 42  1  0  0  0
 42 43  1  0  0  0
 43 44  1  0  0  0
 44 45  1  0  0  0
 45 46  1  0  0  0
 46 47  1  0  0  0
 47 48  1  0  0  0
 36 27  1  0  0  0
 48 43  1  0  0  0
 34 29  1  0  0  0
  6  1  1  0  0  0
 14 12  1  0  0  0
 25 19  1  0  0  0
  8 11  1  0  0  0
 17 18  1  0  0  0
M  END
> <minimizedAffinity>
-8.12353

> <CNNscore>
0.2626648545

> <CNNaffinity>
6.8947730064

> <CNN_VS>
1.8110145330

> <CNNaffinity_variance>
0.2253932506

$$$$
[H]C1=C([H])C([H])(F)C([H])([H])C([H])=C1N([H])C(=O)C1(C(=O)N([H])c2c([H])c([H])c(Oc3c([H])c([H])nc4c([H])c(OC([H])([H])C([H])([H])C([H])([H])N5C([H])([H])C([H])([H])OC([H])([H])C5([H])[H])c(OC([H])([H])[H])c([H])c34)c(F)c2[H])C([H])([H])C1([H])[H]


 48 53  0  0  0  0  0  0  0  0999 V2000
   35.5481  -17.0741   36.1285 C   0  0  0  0  0  0  0  0  0  0  0  0
   34.2982  -16.7526   35.6180 C   0  0  0  0  0  0  0  0  0  0  0  0
   33.7336  -15.5133   35.6777 C   0  0  0  0  0  0  0  0  0  0  0  0
   34.4420  -14.4741   36.2916 C   0  0  0  0  0  0  0  0  0  0  0  0
   35.6795  -14.7479   36.8076 C   0  0  0  0  0  0  0  0  0  0  0  0
   36.2360  -16.0351   36.7310 C   0  0  0  0  0  0  0  0  0  0  0  0
   37.4758  -16.2201   37.2410 F   0  0  0  0  0  0  0  0  0  0  0  0
   33.8527  -13.1603   36.3095 N   0  0  0  0  0  0  0  0  0  0  0  0
   33.0736  -12.7027   37.3474 C   0  0  0  0  0  0  0  0  0  0  0  0
   32.8625  -13.5437   38.3128 O   0  0  0  0  0  0  0  0  0  0  0  0
   34.0481  -12.6062   35.4617 H   0  0  0  0  0  0  0  0  0  0  0  0
   32.4117  -11.3944   37.5690 C   0  0  0  0  0  0  0  0  0  0  0  0
   33.1055  -10.2169   36.9051 C   0  0  0  0  0  0  0  0  0  0  0  0
   33.3392  -10.3723   38.3379 C   0  0  0  0  0  0  0  0  0  0  0  0
   30.9949  -11.2299   37.8956 C   0  0  0  0  0  0  0  0  0  0  0  0
   30.3109  -10.6218   36.9518 O   0  0  0  0  0  0  0  0  0  0  0  0
   30.2186  -11.5864   38.9915 N   0  0  0  0  0  0  0  0  0  0  0  0
   30.5743  -12.0945   39.8178 H   0  0  0  0  0  0  0  0  0  0  0  0
   28.7884  -11.2793   39.0270 C   0  0  0  0  0  0  0  0  0  0  0  0
   27.9623  -12.2111   38.6086 C   0  0  0  0  0  0  0  0  0  0  0  0
   26.5067  -12.1092   38.5633 C   0  0  0  0  0  0  0  0  0  0  0  0
   25.9478  -10.8093   38.9933 C   0  0  0  0  0  0  0  0  0  0  0  0
   25.0523  -11.0083   40.0752 F   0  0  0  0  0  0  0  0  0  0  0  0
   26.9512   -9.8416   39.4408 C   0  0  0  0  0  0  0  0  0  0  0  0
   28.2549  -10.0305   39.4664 C   0  0  0  0  0  0  0  0  0  0  0  0
   36.0645  -18.3476   36.0329 O   0  0  0  0  0  0  0  0  0  0  0  0
   39.6821  -19.9719   37.0546 C   0  0  0  0  0  0  0  0  0  0  0  0
   38.4815  -19.4214   36.6991 C   0  0  0  0  0  0  0  0  0  0  0  0
   37.3603  -19.7372   37.4358 C   0  0  0  0  0  0  0  0  0  0  0  0
   36.0993  -19.1958   37.1051 C   0  0  0  0  0  0  0  0  0  0  0  0
   34.9922  -19.5278   37.8501 C   0  0  0  0  0  0  0  0  0  0  0  0
   35.0903  -20.3848   38.9240 C   0  0  0  0  0  0  0  0  0  0  0  0
   36.2909  -20.8972   39.2367 N   0  0  0  0  0  0  0  0  0  0  0  0
   37.4014  -20.5840   38.5132 C   0  0  0  0  0  0  0  0  0  0  0  0
   38.6211  -21.1394   38.8690 C   0  0  0  0  0  0  0  0  0  0  0  0
   39.7567  -20.8425   38.1545 C   0  0  0  0  0  0  0  0  0  0  0  0
   41.4949  -18.4713   36.5198 C   0  0  0  0  0  0  0  0  0  0  0  0
   40.8667  -19.7259   36.3876 O   0  0  0  0  0  0  0  0  0  0  0  0
   40.9562  -21.3742   38.4991 O   0  0  0  0  0  0  0  0  0  0  0  0
   41.3174  -22.6996   38.3549 C   0  0  0  0  0  0  0  0  0  0  0  0
   40.8899  -23.2760   37.0124 C   0  0  0  0  0  0  0  0  0  0  0  0
   40.2496  -24.6483   37.2614 C   0  0  0  0  0  0  0  0  0  0  0  0
   38.8281  -24.5193   37.0596 N   0  0  0  0  0  0  0  0  0  0  0  0
   38.3997  -25.3893   35.9396 C   0  0  0  0  0  0  0  0  0  0  0  0
   36.8740  -25.2569   35.9225 C   0  0  0  0  0  0  0  0  0  0  0  0
   36.4338  -24.1407   36.6338 O   0  0  0  0  0  0  0  0  0  0  0  0
   36.6789  -24.2685   38.0154 C   0  0  0  0  0  0  0  0  0  0  0  0
   38.0400  -24.9486   38.2135 C   0  0  0  0  0  0  0  0  0  0  0  0
 37 38  1  0  0  0
 38 27  1  0  0  0
 27 28  2  0  0  0
 28 29  1  0  0  0
 29 30  2  0  0  0
 30 26  1  0  0  0
 26  1  1  0  0  0
  1  2  2  0  0  0
  2  3  1  0  0  0
  3  4  2  0  0  0
  4  8  1  0  0  0
  8  9  1  0  0  0
  9 10  2  0  0  0
  9 12  1  0  0  0
 12 13  1  0  0  0
 13 14  1  0  0  0
 12 15  1  0  0  0
 15 16  2  0  0  0
 15 17  1  0  0  0
 17 19  1  0  0  0
 19 20  2  0  0  0
 20 21  1  0  0  0
 21 22  1  0  0  0
 22 23  1  0  0  0
 22 24  1  0  0  0
 24 25  2  0  0  0
  4  5  1  0  0  0
  5  6  2  0  0  0
  6  7  1  0  0  0
 30 31  1  0  0  0
 31 32  2  0  0  0
 32 33  1  0  0  0
 33 34  2  0  0  0
 34 35  1  0  0  0
 35 36  2  0  0  0
 36 39  1  0  0  0
 39 40  1  0  0  0
 40 41  1  0  0  0
 41 42  1  0  0  0
 42 43  1  0  0  0
 43 44  1  0  0  0
 44 45  1  0  0  0
 45 46  1  0  0  0
 46 47  1  0  0  0
 47 48  1  0  0  0
 36 27  1  0  0  0
 48 43  1  0  0  0
 34 29  1  0  0  0
  6  1  1  0  0  0
 14 12  1  0  0  0
 25 19  1  0  0  0
  8 11  1  0  0  0
 17 18  1  0  0  0
M  END
> <minimizedAffinity>
-6.90501

> <CNNscore>
0.2564407587

> <CNNaffinity>
6.7719664574

> <CNN_VS>
1.7366082668

> <CNNaffinity_variance>
0.0578219779

$$$$
[H]C1=C([H])C([H])(F)C([H])([H])C([H])=C1N([H])C(=O)C1(C(=O)N([H])c2c([H])c([H])c(Oc3c([H])c([H])nc4c([H])c(OC([H])([H])C([H])([H])C([H])([H])N5C([H])([H])C([H])([H])OC([H])([H])C5([H])[H])c(OC([H])([H])[H])c([H])c34)c(F)c2[H])C([H])([H])C1([H])[H]


 48 53  0  0  0  0  0  0  0  0999 V2000
   38.0536  -19.0838   35.4029 C   0  0  0  0  0  0  0  0  0  0  0  0
   38.3650  -19.2549   34.0613 C   0  0  0  0  0  0  0  0  0  0  0  0
   38.9927  -20.3499   33.5463 C   0  0  0  0  0  0  0  0  0  0  0  0
   39.3602  -21.3891   34.4087 C   0  0  0  0  0  0  0  0  0  0  0  0
   39.0706  -21.2613   35.7400 C   0  0  0  0  0  0  0  0  0  0  0  0
   38.4225  -20.1209   36.2420 C   0  0  0  0  0  0  0  0  0  0  0  0
   38.1470  -20.0807   37.5664 F   0  0  0  0  0  0  0  0  0  0  0  0
   39.9835  -22.5587   33.8456 N   0  0  0  0  0  0  0  0  0  0  0  0
   41.3159  -22.6070   33.5048 C   0  0  0  0  0  0  0  0  0  0  0  0
   41.9887  -21.5124   33.6866 O   0  0  0  0  0  0  0  0  0  0  0  0
   39.3330  -23.3455   33.6984 H   0  0  0  0  0  0  0  0  0  0  0  0
   42.1434  -23.7058   32.9508 C   0  0  0  0  0  0  0  0  0  0  0  0
   42.5414  -23.5227   31.4960 C   0  0  0  0  0  0  0  0  0  0  0  0
   41.4368  -24.4439   31.7459 C   0  0  0  0  0  0  0  0  0  0  0  0
   42.9728  -24.6024   33.7565 C   0  0  0  0  0  0  0  0  0  0  0  0
   43.2664  -24.1147   34.9416 O   0  0  0  0  0  0  0  0  0  0  0  0
   43.5113  -25.8641   33.5348 N   0  0  0  0  0  0  0  0  0  0  0  0
   43.3668  -26.4168   32.6740 H   0  0  0  0  0  0  0  0  0  0  0  0
   44.3199  -26.5234   34.5606 C   0  0  0  0  0  0  0  0  0  0  0  0
   43.7097  -27.3763   35.3517 C   0  0  0  0  0  0  0  0  0  0  0  0
   44.3291  -28.1381   36.4321 C   0  0  0  0  0  0  0  0  0  0  0  0
   45.7654  -27.8673   36.6571 C   0  0  0  0  0  0  0  0  0  0  0  0
   46.5049  -29.0708   36.5270 F   0  0  0  0  0  0  0  0  0  0  0  0
   46.3494  -26.9033   35.7226 C   0  0  0  0  0  0  0  0  0  0  0  0
   45.7117  -26.2748   34.7561 C   0  0  0  0  0  0  0  0  0  0  0  0
   37.4140  -17.9526   35.8601 O   0  0  0  0  0  0  0  0  0  0  0  0
   35.8936  -14.2696   36.8052 C   0  0  0  0  0  0  0  0  0  0  0  0
   36.4176  -15.4946   36.4957 C   0  0  0  0  0  0  0  0  0  0  0  0
   35.5820  -16.4677   35.9915 C   0  0  0  0  0  0  0  0  0  0  0  0
   36.0767  -17.7477   35.6603 C   0  0  0  0  0  0  0  0  0  0  0  0
   35.2250  -18.7060   35.1632 C   0  0  0  0  0  0  0  0  0  0  0  0
   33.8864  -18.4389   34.9783 C   0  0  0  0  0  0  0  0  0  0  0  0
   33.4191  -17.2206   35.2932 N   0  0  0  0  0  0  0  0  0  0  0  0
   34.2430  -16.2555   35.7879 C   0  0  0  0  0  0  0  0  0  0  0  0
   33.7171  -15.0120   36.1036 C   0  0  0  0  0  0  0  0  0  0  0  0
   34.5254  -14.0212   36.6069 C   0  0  0  0  0  0  0  0  0  0  0  0
   37.9928  -13.4262   37.6458 C   0  0  0  0  0  0  0  0  0  0  0  0
   36.6376  -13.2236   37.3163 O   0  0  0  0  0  0  0  0  0  0  0  0
   34.0224  -12.7986   36.9114 O   0  0  0  0  0  0  0  0  0  0  0  0
   32.7043  -12.5285   37.2232 C   0  0  0  0  0  0  0  0  0  0  0  0
   32.3314  -12.9920   38.6245 C   0  0  0  0  0  0  0  0  0  0  0  0
   30.8939  -12.5388   38.9132 C   0  0  0  0  0  0  0  0  0  0  0  0
   30.3143  -13.4676   39.8509 N   0  0  0  0  0  0  0  0  0  0  0  0
   30.4110  -12.9198   41.2241 C   0  0  0  0  0  0  0  0  0  0  0  0
   29.6508  -13.9310   42.0872 C   0  0  0  0  0  0  0  0  0  0  0  0
   29.4755  -15.1524   41.4368 O   0  0  0  0  0  0  0  0  0  0  0  0
   28.6116  -15.0383   40.3296 C   0  0  0  0  0  0  0  0  0  0  0  0
   28.8901  -13.7052   39.6227 C   0  0  0  0  0  0  0  0  0  0  0  0
 37 38  1  0  0  0
 38 27  1  0  0  0
 27 28  2  0  0  0
 28 29  1  0  0  0
 29 30  2  0  0  0
 30 26  1  0  0  0
 26  1  1  0  0  0
  1  2  2  0  0  0
  2  3  1  0  0  0
  3  4  2  0  0  0
  4  8  1  0  0  0
  8  9  1  0  0  0
  9 10  2  0  0  0
  9 12  1  0  0  0
 12 13  1  0  0  0
 13 14  1  0  0  0
 12 15  1  0  0  0
 15 16  2  0  0  0
 15 17  1  0  0  0
 17 19  1  0  0  0
 19 20  2  0  0  0
 20 21  1  0  0  0
 21 22  1  0  0  0
 22 23  1  0  0  0
 22 24  1  0  0  0
 24 25  2  0  0  0
  4  5  1  0  0  0
  5  6  2  0  0  0
  6  7  1  0  0  0
 30 31  1  0  0  0
 31 32  2  0  0  0
 32 33  1  0  0  0
 33 34  2  0  0  0
 34 35  1  0  0  0
 35 36  2  0  0  0
 36 39  1  0  0  0
 39 40  1  0  0  0
 40 41  1  0  0  0
 41 42  1  0  0  0
 42 43  1  0  0  0
 43 44  1  0  0  0
 44 45  1  0  0  0
 45 46  1  0  0  0
 46 47  1  0  0  0
 47 48  1  0  0  0
 36 27  1  0  0  0
 48 43  1  0  0  0
 34 29  1  0  0  0
  6  1  1  0  0  0
 14 12  1  0  0  0
 25 19  1  0  0  0
  8 11  1  0  0  0
 17 18  1  0  0  0
M  END
> <minimizedAffinity>
-6.93511

> <CNNscore>
0.2531589270

> <CNNaffinity>
6.1753873825

> <CNN_VS>
1.5633544922

> <CNNaffinity_variance>
0.0254823323

$$$$
[H]OC([H])([H])C([H])(O[H])c1[se]c(-c2c([H])c([H])c(OC([H])(C([H])([H])[H])C([H])([H])[H])c(C#N)c2[H])nc1C([H])([H])[H]


 24 25  0  0  0  0  0  0  0  0999 V2000
   35.9814  -15.2927   35.9559 C   0  0  0  0  0  0  0  0  0  0  0  0
   36.2916  -16.5939   35.6229 C   0  0  0  0  0  0  0  0  0  0  0  0
   35.3172  -17.5420   35.4540 C   0  0  0  0  0  0  0  0  0  0  0  0
   33.9806  -17.2251   35.6125 C   0  0  0  0  0  0  0  0  0  0  0  0
   33.6610  -15.9220   35.9466 C   0  0  0  0  0  0  0  0  0  0  0  0
   34.6432  -14.9778   36.1141 C   0  0  0  0  0  0  0  0  0  0  0  0
   33.0090  -18.2580   35.4233 C   0  0  0  0  0  0  0  0  0  0  0  0
   31.8851  -18.6326   35.1191 N   0  0  0  0  0  0  0  0  0  0  0  0
   31.2217  -19.6929   35.0297 C   0  0  0  0  0  0  0  0  0  0  0  0
   29.7521  -19.6879   34.5804 C   0  0  0  0  0  0  0  0  0  0  0  0
   31.7441  -20.9230   35.3217 C   0  0  0  0  0  0  0  0  0  0  0  0
   33.6867  -20.3352   35.8536 Se  0  0  0  0  0  0  0  0  0  0  0  0
   31.2775  -22.3065   35.3287 C   0  0  0  0  0  0  0  0  0  0  0  0
   32.0207  -23.1659   34.5513 O   0  0  0  0  0  0  0  0  0  0  0  0
   31.6692  -24.0870   34.5954 H   0  0  0  0  0  0  0  0  0  0  0  0
   31.1889  -22.7707   36.7757 C   0  0  0  0  0  0  0  0  0  0  0  0
   30.4229  -21.8954   37.5333 O   0  0  0  0  0  0  0  0  0  0  0  0
   30.3773  -22.2548   38.4500 H   0  0  0  0  0  0  0  0  0  0  0  0
   34.3013  -13.6104   36.4655 C   0  0  0  0  0  0  0  0  0  0  0  0
   34.0340  -12.5171   36.7334 N   0  0  0  0  0  0  0  0  0  0  0  0
   36.9121  -14.3057   36.1368 O   0  0  0  0  0  0  0  0  0  0  0  0
   38.2698  -12.7220   37.2657 C   0  0  0  0  0  0  0  0  0  0  0  0
   37.8563  -14.1745   37.1423 C   0  0  0  0  0  0  0  0  0  0  0  0
   37.1707  -14.5547   38.4589 C   0  0  0  0  0  0  0  0  0  0  0  0
 22 23  1  0  0  0
 23 24  1  0  0  0
 23 21  1  0  0  0
 21  1  1  0  0  0
  1  2  2  0  0  0
  2  3  1  0  0  0
  3  4  2  0  0  0
  4  5  1  0  0  0
  5  6  2  0  0  0
  6 19  1  0  0  0
 19 20  3  0  0  0
  4  7  1  0  0  0
  7  8  2  0  0  0
  8  9  1  0  0  0
  9 10  1  0  0  0
  9 11  2  0  0  0
 11 12  1  0  0  0
 11 13  1  0  0  0
 13 14  1  0  0  0
 13 16  1  0  0  0
 16 17  1  0  0  0
  6  1  1  0  0  0
 12  7  1  0  0  0
 14 15  1  0  0  0
 17 18  1  0  0  0
M  END
> <minimizedAffinity>
-5.26338

> <CNNscore>
0.6740296483

> <CNNaffinity>
4.7054605484

> <CNN_VS>
3.1716198921

> <CNNaffinity_variance>
0.1749911606

$$$$
[H]OC([H])([H])C([H])(O[H])c1[se]c(-c2c([H])c([H])c(OC([H])(C([H])([H])[H])C([H])([H])[H])c(C#N)c2[H])nc1C([H])([H])[H]


 24 25  0  0  0  0  0  0  0  0999 V2000
   35.1454  -13.2128   36.6377 C   0  0  0  0  0  0  0  0  0  0  0  0
   33.9310  -13.7449   36.2604 C   0  0  0  0  0  0  0  0  0  0  0  0
   33.7619  -15.0936   36.0893 C   0  0  0  0  0  0  0  0  0  0  0  0
   34.8096  -15.9735   36.2902 C   0  0  0  0  0  0  0  0  0  0  0  0
   36.0311  -15.4477   36.6687 C   0  0  0  0  0  0  0  0  0  0  0  0
   36.1924  -14.0951   36.8381 C   0  0  0  0  0  0  0  0  0  0  0  0
   34.5718  -17.3708   36.0957 C   0  0  0  0  0  0  0  0  0  0  0  0
   34.0520  -18.2976   35.4900 N   0  0  0  0  0  0  0  0  0  0  0  0
   33.9939  -19.5497   35.5243 C   0  0  0  0  0  0  0  0  0  0  0  0
   33.1667  -20.3458   34.5028 C   0  0  0  0  0  0  0  0  0  0  0  0
   34.6517  -20.2986   36.4612 C   0  0  0  0  0  0  0  0  0  0  0  0
   35.5680  -18.7468   37.5357 Se  0  0  0  0  0  0  0  0  0  0  0  0
   34.7990  -21.7149   36.7842 C   0  0  0  0  0  0  0  0  0  0  0  0
   36.1011  -22.1590   36.8335 O   0  0  0  0  0  0  0  0  0  0  0  0
   36.1463  -23.1182   37.0613 H   0  0  0  0  0  0  0  0  0  0  0  0
   34.0489  -21.9871   38.0805 C   0  0  0  0  0  0  0  0  0  0  0  0
   32.9885  -21.1052   38.2368 O   0  0  0  0  0  0  0  0  0  0  0  0
   32.5245  -21.3409   39.0739 H   0  0  0  0  0  0  0  0  0  0  0  0
   37.4783  -13.5485   37.2356 C   0  0  0  0  0  0  0  0  0  0  0  0
   38.5034  -13.1070   37.5401 N   0  0  0  0  0  0  0  0  0  0  0  0
   35.3713  -11.8757   36.8231 O   0  0  0  0  0  0  0  0  0  0  0  0
   34.0152  -10.0260   37.4277 C   0  0  0  0  0  0  0  0  0  0  0  0
   34.6763  -10.7959   36.3025 C   0  0  0  0  0  0  0  0  0  0  0  0
   35.7083   -9.8574   35.6682 C   0  0  0  0  0  0  0  0  0  0  0  0
 22 23  1  0  0  0
 23 24  1  0  0  0
 23 21  1  0  0  0
 21  1  1  0  0  0
  1  2  2  0  0  0
  2  3  1  0  0  0
  3  4  2  0  0  0
  4  5  1  0  0  0
  5  6  2  0  0  0
  6 19  1  0  0  0
 19 20  3  0  0  0
  4  7  1  0  0  0
  7  8  2  0  0  0
  8  9  1  0  0  0
  9 10  1  0  0  0
  9 11  2  0  0  0
 11 12  1  0  0  0
 11 13  1  0  0  0
 13 14  1  0  0  0
 13 16  1  0  0  0
 16 17  1  0  0  0
  6  1  1  0  0  0
 12  7  1  0  0  0
 14 15  1  0  0  0
 17 18  1  0  0  0
M  END
> <minimizedAffinity>
-5.29127

> <CNNscore>
0.6545165181

> <CNNaffinity>
5.0483050346

> <CNN_VS>
3.3041989803

> <CNNaffinity_variance>
0.0316049792

$$$$
[H]OC([H])([H])C([H])(O[H])c1[se]c(-c2c([H])c([H])c(OC([H])(C([H])([H])[H])C([H])([H])[H])c(C#N)c2[H])nc1C([H])([H])[H]


 24 25  0  0  0  0  0  0  0  0999 V2000
   33.9356  -11.6278   37.2470 C   0  0  0  0  0  0  0  0  0  0  0  0
   35.2470  -11.9946   37.0324 C   0  0  0  0  0  0  0  0  0  0  0  0
   35.5836  -13.2726   36.6714 C   0  0  0  0  0  0  0  0  0  0  0  0
   34.6141  -14.2451   36.5088 C   0  0  0  0  0  0  0  0  0  0  0  0
   33.2962  -13.8852   36.7223 C   0  0  0  0  0  0  0  0  0  0  0  0
   32.9671  -12.6026   37.0838 C   0  0  0  0  0  0  0  0  0  0  0  0
   35.0272  -15.5616   36.1311 C   0  0  0  0  0  0  0  0  0  0  0  0
   34.9417  -16.5503   35.4161 N   0  0  0  0  0  0  0  0  0  0  0  0
   35.4662  -17.6813   35.2810 C   0  0  0  0  0  0  0  0  0  0  0  0
   35.0147  -18.6517   34.1783 C   0  0  0  0  0  0  0  0  0  0  0  0
   36.4678  -18.1376   36.0933 C   0  0  0  0  0  0  0  0  0  0  0  0
   36.6564  -16.4675   37.3493 Se  0  0  0  0  0  0  0  0  0  0  0  0
   37.2727  -19.3494   36.2176 C   0  0  0  0  0  0  0  0  0  0  0  0
   36.6993  -20.4765   35.6736 O   0  0  0  0  0  0  0  0  0  0  0  0
   37.2843  -21.2645   35.7777 H   0  0  0  0  0  0  0  0  0  0  0  0
   38.6503  -19.0666   35.6351 C   0  0  0  0  0  0  0  0  0  0  0  0
   38.5583  -18.2656   34.5052 O   0  0  0  0  0  0  0  0  0  0  0  0
   39.4746  -18.0933   34.1855 H   0  0  0  0  0  0  0  0  0  0  0  0
   31.5807  -12.2306   37.3070 C   0  0  0  0  0  0  0  0  0  0  0  0
   30.4743  -11.9350   37.4715 N   0  0  0  0  0  0  0  0  0  0  0  0
   33.5420  -10.3678   37.6085 O   0  0  0  0  0  0  0  0  0  0  0  0
   34.8731   -9.3443   35.9332 C   0  0  0  0  0  0  0  0  0  0  0  0
   34.0363   -9.1461   37.1808 C   0  0  0  0  0  0  0  0  0  0  0  0
   32.8328   -8.2877   36.7770 C   0  0  0  0  0  0  0  0  0  0  0  0
 22 23  1  0  0  0
 23 24  1  0  0  0
 23 21  1  0  0  0
 21  1  1  0  0  0
  1  2  2  0  0  0
  2  3  1  0  0  0
  3  4  2  0  0  0
  4  5  1  0  0  0
  5  6  2  0  0  0
  6 19  1  0  0  0
 19 20  3  0  0  0
  4  7  1  0  0  0
  7  8  2  0  0  0
  8  9  1  0  0  0
  9 10  1  0  0  0
  9 11  2  0  0  0
 11 12  1  0  0  0
 11 13  1  0  0  0
 13 14  1  0  0  0
 13 16  1  0  0  0
 16 17  1  0  0  0
  6  1  1  0  0  0
 12  7  1  0  0  0
 14 15  1  0  0  0
 17 18  1  0  0  0
M  END
> <minimizedAffinity>
-6.78061

> <CNNscore>
0.5537815094

> <CNNaffinity>
5.4495868683

> <CNN_VS>
3.0178804398

> <CNNaffinity_variance>
0.1709534228

$$$$
[H]OC([H])([H])C([H])(O[H])c1[se]c(-c2c([H])c([H])c(OC([H])(C([H])([H])[H])C([H])([H])[H])c(C#N)c2[H])nc1C([H])([H])[H]


 24 25  0  0  0  0  0  0  0  0999 V2000
   35.8297  -15.8098   36.0420 C   0  0  0  0  0  0  0  0  0  0  0  0
   36.5205  -17.0024   36.0725 C   0  0  0  0  0  0  0  0  0  0  0  0
   35.8719  -18.2077   36.0134 C   0  0  0  0  0  0  0  0  0  0  0  0
   34.4937  -18.2706   35.9206 C   0  0  0  0  0  0  0  0  0  0  0  0
   33.7934  -17.0787   35.8895 C   0  0  0  0  0  0  0  0  0  0  0  0
   34.4506  -15.8751   35.9491 C   0  0  0  0  0  0  0  0  0  0  0  0
   33.8734  -19.5585   35.8626 C   0  0  0  0  0  0  0  0  0  0  0  0
   33.2318  -20.4158   35.2716 N   0  0  0  0  0  0  0  0  0  0  0  0
   32.7736  -21.5676   35.4605 C   0  0  0  0  0  0  0  0  0  0  0  0
   31.9803  -22.3072   34.3718 C   0  0  0  0  0  0  0  0  0  0  0  0
   32.9389  -22.2497   36.6347 C   0  0  0  0  0  0  0  0  0  0  0  0
   34.0425  -20.8138   37.6941 Se  0  0  0  0  0  0  0  0  0  0  0  0
   32.5552  -23.5499   37.1770 C   0  0  0  0  0  0  0  0  0  0  0  0
   31.1981  -23.7346   37.3168 O   0  0  0  0  0  0  0  0  0  0  0  0
   30.9917  -24.6288   37.6799 H   0  0  0  0  0  0  0  0  0  0  0  0
   33.1974  -24.6309   36.3190 C   0  0  0  0  0  0  0  0  0  0  0  0
   34.5797  -24.5052   36.3120 O   0  0  0  0  0  0  0  0  0  0  0  0
   34.9440  -25.2406   35.7661 H   0  0  0  0  0  0  0  0  0  0  0  0
   33.7093  -14.6262   35.9164 C   0  0  0  0  0  0  0  0  0  0  0  0
   33.1194  -13.6310   35.9039 N   0  0  0  0  0  0  0  0  0  0  0  0
   36.4246  -14.5785   36.0978 O   0  0  0  0  0  0  0  0  0  0  0  0
   38.0122  -13.7539   37.6552 C   0  0  0  0  0  0  0  0  0  0  0  0
   36.5719  -13.7323   37.1851 C   0  0  0  0  0  0  0  0  0  0  0  0
   36.2864  -12.3095   36.6927 C   0  0  0  0  0  0  0  0  0  0  0  0
 22 23  1  0  0  0
 23 24  1  0  0  0
 23 21  1  0  0  0
 21  1  1  0  0  0
  1  2  2  0  0  0
  2  3  1  0  0  0
  3  4  2  0  0  0
  4  5  1  0  0  0
  5  6  2  0  0  0
  6 19  1  0  0  0
 19 20  3  0  0  0
  4  7  1  0  0  0
  7  8  2  0  0  0
  8  9  1  0  0  0
  9 10  1  0  0  0
  9 11  2  0  0  0
 11 12  1  0  0  0
 11 13  1  0  0  0
 13 14  1  0  0  0
 13 16  1  0  0  0
 16 17  1  0  0  0
  6  1  1  0  0  0
 12  7  1  0  0  0
 14 15  1  0  0  0
 17 18  1  0  0  0
M  END
> <minimizedAffinity>
-5.14437

> <CNNscore>
0.5498288870

> <CNNaffinity>
4.6207766533

> <CNN_VS>
2.5406365395

> <CNNaffinity_variance>
0.1224825531

$$$$
[H]OC([H])([H])C([H])(O[H])c1[se]c(-c2c([H])c([H])c(OC([H])(C([H])([H])[H])C([H])([H])[H])c(C#N)c2[H])nc1C([H])([H])[H]


 24 25  0  0  0  0  0  0  0  0999 V2000
   35.3530  -13.3764   36.4995 C   0  0  0  0  0  0  0  0  0  0  0  0
   34.1739  -13.9529   36.0778 C   0  0  0  0  0  0  0  0  0  0  0  0
   34.0153  -15.3131   36.0389 C   0  0  0  0  0  0  0  0  0  0  0  0
   35.0382  -16.1604   36.4235 C   0  0  0  0  0  0  0  0  0  0  0  0
   36.2242  -15.5900   36.8477 C   0  0  0  0  0  0  0  0  0  0  0  0
   36.3753  -14.2261   36.8838 C   0  0  0  0  0  0  0  0  0  0  0  0
   34.8130  -17.5718   36.3608 C   0  0  0  0  0  0  0  0  0  0  0  0
   35.1619  -18.7253   36.5697 N   0  0  0  0  0  0  0  0  0  0  0  0
   34.7449  -19.8959   36.4022 C   0  0  0  0  0  0  0  0  0  0  0  0
   35.5686  -21.1153   36.8453 C   0  0  0  0  0  0  0  0  0  0  0  0
   33.5405  -20.1793   35.8186 C   0  0  0  0  0  0  0  0  0  0  0  0
   32.8933  -18.2203   35.4371 Se  0  0  0  0  0  0  0  0  0  0  0  0
   32.7743  -21.3747   35.4784 C   0  0  0  0  0  0  0  0  0  0  0  0
   31.6761  -21.5982   36.2779 O   0  0  0  0  0  0  0  0  0  0  0  0
   31.1901  -22.4121   36.0034 H   0  0  0  0  0  0  0  0  0  0  0  0
   32.4060  -21.2992   34.0033 C   0  0  0  0  0  0  0  0  0  0  0  0
   33.4416  -20.7511   33.2591 O   0  0  0  0  0  0  0  0  0  0  0  0
   33.1620  -20.7493   32.3139 H   0  0  0  0  0  0  0  0  0  0  0  0
   37.6239  -13.6327   37.3301 C   0  0  0  0  0  0  0  0  0  0  0  0
   38.6248  -13.1662   37.6753 N   0  0  0  0  0  0  0  0  0  0  0  0
   35.5669  -12.0260   36.5587 O   0  0  0  0  0  0  0  0  0  0  0  0
   33.9829  -10.4958   37.4392 C   0  0  0  0  0  0  0  0  0  0  0  0
   34.7118  -10.9937   36.2077 C   0  0  0  0  0  0  0  0  0  0  0  0
   35.5821   -9.8358   35.7078 C   0  0  0  0  0  0  0  0  0  0  0  0
 22 23  1  0  0  0
 23 24  1  0  0  0
 23 21  1  0  0  0
 21  1  1  0  0  0
  1  2  2  0  0  0
  2  3  1  0  0  0
  3  4  2  0  0  0
  4  5  1  0  0  0
  5  6  2  0  0  0
  6 19  1  0  0  0
 19 20  3  0  0  0
  4  7  1  0  0  0
  7  8  2  0  0  0
  8  9  1  0  0  0
  9 10  1  0  0  0
  9 11  2  0  0  0
 11 12  1  0  0  0
 11 13  1  0  0  0
 13 14  1  0  0  0
 13 16  1  0  0  0
 16 17  1  0  0  0
  6  1  1  0  0  0
 12  7  1  0  0  0
 14 15  1  0  0  0
 17 18  1  0  0  0
M  END
> <minimizedAffinity>
-5.69775

> <CNNscore>
0.4974694848

> <CNNaffinity>
4.8288192749

> <CNN_VS>
2.4021902084

> <CNNaffinity_variance>
0.0242346898

$$$$
[H]OC([H])([H])C([H])(O[H])c1[se]c(-c2c([H])c([H])c(OC([H])(C([H])([H])[H])C([H])([H])[H])c(C#N)c2[H])nc1C([H])([H])[H]


 24 25  0  0  0  0  0  0  0  0999 V2000
   32.6619  -20.8876   37.0729 C   0  0  0  0  0  0  0  0  0  0  0  0
   33.5003  -21.5590   37.9370 C   0  0  0  0  0  0  0  0  0  0  0  0
   34.8623  -21.4365   37.8535 C   0  0  0  0  0  0  0  0  0  0  0  0
   35.4471  -20.6306   36.8940 C   0  0  0  0  0  0  0  0  0  0  0  0
   34.6129  -19.9538   36.0233 C   0  0  0  0  0  0  0  0  0  0  0  0
   33.2492  -20.0818   36.1134 C   0  0  0  0  0  0  0  0  0  0  0  0
   36.8745  -20.5433   36.8563 C   0  0  0  0  0  0  0  0  0  0  0  0
   37.9111  -19.8941   36.8565 N   0  0  0  0  0  0  0  0  0  0  0  0
   39.1514  -20.0724   36.8090 C   0  0  0  0  0  0  0  0  0  0  0  0
   40.1361  -18.8929   36.8358 C   0  0  0  0  0  0  0  0  0  0  0  0
   39.7211  -21.3136   36.7295 C   0  0  0  0  0  0  0  0  0  0  0  0
   37.9740  -22.4754   36.7260 Se  0  0  0  0  0  0  0  0  0  0  0  0
   41.0707  -21.8660   36.6585 C   0  0  0  0  0  0  0  0  0  0  0  0
   41.3212  -22.8835   37.5514 O   0  0  0  0  0  0  0  0  0  0  0  0
   42.2422  -23.2257   37.4587 H   0  0  0  0  0  0  0  0  0  0  0  0
   41.3378  -22.2846   35.2196 C   0  0  0  0  0  0  0  0  0  0  0  0
   42.2258  -21.4132   34.6042 O   0  0  0  0  0  0  0  0  0  0  0  0
   42.3825  -21.7433   33.6887 H   0  0  0  0  0  0  0  0  0  0  0  0
   32.3780  -19.3685   35.1956 C   0  0  0  0  0  0  0  0  0  0  0  0
   31.6741  -18.8090   34.4675 N   0  0  0  0  0  0  0  0  0  0  0  0
   31.2964  -20.9724   37.1101 O   0  0  0  0  0  0  0  0  0  0  0  0
   29.0358  -21.6776   36.9751 C   0  0  0  0  0  0  0  0  0  0  0  0
   30.4918  -22.0960   37.0092 C   0  0  0  0  0  0  0  0  0  0  0  0
   30.7976  -22.7513   35.6582 C   0  0  0  0  0  0  0  0  0  0  0  0
 22 23  1  0  0  0
 23 24  1  0  0  0
 23 21  1  0  0  0
 21  1  1  0  0  0
  1  2  2  0  0  0
  2  3  1  0  0  0
  3  4  2  0  0  0
  4  5  1  0  0  0
  5  6  2  0  0  0
  6 19  1  0  0  0
 19 20  3  0  0  0
  4  7  1  0  0  0
  7  8  2  0  0  0
  8  9  1  0  0  0
  9 10  1  0  0  0
  9 11  2  0  0  0
 11 12  1  0  0  0
 11 13  1  0  0  0
 13 14  1  0  0  0
 13 16  1  0  0  0
 16 17  1  0  0  0
  6  1  1  0  0  0
 12  7  1  0  0  0
 14 15  1  0  0  0
 17 18  1  0  0  0
M  END
> <minimizedAffinity>
-3.35690

> <CNNscore>
0.4617296159

> <CNNaffinity>
4.1084489822

> <CNN_VS>
1.8969925642

> <CNNaffinity_variance>
0.2077029198

$$$$
[H]OC([H])([H])C([H])(O[H])c1[se]c(-c2c([H])c([H])c(OC([H])(C([H])([H])[H])C([H])([H])[H])c(C#N)c2[H])nc1C([H])([H])[H]


 24 25  0  0  0  0  0  0  0  0999 V2000
   34.8309  -17.3399   35.7768 C   0  0  0  0  0  0  0  0  0  0  0  0
   33.5159  -17.2884   35.3666 C   0  0  0  0  0  0  0  0  0  0  0  0
   32.7421  -18.4169   35.2982 C   0  0  0  0  0  0  0  0  0  0  0  0
   33.2560  -19.6543   35.6402 C   0  0  0  0  0  0  0  0  0  0  0  0
   34.5744  -19.7144   36.0526 C   0  0  0  0  0  0  0  0  0  0  0  0
   35.3432  -18.5791   36.1184 C   0  0  0  0  0  0  0  0  0  0  0  0
   32.3993  -20.7963   35.5482 C   0  0  0  0  0  0  0  0  0  0  0  0
   32.2189  -21.9909   35.3576 N   0  0  0  0  0  0  0  0  0  0  0  0
   31.2823  -22.8241   35.3287 C   0  0  0  0  0  0  0  0  0  0  0  0
   31.5353  -24.3099   35.0289 C   0  0  0  0  0  0  0  0  0  0  0  0
   29.9773  -22.4833   35.5570 C   0  0  0  0  0  0  0  0  0  0  0  0
   30.2302  -20.4277   35.8925 Se  0  0  0  0  0  0  0  0  0  0  0  0
   28.6874  -23.1661   35.5987 C   0  0  0  0  0  0  0  0  0  0  0  0
   28.6168  -24.3052   34.8289 O   0  0  0  0  0  0  0  0  0  0  0  0
   27.7293  -24.7315   34.8966 H   0  0  0  0  0  0  0  0  0  0  0  0
   28.3386  -23.4342   37.0560 C   0  0  0  0  0  0  0  0  0  0  0  0
   27.5952  -22.3907   37.5900 O   0  0  0  0  0  0  0  0  0  0  0  0
   27.3760  -22.6261   38.5218 H   0  0  0  0  0  0  0  0  0  0  0  0
   36.7279  -18.6487   36.5522 C   0  0  0  0  0  0  0  0  0  0  0  0
   37.8286  -18.7168   36.9021 N   0  0  0  0  0  0  0  0  0  0  0  0
   35.6493  -16.2464   35.8641 O   0  0  0  0  0  0  0  0  0  0  0  0
   36.9735  -15.0431   37.4212 C   0  0  0  0  0  0  0  0  0  0  0  0
   35.6123  -15.2029   36.7749 C   0  0  0  0  0  0  0  0  0  0  0  0
   35.3435  -13.9196   35.9817 C   0  0  0  0  0  0  0  0  0  0  0  0
 22 23  1  0  0  0
 23 24  1  0  0  0
 23 21  1  0  0  0
 21  1  1  0  0  0
  1  2  2  0  0  0
  2  3  1  0  0  0
  3  4  2  0  0  0
  4  5  1  0  0  0
  5  6  2  0  0  0
  6 19  1  0  0  0
 19 20  3  0  0  0
  4  7  1  0  0  0
  7  8  2  0  0  0
  8  9  1  0  0  0
  9 10  1  0  0  0
  9 11  2  0  0  0
 11 12  1  0  0  0
 11 13  1  0  0  0
 13 14  1  0  0  0
 13 16  1  0  0  0
 16 17  1  0  0  0
  6  1  1  0  0  0
 12  7  1  0  0  0
 14 15  1  0  0  0
 17 18  1  0  0  0
M  END
> <minimizedAffinity>
-4.77167

> <CNNscore>
0.4515458941

> <CNNaffinity>
4.2260189056

> <CNN_VS>
1.9082415104

> <CNNaffinity_variance>
0.4388184547

$$$$
[H]OC([H])([H])C([H])(O[H])c1[se]c(-c2c([H])c([H])c(OC([H])(C([H])([H])[H])C([H])([H])[H])c(C#N)c2[H])nc1C([H])([H])[H]


 24 25  0  0  0  0  0  0  0  0999 V2000
   35.5820  -16.2611   36.1940 C   0  0  0  0  0  0  0  0  0  0  0  0
   36.7432  -16.2662   36.9369 C   0  0  0  0  0  0  0  0  0  0  0  0
   37.4574  -17.4172   37.1421 C   0  0  0  0  0  0  0  0  0  0  0  0
   37.0360  -18.6211   36.6080 C   0  0  0  0  0  0  0  0  0  0  0  0
   35.8721  -18.6245   35.8615 C   0  0  0  0  0  0  0  0  0  0  0  0
   35.1622  -17.4669   35.6606 C   0  0  0  0  0  0  0  0  0  0  0  0
   37.8238  -19.7891   36.8569 C   0  0  0  0  0  0  0  0  0  0  0  0
   38.7316  -20.5547   36.5640 N   0  0  0  0  0  0  0  0  0  0  0  0
   39.2686  -21.6069   36.9844 C   0  0  0  0  0  0  0  0  0  0  0  0
   40.4535  -22.2548   36.2511 C   0  0  0  0  0  0  0  0  0  0  0  0
   38.8488  -22.2555   38.1133 C   0  0  0  0  0  0  0  0  0  0  0  0
   37.2800  -20.9747   38.6618 Se  0  0  0  0  0  0  0  0  0  0  0  0
   39.2262  -23.4525   38.8594 C   0  0  0  0  0  0  0  0  0  0  0  0
   39.3445  -23.2671   40.2184 O   0  0  0  0  0  0  0  0  0  0  0  0
   39.5942  -24.1051   40.6760 H   0  0  0  0  0  0  0  0  0  0  0  0
   38.2395  -24.5588   38.5135 C   0  0  0  0  0  0  0  0  0  0  0  0
   37.5348  -24.9667   39.6376 O   0  0  0  0  0  0  0  0  0  0  0  0
   36.8961  -25.6619   39.3540 H   0  0  0  0  0  0  0  0  0  0  0  0
   33.9399  -17.4768   34.8757 C   0  0  0  0  0  0  0  0  0  0  0  0
   32.9602  -17.4917   34.2604 N   0  0  0  0  0  0  0  0  0  0  0  0
   34.8294  -15.1429   35.9570 O   0  0  0  0  0  0  0  0  0  0  0  0
   35.5576  -12.9845   36.6183 C   0  0  0  0  0  0  0  0  0  0  0  0
   34.5410  -14.0913   36.8120 C   0  0  0  0  0  0  0  0  0  0  0  0
   33.1813  -13.5249   36.3896 C   0  0  0  0  0  0  0  0  0  0  0  0
 22 23  1  0  0  0
 23 24  1  0  0  0
 23 21  1  0  0  0
 21  1  1  0  0  0
  1  2  2  0  0  0
  2  3  1  0  0  0
  3  4  2  0  0  0
  4  5  1  0  0  0
  5  6  2  0  0  0
  6 19  1  0  0  0
 19 20  3  0  0  0
  4  7  1  0  0  0
  7  8  2  0  0  0
  8  9  1  0  0  0
  9 10  1  0  0  0
  9 11  2  0  0  0
 11 12  1  0  0  0
 11 13  1  0  0  0
 13 14  1  0  0  0
 13 16  1  0  0  0
 16 17  1  0  0  0
  6  1  1  0  0  0
 12  7  1  0  0  0
 14 15  1  0  0  0
 17 18  1  0  0  0
M  END
> <minimizedAffinity>
-4.13656

> <CNNscore>
0.4402832091

> <CNNaffinity>
4.1995377541

> <CNN_VS>
1.8489859104

> <CNNaffinity_variance>
0.1491059512

$$$$
[H]OC([H])([H])C([H])(O[H])c1[se]c(-c2c([H])c([H])c(OC([H])(C([H])([H])[H])C([H])([H])[H])c(C#N)c2[H])nc1C([H])([H])[H]


 24 25  0  0  0  0  0  0  0  0999 V2000
   35.1897  -15.8782   36.0894 C   0  0  0  0  0  0  0  0  0  0  0  0
   36.2891  -15.8100   36.9183 C   0  0  0  0  0  0  0  0  0  0  0  0
   36.9146  -16.9408   37.3732 C   0  0  0  0  0  0  0  0  0  0  0  0
   36.4625  -18.1975   37.0147 C   0  0  0  0  0  0  0  0  0  0  0  0
   35.3601  -18.2745   36.1836 C   0  0  0  0  0  0  0  0  0  0  0  0
   34.7390  -17.1368   35.7321 C   0  0  0  0  0  0  0  0  0  0  0  0
   37.1569  -19.3410   37.5217 C   0  0  0  0  0  0  0  0  0  0  0  0
   37.2504  -20.2861   38.2923 N   0  0  0  0  0  0  0  0  0  0  0  0
   38.0335  -21.2282   38.5599 C   0  0  0  0  0  0  0  0  0  0  0  0
   37.7277  -22.2365   39.6785 C   0  0  0  0  0  0  0  0  0  0  0  0
   39.2078  -21.4319   37.8884 C   0  0  0  0  0  0  0  0  0  0  0  0
   39.0976  -19.8256   36.5430 Se  0  0  0  0  0  0  0  0  0  0  0  0
   40.3125  -22.3854   37.9349 C   0  0  0  0  0  0  0  0  0  0  0  0
   40.6621  -22.9174   36.7142 O   0  0  0  0  0  0  0  0  0  0  0  0
   41.4156  -23.5491   36.7989 H   0  0  0  0  0  0  0  0  0  0  0  0
   41.4899  -21.7150   38.6287 C   0  0  0  0  0  0  0  0  0  0  0  0
   41.2539  -21.5785   39.9897 O   0  0  0  0  0  0  0  0  0  0  0  0
   42.0532  -21.1648   40.3916 H   0  0  0  0  0  0  0  0  0  0  0  0
   33.5810  -17.2241   34.8593 C   0  0  0  0  0  0  0  0  0  0  0  0
   32.6551  -17.2810   34.1678 N   0  0  0  0  0  0  0  0  0  0  0  0
   34.5263  -14.7833   35.6054 O   0  0  0  0  0  0  0  0  0  0  0  0
   33.5178  -13.9336   37.5770 C   0  0  0  0  0  0  0  0  0  0  0  0
   34.1936  -13.6084   36.2603 C   0  0  0  0  0  0  0  0  0  0  0  0
   35.5054  -12.8924   36.5990 C   0  0  0  0  0  0  0  0  0  0  0  0
 22 23  1  0  0  0
 23 24  1  0  0  0
 23 21  1  0  0  0
 21  1  1  0  0  0
  1  2  2  0  0  0
  2  3  1  0  0  0
  3  4  2  0  0  0
  4  5  1  0  0  0
  5  6  2  0  0  0
  6 19  1  0  0  0
 19 20  3  0  0  0
  4  7  1  0  0  0
  7  8  2  0  0  0
  8  9  1  0  0  0
  9 10  1  0  0  0
  9 11  2  0  0  0
 11 12  1  0  0  0
 11 13  1  0  0  0
 13 14  1  0  0  0
 13 16  1  0  0  0
 16 17  1  0  0  0
  6  1  1  0  0  0
 12  7  1  0  0  0
 14 15  1  0  0  0
 17 18  1  0  0  0
M  END
> <minimizedAffinity>
-4.00096

> <CNNscore>
0.4255087972

> <CNNaffinity>
4.2815752029

> <CNN_VS>
1.8218479156

> <CNNaffinity_variance>
0.1260402799

$$$$
[H]N=C(N([H])[H])N([H])C([H])([H])C([H])([H])C([H])([H])[C@@]([H])(C([H])=O)N([H])C(=O)[C@@]1([H])N(C(=O)[C@]([H])(N([H])C(=O)OC([H])([H])c2c([H])c([H])c([H])c([H])c2[H])C([H])([H])c2c([H])c([H])c([H])c([H])c2[H])C([H])([H])C([H])([H])C1([H])[H]


 45 47  0  0  0  0  0  0  0  0999 V2000
   34.7013  -14.4060   35.8464 C   0  0  0  0  0  0  0  0  0  0  0  0
   36.0773  -13.8307   35.8495 C   0  0  0  0  0  0  0  0  0  0  0  0
   36.4414  -13.8093   37.3194 C   0  0  0  0  0  0  0  0  0  0  0  0
   35.1028  -13.8994   38.0382 C   0  0  0  0  0  0  0  0  0  0  0  0
   34.1023  -13.7314   36.9889 N   0  0  0  0  0  0  0  0  0  0  0  0
   32.8391  -13.1137   37.0066 C   0  0  0  0  0  0  0  0  0  0  0  0
   32.1389  -13.2043   35.9326 O   0  0  0  0  0  0  0  0  0  0  0  0
   35.6488  -16.7941   36.0187 N   0  0  0  0  0  0  0  0  0  0  0  0
   34.6145  -15.8550   35.8703 C   0  0  0  0  0  0  0  0  0  0  0  0
   33.4298  -16.3385   35.7393 O   0  0  0  0  0  0  0  0  0  0  0  0
   36.6193  -16.4523   36.1414 H   0  0  0  0  0  0  0  0  0  0  0  0
   35.4364  -18.2249   36.0188 C   0  0  0  0  0  0  0  0  0  0  0  0
   35.5491  -18.8541   37.3469 C   0  0  0  0  0  0  0  0  0  0  0  0
   34.7622  -19.6946   37.7383 O   0  0  0  0  0  0  0  0  0  0  0  0
   36.2009  -18.9276   34.9572 C   0  0  0  0  0  0  0  0  0  0  0  0
   36.6191  -18.1356   33.7762 C   0  0  0  0  0  0  0  0  0  0  0  0
   38.0864  -18.0494   33.5191 C   0  0  0  0  0  0  0  0  0  0  0  0
   38.6458  -19.3351   33.1620 N   0  0  0  0  0  0  0  0  0  0  0  0
   37.9903  -20.1023   32.9130 H   0  0  0  0  0  0  0  0  0  0  0  0
   40.7053  -20.2151   32.0375 N   0  0  0  0  0  0  0  0  0  0  0  0
   40.0345  -19.5793   33.1349 C   0  0  0  0  0  0  0  0  0  0  0  0
   40.7797  -19.2171   34.1501 N   0  0  0  0  0  0  0  0  0  0  0  0
   40.7189  -21.2546   31.9998 H   0  0  0  0  0  0  0  0  0  0  0  0
   41.1756  -19.6529   31.2886 H   0  0  0  0  0  0  0  0  0  0  0  0
   40.2878  -18.7521   34.9520 H   0  0  0  0  0  0  0  0  0  0  0  0
   32.2625  -12.3749   38.1568 C   0  0  0  0  0  0  0  0  0  0  0  0
   31.1396  -13.1300   38.7409 N   0  0  0  0  0  0  0  0  0  0  0  0
   30.9896  -13.2668   40.1400 C   0  0  0  0  0  0  0  0  0  0  0  0
   31.8531  -12.7207   40.9226 O   0  0  0  0  0  0  0  0  0  0  0  0
   30.4603  -13.5673   38.1037 H   0  0  0  0  0  0  0  0  0  0  0  0
   29.9647  -13.9561   40.7608 O   0  0  0  0  0  0  0  0  0  0  0  0
   29.0553  -13.2808   41.5805 C   0  0  0  0  0  0  0  0  0  0  0  0
   28.4075  -12.2094   40.7831 C   0  0  0  0  0  0  0  0  0  0  0  0
   27.6515  -12.4988   39.6425 C   0  0  0  0  0  0  0  0  0  0  0  0
   27.0442  -11.5297   38.8807 C   0  0  0  0  0  0  0  0  0  0  0  0
   27.1520  -10.2014   39.2139 C   0  0  0  0  0  0  0  0  0  0  0  0
   27.9016   -9.9155   40.3484 C   0  0  0  0  0  0  0  0  0  0  0  0
   28.5054  -10.8808   41.1013 C   0  0  0  0  0  0  0  0  0  0  0  0
   31.6324  -11.0537   37.7466 C   0  0  0  0  0  0  0  0  0  0  0  0
   32.5381  -10.0430   37.2523 C   0  0  0  0  0  0  0  0  0  0  0  0
   33.9014  -10.1504   37.3369 C   0  0  0  0  0  0  0  0  0  0  0  0
   34.7368   -9.1393   36.8552 C   0  0  0  0  0  0  0  0  0  0  0  0
   34.1386   -8.0225   36.2856 C   0  0  0  0  0  0  0  0  0  0  0  0
   32.7610   -7.8894   36.1855 C   0  0  0  0  0  0  0  0  0  0  0  0
   31.9769   -8.9001   36.6700 C   0  0  0  0  0  0  0  0  0  0  0  0
 20 21  1  0  0  0
 21 22  2  0  0  0
 21 18  1  0  0  0
 18 17  1  0  0  0
 17 16  1  0  0  0
 16 15  1  0  0  0
 15 12  1  0  0  0
 12  8  1  0  0  0
  8  9  1  0  0  0
  9 10  2  0  0  0
  9  1  1  0  0  0
  1  2  1  0  0  0
  2  3  1  0  0  0
  3  4  1  0  0  0
  4  5  1  0  0  0
  5  6  1  0  0  0
  6  7  2  0  0  0
  6 26  1  0  0  0
 26 39  1  0  0  0
 39 40  1  0  0  0
 40 41  2  0  0  0
 41 42  1  0  0  0
 42 43  2  0  0  0
 43 44  1  0  0  0
 44 45  2  0  0  0
 26 27  1  0  0  0
 27 28  1  0  0  0
 28 29  2  0  0  0
 28 31  1  0  0  0
 31 32  1  0  0  0
 32 33  1  0  0  0
 33 34  2  0  0  0
 34 35  1  0  0  0
 35 36  2  0  0  0
 36 37  1  0  0  0
 37 38  2  0  0  0
 12 13  1  0  0  0
 13 14  2  0  0  0
  5  1  1  0  0  0
 45 40  1  0  0  0
 38 33  1  0  0  0
 20 23  1  0  0  0
 20 24  1  0  0  0
 22 25  1  0  0  0
 18 19  1  0  0  0
  8 11  1  0  0  0
 27 30  1  0  0  0
M  END
> <minimizedAffinity>
-7.62278

> <CNNscore>
0.4385561943

> <CNNaffinity>
7.0164299011

> <CNN_VS>
3.0770988464

> <CNNaffinity_variance>
0.1234815717

$$$$
[H]N=C(N([H])[H])N([H])C([H])([H])C([H])([H])C([H])([H])[C@@]([H])(C([H])=O)N([H])C(=O)[C@@]1([H])N(C(=O)[C@]([H])(N([H])C(=O)OC([H])([H])c2c([H])c([H])c([H])c([H])c2[H])C([H])([H])c2c([H])c([H])c([H])c([H])c2[H])C([H])([H])C([H])([H])C1([H])[H]


 45 47  0  0  0  0  0  0  0  0999 V2000
   39.0307  -19.9105   35.6075 C   0  0  0  0  0  0  0  0  0  0  0  0
   38.9966  -20.6563   34.3165 C   0  0  0  0  0  0  0  0  0  0  0  0
   38.7227  -19.5715   33.2959 C   0  0  0  0  0  0  0  0  0  0  0  0
   38.1456  -18.4249   34.1138 C   0  0  0  0  0  0  0  0  0  0  0  0
   37.9158  -18.9895   35.4399 N   0  0  0  0  0  0  0  0  0  0  0  0
   36.9114  -18.7361   36.3910 C   0  0  0  0  0  0  0  0  0  0  0  0
   37.0262  -19.3344   37.5228 O   0  0  0  0  0  0  0  0  0  0  0  0
   41.4008  -19.0267   35.1262 N   0  0  0  0  0  0  0  0  0  0  0  0
   40.2967  -19.2902   35.9541 C   0  0  0  0  0  0  0  0  0  0  0  0
   40.4180  -18.9349   37.1843 O   0  0  0  0  0  0  0  0  0  0  0  0
   41.3451  -19.2825   34.1237 H   0  0  0  0  0  0  0  0  0  0  0  0
   42.6206  -18.4052   35.5933 C   0  0  0  0  0  0  0  0  0  0  0  0
   42.8833  -17.0755   35.0144 C   0  0  0  0  0  0  0  0  0  0  0  0
   43.1643  -16.1109   35.6996 O   0  0  0  0  0  0  0  0  0  0  0  0
   43.7918  -19.3173   35.5527 C   0  0  0  0  0  0  0  0  0  0  0  0
   44.6218  -19.4211   36.7762 C   0  0  0  0  0  0  0  0  0  0  0  0
   43.9475  -19.9601   37.9934 C   0  0  0  0  0  0  0  0  0  0  0  0
   43.8283  -18.9578   39.0300 N   0  0  0  0  0  0  0  0  0  0  0  0
   44.5274  -18.1891   39.0507 H   0  0  0  0  0  0  0  0  0  0  0  0
   41.5583  -19.6717   39.8163 N   0  0  0  0  0  0  0  0  0  0  0  0
   42.8043  -18.9842   39.9993 C   0  0  0  0  0  0  0  0  0  0  0  0
   42.9694  -18.3584   41.1388 N   0  0  0  0  0  0  0  0  0  0  0  0
   40.7942  -19.1853   39.3048 H   0  0  0  0  0  0  0  0  0  0  0  0
   41.4121  -20.6403   40.1886 H   0  0  0  0  0  0  0  0  0  0  0  0
   43.8812  -17.8561   41.2713 H   0  0  0  0  0  0  0  0  0  0  0  0
   35.7449  -17.8423   36.1879 C   0  0  0  0  0  0  0  0  0  0  0  0
   34.7943  -18.4470   35.2376 N   0  0  0  0  0  0  0  0  0  0  0  0
   33.7490  -19.2923   35.6752 C   0  0  0  0  0  0  0  0  0  0  0  0
   33.6239  -19.5409   36.9317 O   0  0  0  0  0  0  0  0  0  0  0  0
   34.9099  -18.2454   34.2353 H   0  0  0  0  0  0  0  0  0  0  0  0
   32.8199  -19.8931   34.8464 O   0  0  0  0  0  0  0  0  0  0  0  0
   32.6681  -21.2831   34.8474 C   0  0  0  0  0  0  0  0  0  0  0  0
   31.2594  -21.6032   35.1887 C   0  0  0  0  0  0  0  0  0  0  0  0
   30.7886  -22.9202   35.2012 C   0  0  0  0  0  0  0  0  0  0  0  0
   29.4899  -23.2483   35.5075 C   0  0  0  0  0  0  0  0  0  0  0  0
   28.5737  -22.2754   35.8257 C   0  0  0  0  0  0  0  0  0  0  0  0
   29.0435  -20.9677   35.8149 C   0  0  0  0  0  0  0  0  0  0  0  0
   30.3337  -20.6454   35.5078 C   0  0  0  0  0  0  0  0  0  0  0  0
   36.1242  -16.5262   35.5284 C   0  0  0  0  0  0  0  0  0  0  0  0
   35.5252  -15.3375   36.0889 C   0  0  0  0  0  0  0  0  0  0  0  0
   34.1720  -15.1713   36.2246 C   0  0  0  0  0  0  0  0  0  0  0  0
   33.6389  -13.9968   36.7618 C   0  0  0  0  0  0  0  0  0  0  0  0
   34.5272  -13.0042   37.1559 C   0  0  0  0  0  0  0  0  0  0  0  0
   35.9017  -13.1477   37.0315 C   0  0  0  0  0  0  0  0  0  0  0  0
   36.3849  -14.3116   36.4995 C   0  0  0  0  0  0  0  0  0  0  0  0
 20 21  1  0  0  0
 21 22  2  0  0  0
 21 18  1  0  0  0
 18 17  1  0  0  0
 17 16  1  0  0  0
 16 15  1  0  0  0
 15 12  1  0  0  0
 12  8  1  0  0  0
  8  9  1  0  0  0
  9 10  2  0  0  0
  9  1  1  0  0  0
  1  2  1  0  0  0
  2  3  1  0  0  0
  3  4  1  0  0  0
  4  5  1  0  0  0
  5  6  1  0  0  0
  6  7  2  0  0  0
  6 26  1  0  0  0
 26 39  1  0  0  0
 39 40  1  0  0  0
 40 41  2  0  0  0
 41 42  1  0  0  0
 42 43  2  0  0  0
 43 44  1  0  0  0
 44 45  2  0  0  0
 26 27  1  0  0  0
 27 28  1  0  0  0
 28 29  2  0  0  0
 28 31  1  0  0  0
 31 32  1  0  0  0
 32 33  1  0  0  0
 33 34  2  0  0  0
 34 35  1  0  0  0
 35 36  2  0  0  0
 36 37  1  0  0  0
 37 38  2  0  0  0
 12 13  1  0  0  0
 13 14  2  0  0  0
  5  1  1  0  0  0
 45 40  1  0  0  0
 38 33  1  0  0  0
 20 23  1  0  0  0
 20 24  1  0  0  0
 22 25  1  0  0  0
 18 19  1  0  0  0
  8 11  1  0  0  0
 27 30  1  0  0  0
M  END
> <minimizedAffinity>
-7.15090

> <CNNscore>
0.2936194241

> <CNNaffinity>
5.8655748367

> <CNN_VS>
1.7222466469

> <CNNaffinity_variance>
0.1087519377

$$$$
[H]N=C(N([H])[H])N([H])C([H])([H])C([H])([H])C([H])([H])[C@@]([H])(C([H])=O)N([H])C(=O)[C@@]1([H])N(C(=O)[C@]([H])(N([H])C(=O)OC([H])([H])c2c([H])c([H])c([H])c([H])c2[H])C([H])([H])c2c([H])c([H])c([H])c([H])c2[H])C([H])([H])C([H])([H])C1([H])[H]


 45 47  0  0  0  0  0  0  0  0999 V2000
   37.0807  -18.3484   35.6487 C   0  0  0  0  0  0  0  0  0  0  0  0
   36.6917  -18.5460   34.2226 C   0  0  0  0  0  0  0  0  0  0  0  0
   35.2592  -19.0280   34.3171 C   0  0  0  0  0  0  0  0  0  0  0  0
   35.1254  -19.5266   35.7490 C   0  0  0  0  0  0  0  0  0  0  0  0
   36.4862  -19.5195   36.2765 N   0  0  0  0  0  0  0  0  0  0  0  0
   37.1281  -20.3751   37.1895 C   0  0  0  0  0  0  0  0  0  0  0  0
   38.3249  -20.0566   37.5333 O   0  0  0  0  0  0  0  0  0  0  0  0
   36.6876  -15.8036   35.6460 N   0  0  0  0  0  0  0  0  0  0  0  0
   36.7108  -17.0758   36.2416 C   0  0  0  0  0  0  0  0  0  0  0  0
   36.3563  -17.1256   37.4770 O   0  0  0  0  0  0  0  0  0  0  0  0
   36.9518  -15.7150   34.6481 H   0  0  0  0  0  0  0  0  0  0  0  0
   36.3046  -14.5985   36.3483 C   0  0  0  0  0  0  0  0  0  0  0  0
   37.0040  -14.3956   37.6297 C   0  0  0  0  0  0  0  0  0  0  0  0
   37.8258  -13.5138   37.7907 O   0  0  0  0  0  0  0  0  0  0  0  0
   34.8332  -14.4171   36.4347 C   0  0  0  0  0  0  0  0  0  0  0  0
   34.2923  -13.7821   37.6598 C   0  0  0  0  0  0  0  0  0  0  0  0
   33.8417  -12.3654   37.5311 C   0  0  0  0  0  0  0  0  0  0  0  0
   32.5376  -12.1604   38.1234 N   0  0  0  0  0  0  0  0  0  0  0  0
   32.3042  -12.6875   38.9882 H   0  0  0  0  0  0  0  0  0  0  0  0
   31.7954   -9.8617   37.4557 N   0  0  0  0  0  0  0  0  0  0  0  0
   31.5848  -11.2758   37.5772 C   0  0  0  0  0  0  0  0  0  0  0  0
   30.4367  -11.7389   37.1476 N   0  0  0  0  0  0  0  0  0  0  0  0
   31.5962   -9.2583   38.2793 H   0  0  0  0  0  0  0  0  0  0  0  0
   32.1389   -9.4382   36.5609 H   0  0  0  0  0  0  0  0  0  0  0  0
   30.2840  -12.7732   37.2370 H   0  0  0  0  0  0  0  0  0  0  0  0
   36.5350  -21.6016   37.7770 C   0  0  0  0  0  0  0  0  0  0  0  0
   35.0635  -21.5344   37.7275 N   0  0  0  0  0  0  0  0  0  0  0  0
   34.2921  -22.6015   37.2128 C   0  0  0  0  0  0  0  0  0  0  0  0
   34.8871  -23.6558   36.7762 O   0  0  0  0  0  0  0  0  0  0  0  0
   34.6009  -20.6830   38.0735 H   0  0  0  0  0  0  0  0  0  0  0  0
   32.9119  -22.6128   37.1355 O   0  0  0  0  0  0  0  0  0  0  0  0
   32.2753  -22.8878   35.9213 C   0  0  0  0  0  0  0  0  0  0  0  0
   31.5620  -21.6648   35.4754 C   0  0  0  0  0  0  0  0  0  0  0  0
   30.3248  -21.2990   36.0155 C   0  0  0  0  0  0  0  0  0  0  0  0
   29.6374  -20.1767   35.6202 C   0  0  0  0  0  0  0  0  0  0  0  0
   30.1472  -19.3416   34.6560 C   0  0  0  0  0  0  0  0  0  0  0  0
   31.3774  -19.7051   34.1219 C   0  0  0  0  0  0  0  0  0  0  0  0
   32.0561  -20.8221   34.5154 C   0  0  0  0  0  0  0  0  0  0  0  0
   36.8385  -21.7457   39.2596 C   0  0  0  0  0  0  0  0  0  0  0  0
   35.7017  -21.6991   40.1494 C   0  0  0  0  0  0  0  0  0  0  0  0
   35.0511  -22.8194   40.5954 C   0  0  0  0  0  0  0  0  0  0  0  0
   33.9469  -22.7226   41.4462 C   0  0  0  0  0  0  0  0  0  0  0  0
   33.5325  -21.4525   41.8265 C   0  0  0  0  0  0  0  0  0  0  0  0
   34.1747  -20.3020   41.3912 C   0  0  0  0  0  0  0  0  0  0  0  0
   35.2509  -20.4381   40.5579 C   0  0  0  0  0  0  0  0  0  0  0  0
 20 21  1  0  0  0
 21 22  2  0  0  0
 21 18  1  0  0  0
 18 17  1  0  0  0
 17 16  1  0  0  0
 16 15  1  0  0  0
 15 12  1  0  0  0
 12  8  1  0  0  0
  8  9  1  0  0  0
  9 10  2  0  0  0
  9  1  1  0  0  0
  1  2  1  0  0  0
  2  3  1  0  0  0
  3  4  1  0  0  0
  4  5  1  0  0  0
  5  6  1  0  0  0
  6  7  2  0  0  0
  6 26  1  0  0  0
 26 39  1  0  0  0
 39 40  1  0  0  0
 40 41  2  0  0  0
 41 42  1  0  0  0
 42 43  2  0  0  0
 43 44  1  0  0  0
 44 45  2  0  0  0
 26 27  1  0  0  0
 27 28  1  0  0  0
 28 29  2  0  0  0
 28 31  1  0  0  0
 31 32  1  0  0  0
 32 33  1  0  0  0
 33 34  2  0  0  0
 34 35  1  0  0  0
 35 36  2  0  0  0
 36 37  1  0  0  0
 37 38  2  0  0  0
 12 13  1  0  0  0
 13 14  2  0  0  0
  5  1  1  0  0  0
 45 40  1  0  0  0
 38 33  1  0  0  0
 20 23  1  0  0  0
 20 24  1  0  0  0
 22 25  1  0  0  0
 18 19  1  0  0  0
  8 11  1  0  0  0
 27 30  1  0  0  0
M  END
> <minimizedAffinity>
-6.82997

> <CNNscore>
0.2786665261

> <CNNaffinity>
6.0403351784

> <CNN_VS>
1.6832392216

> <CNNaffinity_variance>
0.3896406293

$$$$
[H]N=C(N([H])[H])N([H])C([H])([H])C([H])([H])C([H])([H])[C@@]([H])(C([H])=O)N([H])C(=O)[C@@]1([H])N(C(=O)[C@]([H])(N([H])C(=O)OC([H])([H])c2c([H])c([H])c([H])c([H])c2[H])C([H])([H])c2c([H])c([H])c([H])c([H])c2[H])C([H])([H])C([H])([H])C1([H])[H]


 45 47  0  0  0  0  0  0  0  0999 V2000
   36.8061  -17.6395   35.7650 C   0  0  0  0  0  0  0  0  0  0  0  0
   35.8202  -17.9330   34.6851 C   0  0  0  0  0  0  0  0  0  0  0  0
   34.6567  -18.5477   35.4347 C   0  0  0  0  0  0  0  0  0  0  0  0
   35.2594  -18.9970   36.7583 C   0  0  0  0  0  0  0  0  0  0  0  0
   36.6999  -18.8358   36.5877 N   0  0  0  0  0  0  0  0  0  0  0  0
   37.7795  -19.5863   37.0865 C   0  0  0  0  0  0  0  0  0  0  0  0
   38.9575  -19.1390   36.8330 O   0  0  0  0  0  0  0  0  0  0  0  0
   36.5246  -15.0864   35.9472 N   0  0  0  0  0  0  0  0  0  0  0  0
   36.6236  -16.3854   36.4732 C   0  0  0  0  0  0  0  0  0  0  0  0
   36.5403  -16.4822   37.7531 O   0  0  0  0  0  0  0  0  0  0  0  0
   36.5722  -14.9592   34.9199 H   0  0  0  0  0  0  0  0  0  0  0  0
   36.3501  -13.9044   36.7623 C   0  0  0  0  0  0  0  0  0  0  0  0
   37.4826  -13.6147   37.6600 C   0  0  0  0  0  0  0  0  0  0  0  0
   38.5338  -13.1564   37.2553 O   0  0  0  0  0  0  0  0  0  0  0  0
   35.0261  -13.8492   37.4327 C   0  0  0  0  0  0  0  0  0  0  0  0
   34.2719  -12.5757   37.3552 C   0  0  0  0  0  0  0  0  0  0  0  0
   32.7859  -12.6867   37.2760 C   0  0  0  0  0  0  0  0  0  0  0  0
   32.1287  -11.7284   38.1380 N   0  0  0  0  0  0  0  0  0  0  0  0
   32.1960  -11.8675   39.1659 H   0  0  0  0  0  0  0  0  0  0  0  0
   30.0114  -10.6576   37.3316 N   0  0  0  0  0  0  0  0  0  0  0  0
   31.4126  -10.6213   37.6379 C   0  0  0  0  0  0  0  0  0  0  0  0
   32.0307   -9.4843   37.4324 N   0  0  0  0  0  0  0  0  0  0  0  0
   29.7162  -11.0208   36.4026 H   0  0  0  0  0  0  0  0  0  0  0  0
   29.2954  -10.3251   38.0208 H   0  0  0  0  0  0  0  0  0  0  0  0
   33.0555   -9.4591   37.6569 H   0  0  0  0  0  0  0  0  0  0  0  0
   37.6615  -20.8391   37.8724 C   0  0  0  0  0  0  0  0  0  0  0  0
   38.8767  -21.0561   38.6777 N   0  0  0  0  0  0  0  0  0  0  0  0
   38.8063  -21.3240   40.0641 C   0  0  0  0  0  0  0  0  0  0  0  0
   37.6554  -21.3791   40.6374 O   0  0  0  0  0  0  0  0  0  0  0  0
   39.7906  -21.0025   38.2081 H   0  0  0  0  0  0  0  0  0  0  0  0
   39.8987  -21.5396   40.8832 O   0  0  0  0  0  0  0  0  0  0  0  0
   40.3931  -20.5073   41.6864 C   0  0  0  0  0  0  0  0  0  0  0  0
   41.7467  -20.1394   41.2008 C   0  0  0  0  0  0  0  0  0  0  0  0
   42.8792  -20.8805   41.5534 C   0  0  0  0  0  0  0  0  0  0  0  0
   44.1456  -20.5626   41.1250 C   0  0  0  0  0  0  0  0  0  0  0  0
   44.3619  -19.4787   40.3092 C   0  0  0  0  0  0  0  0  0  0  0  0
   43.2356  -18.7446   39.9581 C   0  0  0  0  0  0  0  0  0  0  0  0
   41.9795  -19.0621   40.3876 C   0  0  0  0  0  0  0  0  0  0  0  0
   37.5877  -22.0767   36.9926 C   0  0  0  0  0  0  0  0  0  0  0  0
   36.4856  -22.9745   37.2485 C   0  0  0  0  0  0  0  0  0  0  0  0
   36.4064  -24.2358   36.7192 C   0  0  0  0  0  0  0  0  0  0  0  0
   35.3128  -25.0636   36.9860 C   0  0  0  0  0  0  0  0  0  0  0  0
   34.3097  -24.5655   37.8077 C   0  0  0  0  0  0  0  0  0  0  0  0
   34.3661  -23.2931   38.3583 C   0  0  0  0  0  0  0  0  0  0  0  0
   35.4523  -22.5124   38.0724 C   0  0  0  0  0  0  0  0  0  0  0  0
 20 21  1  0  0  0
 21 22  2  0  0  0
 21 18  1  0  0  0
 18 17  1  0  0  0
 17 16  1  0  0  0
 16 15  1  0  0  0
 15 12  1  0  0  0
 12  8  1  0  0  0
  8  9  1  0  0  0
  9 10  2  0  0  0
  9  1  1  0  0  0
  1  2  1  0  0  0
  2  3  1  0  0  0
  3  4  1  0  0  0
  4  5  1  0  0  0
  5  6  1  0  0  0
  6  7  2  0  0  0
  6 26  1  0  0  0
 26 39  1  0  0  0
 39 40  1  0  0  0
 40 41  2  0  0  0
 41 42  1  0  0  0
 42 43  2  0  0  0
 43 44  1  0  0  0
 44 45  2  0  0  0
 26 27  1  0  0  0
 27 28  1  0  0  0
 28 29  2  0  0  0
 28 31  1  0  0  0
 31 32  1  0  0  0
 32 33  1  0  0  0
 33 34  2  0  0  0
 34 35  1  0  0  0
 35 36  2  0  0  0
 36 37  1  0  0  0
 37 38  2  0  0  0
 12 13  1  0  0  0
 13 14  2  0  0  0
  5  1  1  0  0  0
 45 40  1  0  0  0
 38 33  1  0  0  0
 20 23  1  0  0  0
 20 24  1  0  0  0
 22 25  1  0  0  0
 18 19  1  0  0  0
  8 11  1  0  0  0
 27 30  1  0  0  0
M  END
> <minimizedAffinity>
-6.40477

> <CNNscore>
0.2726317644

> <CNNaffinity>
5.8334059715

> <CNN_VS>
1.5903717279

> <CNNaffinity_variance>
0.2746695876

$$$$
[H]N=C(N([H])[H])N([H])C([H])([H])C([H])([H])C([H])([H])[C@@]([H])(C([H])=O)N([H])C(=O)[C@@]1([H])N(C(=O)[C@]([H])(N([H])C(=O)OC([H])([H])c2c([H])c([H])c([H])c([H])c2[H])C([H])([H])c2c([H])c([H])c([H])c([H])c2[H])C([H])([H])C([H])([H])C1([H])[H]


 45 47  0  0  0  0  0  0  0  0999 V2000
   36.6750  -17.5199   35.7962 C   0  0  0  0  0  0  0  0  0  0  0  0
   36.2939  -17.5138   34.3543 C   0  0  0  0  0  0  0  0  0  0  0  0
   34.9364  -18.1852   34.3511 C   0  0  0  0  0  0  0  0  0  0  0  0
   34.8884  -18.9392   35.6725 C   0  0  0  0  0  0  0  0  0  0  0  0
   36.2445  -18.8493   36.2044 N   0  0  0  0  0  0  0  0  0  0  0  0
   37.0038  -19.7614   36.9588 C   0  0  0  0  0  0  0  0  0  0  0  0
   38.1548  -19.3565   37.3630 O   0  0  0  0  0  0  0  0  0  0  0  0
   35.3803  -15.3294   36.1910 N   0  0  0  0  0  0  0  0  0  0  0  0
   36.1538  -16.4288   36.5996 C   0  0  0  0  0  0  0  0  0  0  0  0
   36.4397  -16.4812   37.8525 O   0  0  0  0  0  0  0  0  0  0  0  0
   35.1128  -15.2509   35.1930 H   0  0  0  0  0  0  0  0  0  0  0  0
   34.9233  -14.2939   37.0916 C   0  0  0  0  0  0  0  0  0  0  0  0
   33.4650  -14.0807   37.0796 C   0  0  0  0  0  0  0  0  0  0  0  0
   32.8997  -13.3978   37.9121 O   0  0  0  0  0  0  0  0  0  0  0  0
   35.7120  -13.0400   36.9859 C   0  0  0  0  0  0  0  0  0  0  0  0
   35.2496  -12.0200   36.0152 C   0  0  0  0  0  0  0  0  0  0  0  0
   35.0260  -10.6453   36.5509 C   0  0  0  0  0  0  0  0  0  0  0  0
   33.8357  -10.5751   37.3705 N   0  0  0  0  0  0  0  0  0  0  0  0
   33.6581  -11.3471   38.0433 H   0  0  0  0  0  0  0  0  0  0  0  0
   33.2011   -8.2711   36.6158 N   0  0  0  0  0  0  0  0  0  0  0  0
   32.9209   -9.5046   37.2929 C   0  0  0  0  0  0  0  0  0  0  0  0
   31.7434   -9.6115   37.8580 N   0  0  0  0  0  0  0  0  0  0  0  0
   33.7236   -7.5318   37.1282 H   0  0  0  0  0  0  0  0  0  0  0  0
   32.8879   -8.1094   35.6289 H   0  0  0  0  0  0  0  0  0  0  0  0
   31.5397  -10.5141   38.3529 H   0  0  0  0  0  0  0  0  0  0  0  0
   36.5812  -21.1375   37.3177 C   0  0  0  0  0  0  0  0  0  0  0  0
   35.1134  -21.2110   37.4289 N   0  0  0  0  0  0  0  0  0  0  0  0
   34.4057  -22.3900   37.1005 C   0  0  0  0  0  0  0  0  0  0  0  0
   35.0567  -23.4231   36.6942 O   0  0  0  0  0  0  0  0  0  0  0  0
   34.6047  -20.3757   37.7485 H   0  0  0  0  0  0  0  0  0  0  0  0
   33.0333  -22.5356   37.1808 O   0  0  0  0  0  0  0  0  0  0  0  0
   32.2944  -22.8940   36.0492 C   0  0  0  0  0  0  0  0  0  0  0  0
   31.6177  -21.6815   35.5247 C   0  0  0  0  0  0  0  0  0  0  0  0
   32.2003  -20.8879   34.5313 C   0  0  0  0  0  0  0  0  0  0  0  0
   31.6021  -19.7573   34.0291 C   0  0  0  0  0  0  0  0  0  0  0  0
   30.3743  -19.3467   34.4885 C   0  0  0  0  0  0  0  0  0  0  0  0
   29.7957  -20.1373   35.4739 C   0  0  0  0  0  0  0  0  0  0  0  0
   30.3942  -21.2584   35.9720 C   0  0  0  0  0  0  0  0  0  0  0  0
   37.0675  -21.5582   38.6952 C   0  0  0  0  0  0  0  0  0  0  0  0
   37.8053  -22.7983   38.7583 C   0  0  0  0  0  0  0  0  0  0  0  0
   37.5792  -23.7588   39.7088 C   0  0  0  0  0  0  0  0  0  0  0  0
   38.3283  -24.9380   39.7364 C   0  0  0  0  0  0  0  0  0  0  0  0
   39.3085  -25.1046   38.7663 C   0  0  0  0  0  0  0  0  0  0  0  0
   39.5565  -24.1489   37.7914 C   0  0  0  0  0  0  0  0  0  0  0  0
   38.8030  -23.0073   37.7985 C   0  0  0  0  0  0  0  0  0  0  0  0
 20 21  1  0  0  0
 21 22  2  0  0  0
 21 18  1  0  0  0
 18 17  1  0  0  0
 17 16  1  0  0  0
 16 15  1  0  0  0
 15 12  1  0  0  0
 12  8  1  0  0  0
  8  9  1  0  0  0
  9 10  2  0  0  0
  9  1  1  0  0  0
  1  2  1  0  0  0
  2  3  1  0  0  0
  3  4  1  0  0  0
  4  5  1  0  0  0
  5  6  1  0  0  0
  6  7  2  0  0  0
  6 26  1  0  0  0
 26 39  1  0  0  0
 39 40  1  0  0  0
 40 41  2  0  0  0
 41 42  1  0  0  0
 42 43  2  0  0  0
 43 44  1  0  0  0
 44 45  2  0  0  0
 26 27  1  0  0  0
 27 28  1  0  0  0
 28 29  2  0  0  0
 28 31  1  0  0  0
 31 32  1  0  0  0
 32 33  1  0  0  0
 33 34  2  0  0  0
 34 35  1  0  0  0
 35 36  2  0  0  0
 36 37  1  0  0  0
 37 38  2  0  0  0
 12 13  1  0  0  0
 13 14  2  0  0  0
  5  1  1  0  0  0
 45 40  1  0  0  0
 38 33  1  0  0  0
 20 23  1  0  0  0
 20 24  1  0  0  0
 22 25  1  0  0  0
 18 19  1  0  0  0
  8 11  1  0  0  0
 27 30  1  0  0  0
M  END
> <minimizedAffinity>
-5.85397

> <CNNscore>
0.2706978917

> <CNNaffinity>
6.2122631073

> <CNN_VS>
1.6816465855

> <CNNaffinity_variance>
0.0429165736

$$$$
[H]N=C(N([H])[H])N([H])C([H])([H])C([H])([H])C([H])([H])[C@@]([H])(C([H])=O)N([H])C(=O)[C@@]1([H])N(C(=O)[C@]([H])(N([H])C(=O)OC([H])([H])c2c([H])c([H])c([H])c([H])c2[H])C([H])([H])c2c([H])c([H])c([H])c([H])c2[H])C([H])([H])C([H])([H])C1([H])[H]


 45 47  0  0  0  0  0  0  0  0999 V2000
   36.7493  -17.6348   35.7206 C   0  0  0  0  0  0  0  0  0  0  0  0
   36.0379  -17.7201   34.4126 C   0  0  0  0  0  0  0  0  0  0  0  0
   34.6363  -18.1373   34.8061 C   0  0  0  0  0  0  0  0  0  0  0  0
   34.7974  -18.7210   36.2026 C   0  0  0  0  0  0  0  0  0  0  0  0
   36.2398  -18.8142   36.4053 N   0  0  0  0  0  0  0  0  0  0  0  0
   37.0163  -19.7576   37.1016 C   0  0  0  0  0  0  0  0  0  0  0  0
   38.2771  -19.5205   37.1793 O   0  0  0  0  0  0  0  0  0  0  0  0
   36.5791  -15.0754   35.9456 N   0  0  0  0  0  0  0  0  0  0  0  0
   36.6019  -16.3872   36.4481 C   0  0  0  0  0  0  0  0  0  0  0  0
   36.4737  -16.5040   37.7226 O   0  0  0  0  0  0  0  0  0  0  0  0
   36.6650  -14.9312   34.9231 H   0  0  0  0  0  0  0  0  0  0  0  0
   36.4329  -13.9021   36.7787 C   0  0  0  0  0  0  0  0  0  0  0  0
   37.5100  -13.7239   37.7688 C   0  0  0  0  0  0  0  0  0  0  0  0
   38.6103  -13.3038   37.4658 O   0  0  0  0  0  0  0  0  0  0  0  0
   35.0684  -13.7570   37.3467 C   0  0  0  0  0  0  0  0  0  0  0  0
   34.3638  -12.4736   37.1165 C   0  0  0  0  0  0  0  0  0  0  0  0
   32.8742  -12.5090   37.1976 C   0  0  0  0  0  0  0  0  0  0  0  0
   32.4124  -13.4555   38.1898 N   0  0  0  0  0  0  0  0  0  0  0  0
   32.7053  -14.4480   38.0934 H   0  0  0  0  0  0  0  0  0  0  0  0
   30.1608  -13.1766   39.2542 N   0  0  0  0  0  0  0  0  0  0  0  0
   31.5922  -13.0813   39.2742 C   0  0  0  0  0  0  0  0  0  0  0  0
   32.1360  -12.6193   40.3734 N   0  0  0  0  0  0  0  0  0  0  0  0
   29.6179  -12.3985   38.8276 H   0  0  0  0  0  0  0  0  0  0  0  0
   29.6655  -14.0061   39.6602 H   0  0  0  0  0  0  0  0  0  0  0  0
   33.1830  -12.5501   40.3868 H   0  0  0  0  0  0  0  0  0  0  0  0
   36.4956  -20.9894   37.7438 C   0  0  0  0  0  0  0  0  0  0  0  0
   35.0432  -21.1085   37.5235 N   0  0  0  0  0  0  0  0  0  0  0  0
   34.4462  -22.3443   37.1844 C   0  0  0  0  0  0  0  0  0  0  0  0
   35.1869  -23.3899   37.0643 O   0  0  0  0  0  0  0  0  0  0  0  0
   34.4636  -20.2634   37.6161 H   0  0  0  0  0  0  0  0  0  0  0  0
   33.0947  -22.5346   36.9648 O   0  0  0  0  0  0  0  0  0  0  0  0
   32.6103  -22.7213   35.6665 C   0  0  0  0  0  0  0  0  0  0  0  0
   31.7486  -21.5651   35.3141 C   0  0  0  0  0  0  0  0  0  0  0  0
   30.4836  -21.3919   35.8850 C   0  0  0  0  0  0  0  0  0  0  0  0
   29.6606  -20.3359   35.5757 C   0  0  0  0  0  0  0  0  0  0  0  0
   30.0529  -19.3780   34.6726 C   0  0  0  0  0  0  0  0  0  0  0  0
   31.3107  -19.5502   34.1078 C   0  0  0  0  0  0  0  0  0  0  0  0
   32.1245  -20.6019   34.4158 C   0  0  0  0  0  0  0  0  0  0  0  0
   36.6283  -20.9604   39.2580 C   0  0  0  0  0  0  0  0  0  0  0  0
   37.4553  -21.9892   39.8441 C   0  0  0  0  0  0  0  0  0  0  0  0
   37.5099  -22.2316   41.1915 C   0  0  0  0  0  0  0  0  0  0  0  0
   38.3359  -23.2309   41.7127 C   0  0  0  0  0  0  0  0  0  0  0  0
   39.0981  -23.9718   40.8185 C   0  0  0  0  0  0  0  0  0  0  0  0
   39.0601  -23.7485   39.4495 C   0  0  0  0  0  0  0  0  0  0  0  0
   38.2401  -22.7603   38.9782 C   0  0  0  0  0  0  0  0  0  0  0  0
 20 21  1  0  0  0
 21 22  2  0  0  0
 21 18  1  0  0  0
 18 17  1  0  0  0
 17 16  1  0  0  0
 16 15  1  0  0  0
 15 12  1  0  0  0
 12  8  1  0  0  0
  8  9  1  0  0  0
  9 10  2  0  0  0
  9  1  1  0  0  0
  1  2  1  0  0  0
  2  3  1  0  0  0
  3  4  1  0  0  0
  4  5  1  0  0  0
  5  6  1  0  0  0
  6  7  2  0  0  0
  6 26  1  0  0  0
 26 39  1  0  0  0
 39 40  1  0  0  0
 40 41  2  0  0  0
 41 42  1  0  0  0
 42 43  2  0  0  0
 43 44  1  0  0  0
 44 45  2  0  0  0
 26 27  1  0  0  0
 27 28  1  0  0  0
 28 29  2  0  0  0
 28 31  1  0  0  0
 31 32  1  0  0  0
 32 33  1  0  0  0
 33 34  2  0  0  0
 34 35  1  0  0  0
 35 36  2  0  0  0
 36 37  1  0  0  0
 37 38  2  0  0  0
 12 13  1  0  0  0
 13 14  2  0  0  0
  5  1  1  0  0  0
 45 40  1  0  0  0
 38 33  1  0  0  0
 20 23  1  0  0  0
 20 24  1  0  0  0
 22 25  1  0  0  0
 18 19  1  0  0  0
  8 11  1  0  0  0
 27 30  1  0  0  0
M  END
> <minimizedAffinity>
-6.92288

> <CNNscore>
0.2664233744

> <CNNaffinity>
5.9633035660

> <CNN_VS>
1.5887634754

> <CNNaffinity_variance>
0.4332858026

$$$$
[H]N=C(N([H])[H])N([H])C([H])([H])C([H])([H])C([H])([H])[C@@]([H])(C([H])=O)N([H])C(=O)[C@@]1([H])N(C(=O)[C@]([H])(N([H])C(=O)OC([H])([H])c2c([H])c([H])c([H])c([H])c2[H])C([H])([H])c2c([H])c([H])c([H])c([H])c2[H])C([H])([H])C([H])([H])C1([H])[H]


 45 47  0  0  0  0  0  0  0  0999 V2000
   38.9527  -21.0570   36.5168 C   0  0  0  0  0  0  0  0  0  0  0  0
   38.8437  -21.9165   35.3028 C   0  0  0  0  0  0  0  0  0  0  0  0
   38.7949  -20.9127   34.1700 C   0  0  0  0  0  0  0  0  0  0  0  0
   38.3872  -19.6092   34.8418 C   0  0  0  0  0  0  0  0  0  0  0  0
   38.0153  -19.9889   36.2011 N   0  0  0  0  0  0  0  0  0  0  0  0
   37.0319  -19.4785   37.0671 C   0  0  0  0  0  0  0  0  0  0  0  0
   37.0012  -19.9675   38.2554 O   0  0  0  0  0  0  0  0  0  0  0  0
   40.6891  -19.4126   37.4713 N   0  0  0  0  0  0  0  0  0  0  0  0
   40.2906  -20.6190   36.8716 C   0  0  0  0  0  0  0  0  0  0  0  0
   41.2332  -21.4509   36.6000 O   0  0  0  0  0  0  0  0  0  0  0  0
   39.9638  -18.7163   37.7215 H   0  0  0  0  0  0  0  0  0  0  0  0
   42.0657  -19.0849   37.7711 C   0  0  0  0  0  0  0  0  0  0  0  0
   42.4335  -19.2521   39.1885 C   0  0  0  0  0  0  0  0  0  0  0  0
   43.2458  -18.5343   39.7397 O   0  0  0  0  0  0  0  0  0  0  0  0
   42.4954  -17.7872   37.1908 C   0  0  0  0  0  0  0  0  0  0  0  0
   43.7098  -17.7857   36.3412 C   0  0  0  0  0  0  0  0  0  0  0  0
   43.5327  -17.3381   34.9287 C   0  0  0  0  0  0  0  0  0  0  0  0
   42.1904  -17.5882   34.4501 N   0  0  0  0  0  0  0  0  0  0  0  0
   41.4560  -16.8837   34.6612 H   0  0  0  0  0  0  0  0  0  0  0  0
   42.3278  -20.0544   34.0262 N   0  0  0  0  0  0  0  0  0  0  0  0
   41.8488  -18.7393   33.7105 C   0  0  0  0  0  0  0  0  0  0  0  0
   41.0523  -18.6359   32.6750 N   0  0  0  0  0  0  0  0  0  0  0  0
   43.2622  -20.3405   33.6696 H   0  0  0  0  0  0  0  0  0  0  0  0
   41.7549  -20.7185   34.5996 H   0  0  0  0  0  0  0  0  0  0  0  0
   40.7026  -17.6736   32.4452 H   0  0  0  0  0  0  0  0  0  0  0  0
   36.0403  -18.4323   36.7159 C   0  0  0  0  0  0  0  0  0  0  0  0
   35.1337  -18.9182   35.6603 N   0  0  0  0  0  0  0  0  0  0  0  0
   33.9423  -19.6127   35.9716 C   0  0  0  0  0  0  0  0  0  0  0  0
   33.6417  -19.8269   37.2045 O   0  0  0  0  0  0  0  0  0  0  0  0
   35.3894  -18.7461   34.6786 H   0  0  0  0  0  0  0  0  0  0  0  0
   33.0433  -20.0960   35.0393 O   0  0  0  0  0  0  0  0  0  0  0  0
   31.7088  -19.6794   35.0638 C   0  0  0  0  0  0  0  0  0  0  0  0
   30.8462  -20.8718   35.2575 C   0  0  0  0  0  0  0  0  0  0  0  0
   29.4907  -20.7522   35.5806 C   0  0  0  0  0  0  0  0  0  0  0  0
   28.6677  -21.8360   35.7714 C   0  0  0  0  0  0  0  0  0  0  0  0
   29.1493  -23.1165   35.6478 C   0  0  0  0  0  0  0  0  0  0  0  0
   30.4957  -23.2339   35.3248 C   0  0  0  0  0  0  0  0  0  0  0  0
   31.3106  -22.1549   35.1383 C   0  0  0  0  0  0  0  0  0  0  0  0
   36.6832  -17.2008   36.0986 C   0  0  0  0  0  0  0  0  0  0  0  0
   36.0974  -15.9300   36.4565 C   0  0  0  0  0  0  0  0  0  0  0  0
   34.7778  -15.6263   36.2476 C   0  0  0  0  0  0  0  0  0  0  0  0
   34.2597  -14.3772   36.5997 C   0  0  0  0  0  0  0  0  0  0  0  0
   35.1271  -13.4547   37.1708 C   0  0  0  0  0  0  0  0  0  0  0  0
   36.4669  -13.7374   37.3953 C   0  0  0  0  0  0  0  0  0  0  0  0
   36.9367  -14.9706   37.0355 C   0  0  0  0  0  0  0  0  0  0  0  0
 20 21  1  0  0  0
 21 22  2  0  0  0
 21 18  1  0  0  0
 18 17  1  0  0  0
 17 16  1  0  0  0
 16 15  1  0  0  0
 15 12  1  0  0  0
 12  8  1  0  0  0
  8  9  1  0  0  0
  9 10  2  0  0  0
  9  1  1  0  0  0
  1  2  1  0  0  0
  2  3  1  0  0  0
  3  4  1  0  0  0
  4  5  1  0  0  0
  5  6  1  0  0  0
  6  7  2  0  0  0
  6 26  1  0  0  0
 26 39  1  0  0  0
 39 40  1  0  0  0
 40 41  2  0  0  0
 41 42  1  0  0  0
 42 43  2  0  0  0
 43 44  1  0  0  0
 44 45  2  0  0  0
 26 27  1  0  0  0
 27 28  1  0  0  0
 28 29  2  0  0  0
 28 31  1  0  0  0
 31 32  1  0  0  0
 32 33  1  0  0  0
 33 34  2  0  0  0
 34 35  1  0  0  0
 35 36  2  0  0  0
 36 37  1  0  0  0
 37 38  2  0  0  0
 12 13  1  0  0  0
 13 14  2  0  0  0
  5  1  1  0  0  0
 45 40  1  0  0  0
 38 33  1  0  0  0
 20 23  1  0  0  0
 20 24  1  0  0  0
 22 25  1  0  0  0
 18 19  1  0  0  0
  8 11  1  0  0  0
 27 30  1  0  0  0
M  END
> <minimizedAffinity>
-6.95545

> <CNNscore>
0.2315589786

> <CNNaffinity>
5.7967166901

> <CNN_VS>
1.3422818184

> <CNNaffinity_variance>
0.6007998586

$$$$
[H]N=C(N([H])[H])N([H])C([H])([H])C([H])([H])C([H])([H])[C@@]([H])(C([H])=O)N([H])C(=O)[C@@]1([H])N(C(=O)[C@]([H])(N([H])C(=O)OC([H])([H])c2c([H])c([H])c([H])c([H])c2[H])C([H])([H])c2c([H])c([H])c([H])c([H])c2[H])C([H])([H])C([H])([H])C1([H])[H]


 45 47  0  0  0  0  0  0  0  0999 V2000
   36.9744  -18.0327   35.8379 C   0  0  0  0  0  0  0  0  0  0  0  0
   37.0091  -18.0536   34.3470 C   0  0  0  0  0  0  0  0  0  0  0  0
   35.5573  -18.2601   33.9688 C   0  0  0  0  0  0  0  0  0  0  0  0
   34.9178  -18.8221   35.2305 C   0  0  0  0  0  0  0  0  0  0  0  0
   36.0374  -19.1102   36.1213 N   0  0  0  0  0  0  0  0  0  0  0  0
   36.2262  -20.1333   37.0675 C   0  0  0  0  0  0  0  0  0  0  0  0
   37.2975  -20.0726   37.7750 O   0  0  0  0  0  0  0  0  0  0  0  0
   36.6979  -15.4731   35.8839 N   0  0  0  0  0  0  0  0  0  0  0  0
   36.6520  -16.7573   36.4518 C   0  0  0  0  0  0  0  0  0  0  0  0
   36.2726  -16.8166   37.6794 O   0  0  0  0  0  0  0  0  0  0  0  0
   36.9844  -15.3758   34.8929 H   0  0  0  0  0  0  0  0  0  0  0  0
   36.3573  -14.2666   36.6054 C   0  0  0  0  0  0  0  0  0  0  0  0
   37.3096  -13.9093   37.6721 C   0  0  0  0  0  0  0  0  0  0  0  0
   38.3001  -13.2356   37.4621 O   0  0  0  0  0  0  0  0  0  0  0  0
   34.9361  -14.2257   37.0341 C   0  0  0  0  0  0  0  0  0  0  0  0
   34.3677  -12.9055   37.3958 C   0  0  0  0  0  0  0  0  0  0  0  0
   32.8818  -12.8297   37.5090 C   0  0  0  0  0  0  0  0  0  0  0  0
   32.4547  -11.6182   38.1750 N   0  0  0  0  0  0  0  0  0  0  0  0
   32.7219  -11.4866   39.1708 H   0  0  0  0  0  0  0  0  0  0  0  0
   32.0808   -9.2349   37.4965 N   0  0  0  0  0  0  0  0  0  0  0  0
   31.7016  -10.6183   37.5256 C   0  0  0  0  0  0  0  0  0  0  0  0
   30.5921  -10.9376   36.9056 N   0  0  0  0  0  0  0  0  0  0  0  0
   31.8210   -8.6325   38.3038 H   0  0  0  0  0  0  0  0  0  0  0  0
   32.6050   -8.8319   36.6835 H   0  0  0  0  0  0  0  0  0  0  0  0
   30.3159  -11.9498   36.9277 H   0  0  0  0  0  0  0  0  0  0  0  0
   35.2938  -21.2624   37.3062 C   0  0  0  0  0  0  0  0  0  0  0  0
   33.9304  -20.7591   37.5510 N   0  0  0  0  0  0  0  0  0  0  0  0
   32.8115  -21.2977   36.8753 C   0  0  0  0  0  0  0  0  0  0  0  0
   32.9862  -22.2488   36.0260 O   0  0  0  0  0  0  0  0  0  0  0  0
   33.8057  -19.9939   38.2275 H   0  0  0  0  0  0  0  0  0  0  0  0
   31.5056  -20.8805   37.0527 O   0  0  0  0  0  0  0  0  0  0  0  0
   30.4885  -21.3768   36.2316 C   0  0  0  0  0  0  0  0  0  0  0  0
   29.4872  -22.0644   37.0849 C   0  0  0  0  0  0  0  0  0  0  0  0
   28.1133  -21.9115   36.8722 C   0  0  0  0  0  0  0  0  0  0  0  0
   27.1621  -22.5298   37.6475 C   0  0  0  0  0  0  0  0  0  0  0  0
   27.5255  -23.3478   38.6896 C   0  0  0  0  0  0  0  0  0  0  0  0
   28.8907  -23.5004   38.8983 C   0  0  0  0  0  0  0  0  0  0  0  0
   29.8327  -22.8826   38.1276 C   0  0  0  0  0  0  0  0  0  0  0  0
   35.6241  -22.0360   38.5725 C   0  0  0  0  0  0  0  0  0  0  0  0
   34.8930  -21.6566   39.7589 C   0  0  0  0  0  0  0  0  0  0  0  0
   35.1375  -20.5015   40.4541 C   0  0  0  0  0  0  0  0  0  0  0  0
   34.4113  -20.1837   41.6048 C   0  0  0  0  0  0  0  0  0  0  0  0
   33.4317  -21.0772   42.0190 C   0  0  0  0  0  0  0  0  0  0  0  0
   33.1625  -22.2527   41.3324 C   0  0  0  0  0  0  0  0  0  0  0  0
   33.8959  -22.5291   40.2113 C   0  0  0  0  0  0  0  0  0  0  0  0
 20 21  1  0  0  0
 21 22  2  0  0  0
 21 18  1  0  0  0
 18 17  1  0  0  0
 17 16  1  0  0  0
 16 15  1  0  0  0
 15 12  1  0  0  0
 12  8  1  0  0  0
  8  9  1  0  0  0
  9 10  2  0  0  0
  9  1  1  0  0  0
  1  2  1  0  0  0
  2  3  1  0  0  0
  3  4  1  0  0  0
  4  5  1  0  0  0
  5  6  1  0  0  0
  6  7  2  0  0  0
  6 26  1  0  0  0
 26 39  1  0  0  0
 39 40  1  0  0  0
 40 41  2  0  0  0
 41 42  1  0  0  0
 42 43  2  0  0  0
 43 44  1  0  0  0
 44 45  2  0  0  0
 26 27  1  0  0  0
 27 28  1  0  0  0
 28 29  2  0  0  0
 28 31  1  0  0  0
 31 32  1  0  0  0
 32 33  1  0  0  0
 33 34  2  0  0  0
 34 35  1  0  0  0
 35 36  2  0  0  0
 36 37  1  0  0  0
 37 38  2  0  0  0
 12 13  1  0  0  0
 13 14  2  0  0  0
  5  1  1  0  0  0
 45 40  1  0  0  0
 38 33  1  0  0  0
 20 23  1  0  0  0
 20 24  1  0  0  0
 22 25  1  0  0  0
 18 19  1  0  0  0
  8 11  1  0  0  0
 27 30  1  0  0  0
M  END
> <minimizedAffinity>
-6.68440

> <CNNscore>
0.2274996489

> <CNNaffinity>
5.8154706955

> <CNN_VS>
1.3230175972

> <CNNaffinity_variance>
0.5118513703

$$$$
[H]N=C(N([H])[H])N([H])C([H])([H])C([H])([H])C([H])([H])[C@@]([H])(C([H])=O)N([H])C(=O)[C@@]1([H])N(C(=O)[C@]([H])(N([H])C(=O)OC([H])([H])c2c([H])c([H])c([H])c([H])c2[H])C([H])([H])c2c([H])c([H])c([H])c([H])c2[H])C([H])([H])C([H])([H])C1([H])[H]


 45 47  0  0  0  0  0  0  0  0999 V2000
   34.5772  -21.4008   36.6402 C   0  0  0  0  0  0  0  0  0  0  0  0
   35.2895  -22.4509   37.4239 C   0  0  0  0  0  0  0  0  0  0  0  0
   35.6227  -21.7483   38.7233 C   0  0  0  0  0  0  0  0  0  0  0  0
   35.5223  -20.2677   38.3851 C   0  0  0  0  0  0  0  0  0  0  0  0
   35.3827  -20.2240   36.9329 N   0  0  0  0  0  0  0  0  0  0  0  0
   35.8516  -19.2953   35.9867 C   0  0  0  0  0  0  0  0  0  0  0  0
   35.4876  -19.4813   34.7681 O   0  0  0  0  0  0  0  0  0  0  0  0
   32.1572  -22.2449   36.8883 N   0  0  0  0  0  0  0  0  0  0  0  0
   33.1571  -21.2581   36.9060 C   0  0  0  0  0  0  0  0  0  0  0  0
   32.7678  -20.0675   37.1979 O   0  0  0  0  0  0  0  0  0  0  0  0
   32.4246  -23.2223   36.6719 H   0  0  0  0  0  0  0  0  0  0  0  0
   30.7632  -21.9762   37.1652 C   0  0  0  0  0  0  0  0  0  0  0  0
   30.1288  -22.9453   38.0767 C   0  0  0  0  0  0  0  0  0  0  0  0
   29.5289  -22.6021   39.0773 O   0  0  0  0  0  0  0  0  0  0  0  0
   29.9691  -21.6975   35.9416 C   0  0  0  0  0  0  0  0  0  0  0  0
   29.3765  -20.3462   35.8028 C   0  0  0  0  0  0  0  0  0  0  0  0
   29.8669  -19.5190   34.6618 C   0  0  0  0  0  0  0  0  0  0  0  0
   31.0216  -18.7282   35.0286 N   0  0  0  0  0  0  0  0  0  0  0  0
   30.9483  -18.1118   35.8622 H   0  0  0  0  0  0  0  0  0  0  0  0
   32.6767  -19.9168   33.5697 N   0  0  0  0  0  0  0  0  0  0  0  0
   32.2318  -18.7683   34.3056 C   0  0  0  0  0  0  0  0  0  0  0  0
   33.0132  -17.7165   34.2841 N   0  0  0  0  0  0  0  0  0  0  0  0
   33.1835  -20.6676   34.0811 H   0  0  0  0  0  0  0  0  0  0  0  0
   32.5017  -20.0039   32.5401 H   0  0  0  0  0  0  0  0  0  0  0  0
   32.6866  -16.8773   34.8227 H   0  0  0  0  0  0  0  0  0  0  0  0
   36.7236  -18.1331   36.2862 C   0  0  0  0  0  0  0  0  0  0  0  0
   38.0362  -18.5893   36.7773 N   0  0  0  0  0  0  0  0  0  0  0  0
   39.0834  -18.9212   35.8875 C   0  0  0  0  0  0  0  0  0  0  0  0
   38.8872  -18.8240   34.6193 O   0  0  0  0  0  0  0  0  0  0  0  0
   38.1774  -18.6690   37.7934 H   0  0  0  0  0  0  0  0  0  0  0  0
   40.3390  -19.3535   36.2717 O   0  0  0  0  0  0  0  0  0  0  0  0
   40.4760  -20.3392   37.2539 C   0  0  0  0  0  0  0  0  0  0  0  0
   41.3192  -19.7990   38.3495 C   0  0  0  0  0  0  0  0  0  0  0  0
   41.0719  -20.1146   39.6895 C   0  0  0  0  0  0  0  0  0  0  0  0
   41.8305  -19.6266   40.7261 C   0  0  0  0  0  0  0  0  0  0  0  0
   42.8930  -18.7891   40.4881 C   0  0  0  0  0  0  0  0  0  0  0  0
   43.1387  -18.4781   39.1563 C   0  0  0  0  0  0  0  0  0  0  0  0
   42.3815  -18.9629   38.1294 C   0  0  0  0  0  0  0  0  0  0  0  0
   36.1902  -17.2799   37.4258 C   0  0  0  0  0  0  0  0  0  0  0  0
   36.1657  -15.8542   37.1959 C   0  0  0  0  0  0  0  0  0  0  0  0
   37.1247  -15.0002   37.6736 C   0  0  0  0  0  0  0  0  0  0  0  0
   37.0508  -13.6253   37.4354 C   0  0  0  0  0  0  0  0  0  0  0  0
   35.9735  -13.1538   36.6960 C   0  0  0  0  0  0  0  0  0  0  0  0
   34.9900  -13.9970   36.1988 C   0  0  0  0  0  0  0  0  0  0  0  0
   35.0968  -15.3365   36.4545 C   0  0  0  0  0  0  0  0  0  0  0  0
 20 21  1  0  0  0
 21 22  2  0  0  0
 21 18  1  0  0  0
 18 17  1  0  0  0
 17 16  1  0  0  0
 16 15  1  0  0  0
 15 12  1  0  0  0
 12  8  1  0  0  0
  8  9  1  0  0  0
  9 10  2  0  0  0
  9  1  1  0  0  0
  1  2  1  0  0  0
  2  3  1  0  0  0
  3  4  1  0  0  0
  4  5  1  0  0  0
  5  6  1  0  0  0
  6  7  2  0  0  0
  6 26  1  0  0  0
 26 39  1  0  0  0
 39 40  1  0  0  0
 40 41  2  0  0  0
 41 42  1  0  0  0
 42 43  2  0  0  0
 43 44  1  0  0  0
 44 45  2  0  0  0
 26 27  1  0  0  0
 27 28  1  0  0  0
 28 29  2  0  0  0
 28 31  1  0  0  0
 31 32  1  0  0  0
 32 33  1  0  0  0
 33 34  2  0  0  0
 34 35  1  0  0  0
 35 36  2  0  0  0
 36 37  1  0  0  0
 37 38  2  0  0  0
 12 13  1  0  0  0
 13 14  2  0  0  0
  5  1  1  0  0  0
 45 40  1  0  0  0
 38 33  1  0  0  0
 20 23  1  0  0  0
 20 24  1  0  0  0
 22 25  1  0  0  0
 18 19  1  0  0  0
  8 11  1  0  0  0
 27 30  1  0  0  0
M  END
> <minimizedAffinity>
-7.01236

> <CNNscore>
0.1966863573

> <CNNaffinity>
5.3461217880

> <CNN_VS>
1.0515092611

> <CNNaffinity_variance>
1.1743519306

$$$$
[H]c1nc2c(-c3c([H])c([H])c([H])c4c([H])nc([H])c([H])c34)c([H])nn2c([H])c1-c1c([H])c([H])c(N2C([H])([H])C([H])([H])N([H])C([H])([H])C2([H])[H])c([H])c1[H]


 32 37  0  0  0  0  0  0  0  0999 V2000
   35.0654  -21.1908   41.9912 C   0  0  0  0  0  0  0  0  0  0  0  0
   33.8957  -21.9018   41.8320 C   0  0  0  0  0  0  0  0  0  0  0  0
   32.7384  -21.3163   42.2141 N   0  0  0  0  0  0  0  0  0  0  0  0
   32.7148  -20.0613   42.7426 C   0  0  0  0  0  0  0  0  0  0  0  0
   31.6708  -19.2714   43.1660 C   0  0  0  0  0  0  0  0  0  0  0  0
   32.1895  -18.0868   43.5862 C   0  0  0  0  0  0  0  0  0  0  0  0
   33.5184  -18.1477   43.4234 N   0  0  0  0  0  0  0  0  0  0  0  0
   33.8369  -19.3516   42.9090 N   0  0  0  0  0  0  0  0  0  0  0  0
   34.9878  -19.9241   42.5332 C   0  0  0  0  0  0  0  0  0  0  0  0
   30.2587  -19.6573   43.1696 C   0  0  0  0  0  0  0  0  0  0  0  0
   29.7891  -20.8956   43.5026 C   0  0  0  0  0  0  0  0  0  0  0  0
   28.4241  -21.1332   43.5093 C   0  0  0  0  0  0  0  0  0  0  0  0
   27.5408  -20.1081   43.1773 C   0  0  0  0  0  0  0  0  0  0  0  0
   27.9995  -18.8500   42.8379 C   0  0  0  0  0  0  0  0  0  0  0  0
   27.1282  -17.8136   42.4752 C   0  0  0  0  0  0  0  0  0  0  0  0
   27.6482  -16.6064   42.1264 N   0  0  0  0  0  0  0  0  0  0  0  0
   28.9682  -16.3674   42.1174 C   0  0  0  0  0  0  0  0  0  0  0  0
   29.8242  -17.3895   42.4752 C   0  0  0  0  0  0  0  0  0  0  0  0
   29.3669  -18.6458   42.8399 C   0  0  0  0  0  0  0  0  0  0  0  0
   38.8703  -22.7075   40.8290 C   0  0  0  0  0  0  0  0  0  0  0  0
   38.4342  -22.8452   42.1440 C   0  0  0  0  0  0  0  0  0  0  0  0
   37.1859  -22.3363   42.4881 C   0  0  0  0  0  0  0  0  0  0  0  0
   36.3551  -21.7028   41.6006 C   0  0  0  0  0  0  0  0  0  0  0  0
   36.8217  -21.5816   40.2867 C   0  0  0  0  0  0  0  0  0  0  0  0
   38.0491  -22.0681   39.9000 C   0  0  0  0  0  0  0  0  0  0  0  0
   42.4034  -23.5474   41.0410 C   0  0  0  0  0  0  0  0  0  0  0  0
   40.9698  -23.9435   41.3979 C   0  0  0  0  0  0  0  0  0  0  0  0
   40.1393  -23.1892   40.4538 N   0  0  0  0  0  0  0  0  0  0  0  0
   40.6493  -22.9710   39.1347 C   0  0  0  0  0  0  0  0  0  0  0  0
   41.7660  -23.8822   38.7435 C   0  0  0  0  0  0  0  0  0  0  0  0
   42.7133  -24.1681   39.7705 N   0  0  0  0  0  0  0  0  0  0  0  0
   43.6807  -23.8390   39.5168 H   0  0  0  0  0  0  0  0  0  0  0  0
 26 27  1  0  0  0
 27 28  1  0  0  0
 28 29  1  0  0  0
 29 30  1  0  0  0
 30 31  1  0  0  0
 28 20  1  0  0  0
 20 21  2  0  0  0
 21 22  1  0  0  0
 22 23  2  0  0  0
 23 24  1  0  0  0
 24 25  2  0  0  0
 23  1  1  0  0  0
  1  2  1  0  0  0
  2  3  2  0  0  0
  3  4  1  0  0  0
  4  5  2  0  0  0
  5  6  1  0  0  0
  6  7  2  0  0  0
  7  8  1  0  0  0
  8  9  1  0  0  0
  5 10  1  0  0  0
 10 11  2  0  0  0
 11 12  1  0  0  0
 12 13  2  0  0  0
 13 14  1  0  0  0
 14 15  2  0  0  0
 15 16  1  0  0  0
 16 17  2  0  0  0
 17 18  1  0  0  0
 18 19  2  0  0  0
 31 26  1  0  0  0
 25 20  1  0  0  0
  9  1  2  0  0  0
 19 10  1  0  0  0
  8  4  1  0  0  0
 19 14  1  0  0  0
 31 32  1  0  0  0
M  END
> <minimizedAffinity>
-2.70976

> <CNNscore>
0.7000750899

> <CNNaffinity>
5.3658032417

> <CNN_VS>
3.7564651966

> <CNNaffinity_variance>
0.2433610857

$$$$
[H]c1nc2c(-c3c([H])c([H])c([H])c4c([H])nc([H])c([H])c34)c([H])nn2c([H])c1-c1c([H])c([H])c(N2C([H])([H])C([H])([H])N([H])C([H])([H])C2([H])[H])c([H])c1[H]


 32 37  0  0  0  0  0  0  0  0999 V2000
   36.7718  -21.7659   38.9373 C   0  0  0  0  0  0  0  0  0  0  0  0
   37.8714  -21.2573   38.2804 C   0  0  0  0  0  0  0  0  0  0  0  0
   38.9881  -21.0145   39.0031 N   0  0  0  0  0  0  0  0  0  0  0  0
   39.0385  -21.2603   40.3417 C   0  0  0  0  0  0  0  0  0  0  0  0
   40.0576  -21.1192   41.2553 C   0  0  0  0  0  0  0  0  0  0  0  0
   39.5922  -21.5320   42.4644 C   0  0  0  0  0  0  0  0  0  0  0  0
   38.3198  -21.9180   42.2966 N   0  0  0  0  0  0  0  0  0  0  0  0
   37.9839  -21.7521   41.0025 N   0  0  0  0  0  0  0  0  0  0  0  0
   36.8737  -21.9955   40.2942 C   0  0  0  0  0  0  0  0  0  0  0  0
   41.3959  -20.6023   40.9642 C   0  0  0  0  0  0  0  0  0  0  0  0
   41.7401  -19.2808   40.9693 C   0  0  0  0  0  0  0  0  0  0  0  0
   43.0517  -18.9120   40.7179 C   0  0  0  0  0  0  0  0  0  0  0  0
   44.0098  -19.8909   40.4626 C   0  0  0  0  0  0  0  0  0  0  0  0
   43.6782  -21.2319   40.4535 C   0  0  0  0  0  0  0  0  0  0  0  0
   44.6219  -22.2296   40.1725 C   0  0  0  0  0  0  0  0  0  0  0  0
   44.2221  -23.5292   40.1539 N   0  0  0  0  0  0  0  0  0  0  0  0
   42.9545  -23.8953   40.3964 C   0  0  0  0  0  0  0  0  0  0  0  0
   42.0271  -22.9111   40.6731 C   0  0  0  0  0  0  0  0  0  0  0  0
   42.3609  -21.5665   40.7072 C   0  0  0  0  0  0  0  0  0  0  0  0
   33.1137  -22.7018   36.9700 C   0  0  0  0  0  0  0  0  0  0  0  0
   34.1455  -23.6357   37.0097 C   0  0  0  0  0  0  0  0  0  0  0  0
   35.3272  -23.2948   37.6601 C   0  0  0  0  0  0  0  0  0  0  0  0
   35.5351  -22.0840   38.2685 C   0  0  0  0  0  0  0  0  0  0  0  0
   34.4784  -21.1680   38.2122 C   0  0  0  0  0  0  0  0  0  0  0  0
   33.2922  -21.4598   37.5796 C   0  0  0  0  0  0  0  0  0  0  0  0
   29.6054  -22.5692   36.0175 C   0  0  0  0  0  0  0  0  0  0  0  0
   30.9943  -21.9441   35.8776 C   0  0  0  0  0  0  0  0  0  0  0  0
   31.9141  -23.0059   36.2980 N   0  0  0  0  0  0  0  0  0  0  0  0
   31.5646  -24.3592   35.9910 C   0  0  0  0  0  0  0  0  0  0  0  0
   30.5296  -24.5052   34.9243 C   0  0  0  0  0  0  0  0  0  0  0  0
   29.4712  -23.5501   34.9614 N   0  0  0  0  0  0  0  0  0  0  0  0
   28.5338  -24.0064   35.1087 H   0  0  0  0  0  0  0  0  0  0  0  0
 26 27  1  0  0  0
 27 28  1  0  0  0
 28 29  1  0  0  0
 29 30  1  0  0  0
 30 31  1  0  0  0
 28 20  1  0  0  0
 20 21  2  0  0  0
 21 22  1  0  0  0
 22 23  2  0  0  0
 23 24  1  0  0  0
 24 25  2  0  0  0
 23  1  1  0  0  0
  1  2  1  0  0  0
  2  3  2  0  0  0
  3  4  1  0  0  0
  4  5  2  0  0  0
  5  6  1  0  0  0
  6  7  2  0  0  0
  7  8  1  0  0  0
  8  9  1  0  0  0
  5 10  1  0  0  0
 10 11  2  0  0  0
 11 12  1  0  0  0
 12 13  2  0  0  0
 13 14  1  0  0  0
 14 15  2  0  0  0
 15 16  1  0  0  0
 16 17  2  0  0  0
 17 18  1  0  0  0
 18 19  2  0  0  0
 31 26  1  0  0  0
 25 20  1  0  0  0
  9  1  2  0  0  0
 19 10  1  0  0  0
  8  4  1  0  0  0
 19 14  1  0  0  0
 31 32  1  0  0  0
M  END
> <minimizedAffinity>
-4.22167

> <CNNscore>
0.6849750280

> <CNNaffinity>
5.1884860992

> <CNN_VS>
3.5539834499

> <CNNaffinity_variance>
0.0557212308

$$$$
[H]c1nc2c(-c3c([H])c([H])c([H])c4c([H])nc([H])c([H])c34)c([H])nn2c([H])c1-c1c([H])c([H])c(N2C([H])([H])C([H])([H])N([H])C([H])([H])C2([H])[H])c([H])c1[H]


 32 37  0  0  0  0  0  0  0  0999 V2000
   36.9353  -22.1543   39.2562 C   0  0  0  0  0  0  0  0  0  0  0  0
   38.1199  -22.6141   38.7229 C   0  0  0  0  0  0  0  0  0  0  0  0
   39.2482  -22.4593   39.4517 N   0  0  0  0  0  0  0  0  0  0  0  0
   39.2290  -21.8679   40.6784 C   0  0  0  0  0  0  0  0  0  0  0  0
   40.2309  -21.6345   41.5922 C   0  0  0  0  0  0  0  0  0  0  0  0
   39.6728  -21.0334   42.6766 C   0  0  0  0  0  0  0  0  0  0  0  0
   38.3611  -20.9024   42.4350 N   0  0  0  0  0  0  0  0  0  0  0  0
   38.0922  -21.4116   41.2169 N   0  0  0  0  0  0  0  0  0  0  0  0
   36.9699  -21.5609   40.5016 C   0  0  0  0  0  0  0  0  0  0  0  0
   41.6444  -21.9681   41.4089 C   0  0  0  0  0  0  0  0  0  0  0  0
   42.2033  -23.1811   41.6941 C   0  0  0  0  0  0  0  0  0  0  0  0
   43.5485  -23.3939   41.4402 C   0  0  0  0  0  0  0  0  0  0  0  0
   44.3212  -22.3703   40.8955 C   0  0  0  0  0  0  0  0  0  0  0  0
   43.7714  -21.1376   40.6014 C   0  0  0  0  0  0  0  0  0  0  0  0
   44.5380  -20.0871   40.0781 C   0  0  0  0  0  0  0  0  0  0  0  0
   43.9392  -18.8904   39.8364 N   0  0  0  0  0  0  0  0  0  0  0  0
   42.6374  -18.6755   40.0789 C   0  0  0  0  0  0  0  0  0  0  0  0
   41.8845  -19.7116   40.5939 C   0  0  0  0  0  0  0  0  0  0  0  0
   42.4267  -20.9572   40.8675 C   0  0  0  0  0  0  0  0  0  0  0  0
   33.1932  -22.5455   37.2634 C   0  0  0  0  0  0  0  0  0  0  0  0
   34.0996  -21.5673   36.8638 C   0  0  0  0  0  0  0  0  0  0  0  0
   35.3121  -21.4677   37.5388 C   0  0  0  0  0  0  0  0  0  0  0  0
   35.6679  -22.2833   38.5816 C   0  0  0  0  0  0  0  0  0  0  0  0
   34.7358  -23.2570   38.9581 C   0  0  0  0  0  0  0  0  0  0  0  0
   33.5240  -23.3926   38.3212 C   0  0  0  0  0  0  0  0  0  0  0  0
   30.6796  -23.5859   34.8482 C   0  0  0  0  0  0  0  0  0  0  0  0
   31.4750  -23.9465   36.1039 C   0  0  0  0  0  0  0  0  0  0  0  0
   31.9467  -22.6566   36.6175 N   0  0  0  0  0  0  0  0  0  0  0  0
   31.0960  -21.5171   36.4575 C   0  0  0  0  0  0  0  0  0  0  0  0
   29.6680  -21.8454   36.1690 C   0  0  0  0  0  0  0  0  0  0  0  0
   29.4575  -22.9461   35.2869 N   0  0  0  0  0  0  0  0  0  0  0  0
   28.9522  -22.6568   34.4096 H   0  0  0  0  0  0  0  0  0  0  0  0
 26 27  1  0  0  0
 27 28  1  0  0  0
 28 29  1  0  0  0
 29 30  1  0  0  0
 30 31  1  0  0  0
 28 20  1  0  0  0
 20 21  2  0  0  0
 21 22  1  0  0  0
 22 23  2  0  0  0
 23 24  1  0  0  0
 24 25  2  0  0  0
 23  1  1  0  0  0
  1  2  1  0  0  0
  2  3  2  0  0  0
  3  4  1  0  0  0
  4  5  2  0  0  0
  5  6  1  0  0  0
  6  7  2  0  0  0
  7  8  1  0  0  0
  8  9  1  0  0  0
  5 10  1  0  0  0
 10 11  2  0  0  0
 11 12  1  0  0  0
 12 13  2  0  0  0
 13 14  1  0  0  0
 14 15  2  0  0  0
 15 16  1  0  0  0
 16 17  2  0  0  0
 17 18  1  0  0  0
 18 19  2  0  0  0
 31 26  1  0  0  0
 25 20  1  0  0  0
  9  1  2  0  0  0
 19 10  1  0  0  0
  8  4  1  0  0  0
 19 14  1  0  0  0
 31 32  1  0  0  0
M  END
> <minimizedAffinity>
-3.78381

> <CNNscore>
0.6602730155

> <CNNaffinity>
5.1999096870

> <CNN_VS>
3.4333600998

> <CNNaffinity_variance>
0.0508962274

$$$$
[H]c1nc2c(-c3c([H])c([H])c([H])c4c([H])nc([H])c([H])c34)c([H])nn2c([H])c1-c1c([H])c([H])c(N2C([H])([H])C([H])([H])N([H])C([H])([H])C2([H])[H])c([H])c1[H]


 32 37  0  0  0  0  0  0  0  0999 V2000
   35.2368  -21.9562   39.0006 C   0  0  0  0  0  0  0  0  0  0  0  0
   34.4489  -20.8994   38.5987 C   0  0  0  0  0  0  0  0  0  0  0  0
   33.1735  -21.1597   38.2329 N   0  0  0  0  0  0  0  0  0  0  0  0
   32.6693  -22.4247   38.2559 C   0  0  0  0  0  0  0  0  0  0  0  0
   31.4167  -22.9108   37.9599 C   0  0  0  0  0  0  0  0  0  0  0  0
   31.4308  -24.2538   38.1724 C   0  0  0  0  0  0  0  0  0  0  0  0
   32.6610  -24.5833   38.5898 N   0  0  0  0  0  0  0  0  0  0  0  0
   33.4145  -23.4675   38.6403 N   0  0  0  0  0  0  0  0  0  0  0  0
   34.6791  -23.2185   39.0042 C   0  0  0  0  0  0  0  0  0  0  0  0
   30.2838  -22.1127   37.4882 C   0  0  0  0  0  0  0  0  0  0  0  0
   29.0231  -22.1618   38.0110 C   0  0  0  0  0  0  0  0  0  0  0  0
   28.0383  -21.3271   37.5080 C   0  0  0  0  0  0  0  0  0  0  0  0
   28.3405  -20.4438   36.4738 C   0  0  0  0  0  0  0  0  0  0  0  0
   29.6105  -20.3818   35.9336 C   0  0  0  0  0  0  0  0  0  0  0  0
   29.9272  -19.5190   34.8752 C   0  0  0  0  0  0  0  0  0  0  0  0
   31.1909  -19.5275   34.3728 N   0  0  0  0  0  0  0  0  0  0  0  0
   32.1507  -20.3320   34.8539 C   0  0  0  0  0  0  0  0  0  0  0  0
   31.8364  -21.1805   35.8963 C   0  0  0  0  0  0  0  0  0  0  0  0
   30.5701  -21.2284   36.4572 C   0  0  0  0  0  0  0  0  0  0  0  0
   39.2684  -21.4871   40.2866 C   0  0  0  0  0  0  0  0  0  0  0  0
   38.7915  -20.7589   39.2001 C   0  0  0  0  0  0  0  0  0  0  0  0
   37.4690  -20.9388   38.8070 C   0  0  0  0  0  0  0  0  0  0  0  0
   36.6028  -21.7976   39.4326 C   0  0  0  0  0  0  0  0  0  0  0  0
   37.1123  -22.5137   40.5219 C   0  0  0  0  0  0  0  0  0  0  0  0
   38.4130  -22.3699   40.9462 C   0  0  0  0  0  0  0  0  0  0  0  0
   42.8995  -21.3693   40.1002 C   0  0  0  0  0  0  0  0  0  0  0  0
   41.5809  -20.6323   39.8607 C   0  0  0  0  0  0  0  0  0  0  0  0
   40.6091  -21.3471   40.6943 N   0  0  0  0  0  0  0  0  0  0  0  0
   41.0593  -21.8841   41.9419 C   0  0  0  0  0  0  0  0  0  0  0  0
   42.3405  -21.3014   42.4412 C   0  0  0  0  0  0  0  0  0  0  0  0
   43.3290  -21.0483   41.4448 N   0  0  0  0  0  0  0  0  0  0  0  0
   44.2059  -21.6074   41.6089 H   0  0  0  0  0  0  0  0  0  0  0  0
 26 27  1  0  0  0
 27 28  1  0  0  0
 28 29  1  0  0  0
 29 30  1  0  0  0
 30 31  1  0  0  0
 28 20  1  0  0  0
 20 21  2  0  0  0
 21 22  1  0  0  0
 22 23  2  0  0  0
 23 24  1  0  0  0
 24 25  2  0  0  0
 23  1  1  0  0  0
  1  2  1  0  0  0
  2  3  2  0  0  0
  3  4  1  0  0  0
  4  5  2  0  0  0
  5  6  1  0  0  0
  6  7  2  0  0  0
  7  8  1  0  0  0
  8  9  1  0  0  0
  5 10  1  0  0  0
 10 11  2  0  0  0
 11 12  1  0  0  0
 12 13  2  0  0  0
 13 14  1  0  0  0
 14 15  2  0  0  0
 15 16  1  0  0  0
 16 17  2  0  0  0
 17 18  1  0  0  0
 18 19  2  0  0  0
 31 26  1  0  0  0
 25 20  1  0  0  0
  9  1  2  0  0  0
 19 10  1  0  0  0
  8  4  1  0  0  0
 19 14  1  0  0  0
 31 32  1  0  0  0
M  END
> <minimizedAffinity>
-4.35837

> <CNNscore>
0.6151627302

> <CNNaffinity>
5.1473064423

> <CNN_VS>
3.1664311886

> <CNNaffinity_variance>
0.0801063105

$$$$
[H]c1nc2c(-c3c([H])c([H])c([H])c4c([H])nc([H])c([H])c34)c([H])nn2c([H])c1-c1c([H])c([H])c(N2C([H])([H])C([H])([H])N([H])C([H])([H])C2([H])[H])c([H])c1[H]


 32 37  0  0  0  0  0  0  0  0999 V2000
   36.9202  -21.5403   38.9101 C   0  0  0  0  0  0  0  0  0  0  0  0
   38.0571  -21.8773   38.2079 C   0  0  0  0  0  0  0  0  0  0  0  0
   39.2152  -22.0022   38.8946 N   0  0  0  0  0  0  0  0  0  0  0  0
   39.2709  -21.8034   40.2408 C   0  0  0  0  0  0  0  0  0  0  0  0
   40.3135  -21.9024   41.1331 C   0  0  0  0  0  0  0  0  0  0  0  0
   39.8277  -21.6257   42.3726 C   0  0  0  0  0  0  0  0  0  0  0  0
   38.5194  -21.3648   42.2442 N   0  0  0  0  0  0  0  0  0  0  0  0
   38.1816  -21.4737   40.9445 N   0  0  0  0  0  0  0  0  0  0  0  0
   37.0302  -21.3479   40.2721 C   0  0  0  0  0  0  0  0  0  0  0  0
   41.6976  -22.2346   40.7912 C   0  0  0  0  0  0  0  0  0  0  0  0
   42.2051  -23.5013   40.7353 C   0  0  0  0  0  0  0  0  0  0  0  0
   43.5240  -23.6963   40.3588 C   0  0  0  0  0  0  0  0  0  0  0  0
   44.3228  -22.6003   40.0395 C   0  0  0  0  0  0  0  0  0  0  0  0
   43.8250  -21.3127   40.0912 C   0  0  0  0  0  0  0  0  0  0  0  0
   44.6200  -20.1956   39.7995 C   0  0  0  0  0  0  0  0  0  0  0  0
   44.0739  -18.9540   39.8958 N   0  0  0  0  0  0  0  0  0  0  0  0
   42.7978  -18.7558   40.2592 C   0  0  0  0  0  0  0  0  0  0  0  0
   42.0168  -19.8573   40.5456 C   0  0  0  0  0  0  0  0  0  0  0  0
   42.5054  -21.1520   40.4714 C   0  0  0  0  0  0  0  0  0  0  0  0
   33.1000  -21.1363   37.0741 C   0  0  0  0  0  0  0  0  0  0  0  0
   34.0544  -20.1328   36.9313 C   0  0  0  0  0  0  0  0  0  0  0  0
   35.2914  -20.2983   37.5463 C   0  0  0  0  0  0  0  0  0  0  0  0
   35.6266  -21.4002   38.2897 C   0  0  0  0  0  0  0  0  0  0  0  0
   34.6461  -22.3913   38.4130 C   0  0  0  0  0  0  0  0  0  0  0  0
   33.4087  -22.2715   37.8239 C   0  0  0  0  0  0  0  0  0  0  0  0
   29.8458  -22.0193   35.7088 C   0  0  0  0  0  0  0  0  0  0  0  0
   30.6805  -21.7636   36.9647 C   0  0  0  0  0  0  0  0  0  0  0  0
   31.8293  -20.9886   36.4853 N   0  0  0  0  0  0  0  0  0  0  0  0
   31.6176  -20.0659   35.4122 C   0  0  0  0  0  0  0  0  0  0  0  0
   30.1889  -19.6939   35.1874 C   0  0  0  0  0  0  0  0  0  0  0  0
   29.2484  -20.7565   35.3296 N   0  0  0  0  0  0  0  0  0  0  0  0
   28.7251  -20.9419   34.4349 H   0  0  0  0  0  0  0  0  0  0  0  0
 26 27  1  0  0  0
 27 28  1  0  0  0
 28 29  1  0  0  0
 29 30  1  0  0  0
 30 31  1  0  0  0
 28 20  1  0  0  0
 20 21  2  0  0  0
 21 22  1  0  0  0
 22 23  2  0  0  0
 23 24  1  0  0  0
 24 25  2  0  0  0
 23  1  1  0  0  0
  1  2  1  0  0  0
  2  3  2  0  0  0
  3  4  1  0  0  0
  4  5  2  0  0  0
  5  6  1  0  0  0
  6  7  2  0  0  0
  7  8  1  0  0  0
  8  9  1  0  0  0
  5 10  1  0  0  0
 10 11  2  0  0  0
 11 12  1  0  0  0
 12 13  2  0  0  0
 13 14  1  0  0  0
 14 15  2  0  0  0
 15 16  1  0  0  0
 16 17  2  0  0  0
 17 18  1  0  0  0
 18 19  2  0  0  0
 31 26  1  0  0  0
 25 20  1  0  0  0
  9  1  2  0  0  0
 19 10  1  0  0  0
  8  4  1  0  0  0
 19 14  1  0  0  0
 31 32  1  0  0  0
M  END
> <minimizedAffinity>
-4.47339

> <CNNscore>
0.6092925072

> <CNNaffinity>
5.1016874313

> <CNN_VS>
3.1084198952

> <CNNaffinity_variance>
0.1451162994

$$$$
[H]c1nc2c(-c3c([H])c([H])c([H])c4c([H])nc([H])c([H])c34)c([H])nn2c([H])c1-c1c([H])c([H])c(N2C([H])([H])C([H])([H])N([H])C([H])([H])C2([H])[H])c([H])c1[H]


 32 37  0  0  0  0  0  0  0  0999 V2000
   35.9247  -22.1718   38.2367 C   0  0  0  0  0  0  0  0  0  0  0  0
   36.2466  -21.0597   38.9842 C   0  0  0  0  0  0  0  0  0  0  0  0
   37.5241  -20.9248   39.4061 N   0  0  0  0  0  0  0  0  0  0  0  0
   38.4751  -21.8533   39.1085 C   0  0  0  0  0  0  0  0  0  0  0  0
   39.8182  -21.9068   39.4020 C   0  0  0  0  0  0  0  0  0  0  0  0
   40.3205  -23.0414   38.8458 C   0  0  0  0  0  0  0  0  0  0  0  0
   39.3111  -23.6676   38.2253 N   0  0  0  0  0  0  0  0  0  0  0  0
   38.1872  -22.9422   38.3861 N   0  0  0  0  0  0  0  0  0  0  0  0
   36.9240  -23.0837   37.9642 C   0  0  0  0  0  0  0  0  0  0  0  0
   40.5580  -20.9167   40.1866 C   0  0  0  0  0  0  0  0  0  0  0  0
   40.4673  -20.7686   41.5411 C   0  0  0  0  0  0  0  0  0  0  0  0
   41.2492  -19.8211   42.1819 C   0  0  0  0  0  0  0  0  0  0  0  0
   42.1221  -19.0272   41.4410 C   0  0  0  0  0  0  0  0  0  0  0  0
   42.2257  -19.1642   40.0703 C   0  0  0  0  0  0  0  0  0  0  0  0
   43.0782  -18.3570   39.3044 C   0  0  0  0  0  0  0  0  0  0  0  0
   43.1118  -18.5267   37.9556 N   0  0  0  0  0  0  0  0  0  0  0  0
   42.3587  -19.4417   37.3269 C   0  0  0  0  0  0  0  0  0  0  0  0
   41.5202  -20.2356   38.0832 C   0  0  0  0  0  0  0  0  0  0  0  0
   41.4314  -20.1179   39.4612 C   0  0  0  0  0  0  0  0  0  0  0  0
   32.0237  -22.8821   36.6858 C   0  0  0  0  0  0  0  0  0  0  0  0
   32.2764  -21.7465   37.4505 C   0  0  0  0  0  0  0  0  0  0  0  0
   33.5627  -21.5477   37.9420 C   0  0  0  0  0  0  0  0  0  0  0  0
   34.6026  -22.4115   37.7147 C   0  0  0  0  0  0  0  0  0  0  0  0
   34.3164  -23.5425   36.9415 C   0  0  0  0  0  0  0  0  0  0  0  0
   33.0599  -23.7819   36.4352 C   0  0  0  0  0  0  0  0  0  0  0  0
   28.5037  -22.3587   35.9316 C   0  0  0  0  0  0  0  0  0  0  0  0
   29.9535  -22.0629   35.5444 C   0  0  0  0  0  0  0  0  0  0  0  0
   30.7267  -23.1260   36.1944 N   0  0  0  0  0  0  0  0  0  0  0  0
   30.1308  -24.4226   36.3001 C   0  0  0  0  0  0  0  0  0  0  0  0
   28.9796  -24.6528   35.3769 C   0  0  0  0  0  0  0  0  0  0  0  0
   28.1011  -23.5429   35.2030 N   0  0  0  0  0  0  0  0  0  0  0  0
   27.1225  -23.7610   35.5247 H   0  0  0  0  0  0  0  0  0  0  0  0
 26 27  1  0  0  0
 27 28  1  0  0  0
 28 29  1  0  0  0
 29 30  1  0  0  0
 30 31  1  0  0  0
 28 20  1  0  0  0
 20 21  2  0  0  0
 21 22  1  0  0  0
 22 23  2  0  0  0
 23 24  1  0  0  0
 24 25  2  0  0  0
 23  1  1  0  0  0
  1  2  1  0  0  0
  2  3  2  0  0  0
  3  4  1  0  0  0
  4  5  2  0  0  0
  5  6  1  0  0  0
  6  7  2  0  0  0
  7  8  1  0  0  0
  8  9  1  0  0  0
  5 10  1  0  0  0
 10 11  2  0  0  0
 11 12  1  0  0  0
 12 13  2  0  0  0
 13 14  1  0  0  0
 14 15  2  0  0  0
 15 16  1  0  0  0
 16 17  2  0  0  0
 17 18  1  0  0  0
 18 19  2  0  0  0
 31 26  1  0  0  0
 25 20  1  0  0  0
  9  1  2  0  0  0
 19 10  1  0  0  0
  8  4  1  0  0  0
 19 14  1  0  0  0
 31 32  1  0  0  0
M  END
> <minimizedAffinity>
-5.05528

> <CNNscore>
0.6037075520

> <CNNaffinity>
5.1925516129

> <CNN_VS>
3.1347825527

> <CNNaffinity_variance>
0.0267062634

$$$$
[H]c1nc2c(-c3c([H])c([H])c([H])c4c([H])nc([H])c([H])c34)c([H])nn2c([H])c1-c1c([H])c([H])c(N2C([H])([H])C([H])([H])N([H])C([H])([H])C2([H])[H])c([H])c1[H]


 32 37  0  0  0  0  0  0  0  0999 V2000
   33.6785  -16.5428   36.3026 C   0  0  0  0  0  0  0  0  0  0  0  0
   32.6537  -15.6427   36.4995 C   0  0  0  0  0  0  0  0  0  0  0  0
   32.9756  -14.3424   36.6833 N   0  0  0  0  0  0  0  0  0  0  0  0
   34.2706  -13.9207   36.6766 C   0  0  0  0  0  0  0  0  0  0  0  0
   34.8202  -12.6666   36.8118 C   0  0  0  0  0  0  0  0  0  0  0  0
   36.1700  -12.7903   36.7038 C   0  0  0  0  0  0  0  0  0  0  0  0
   36.4418  -14.0876   36.5059 N   0  0  0  0  0  0  0  0  0  0  0  0
   35.2832  -14.7751   36.4894 N   0  0  0  0  0  0  0  0  0  0  0  0
   34.9732  -16.0651   36.3066 C   0  0  0  0  0  0  0  0  0  0  0  0
   34.0718  -11.4300   37.0436 C   0  0  0  0  0  0  0  0  0  0  0  0
   32.9167  -11.3408   37.7666 C   0  0  0  0  0  0  0  0  0  0  0  0
   32.3174  -10.1058   37.9535 C   0  0  0  0  0  0  0  0  0  0  0  0
   32.8969   -8.9641   37.4039 C   0  0  0  0  0  0  0  0  0  0  0  0
   34.0650   -9.0370   36.6699 C   0  0  0  0  0  0  0  0  0  0  0  0
   34.6488   -7.9039   36.0866 C   0  0  0  0  0  0  0  0  0  0  0  0
   35.7850   -8.0504   35.3540 N   0  0  0  0  0  0  0  0  0  0  0  0
   36.3722   -9.2422   35.1680 C   0  0  0  0  0  0  0  0  0  0  0  0
   35.7956  -10.3565   35.7436 C   0  0  0  0  0  0  0  0  0  0  0  0
   34.6373  -10.2842   36.5010 C   0  0  0  0  0  0  0  0  0  0  0  0
   33.0133  -20.6951   35.6365 C   0  0  0  0  0  0  0  0  0  0  0  0
   34.2937  -20.2286   35.9212 C   0  0  0  0  0  0  0  0  0  0  0  0
   34.4739  -18.8652   36.1319 C   0  0  0  0  0  0  0  0  0  0  0  0
   33.4561  -17.9487   36.0749 C   0  0  0  0  0  0  0  0  0  0  0  0
   32.1810  -18.4495   35.7880 C   0  0  0  0  0  0  0  0  0  0  0  0
   31.9545  -19.7890   35.5713 C   0  0  0  0  0  0  0  0  0  0  0  0
   31.4367  -23.7460   34.4367 C   0  0  0  0  0  0  0  0  0  0  0  0
   32.3053  -22.5343   34.0952 C   0  0  0  0  0  0  0  0  0  0  0  0
   32.8010  -22.0658   35.3933 N   0  0  0  0  0  0  0  0  0  0  0  0
   33.0782  -23.0440   36.4003 C   0  0  0  0  0  0  0  0  0  0  0  0
   33.2313  -24.4374   35.8853 C   0  0  0  0  0  0  0  0  0  0  0  0
   32.3301  -24.8095   34.8446 N   0  0  0  0  0  0  0  0  0  0  0  0
   31.7117  -25.6133   35.1275 H   0  0  0  0  0  0  0  0  0  0  0  0
 26 27  1  0  0  0
 27 28  1  0  0  0
 28 29  1  0  0  0
 29 30  1  0  0  0
 30 31  1  0  0  0
 28 20  1  0  0  0
 20 21  2  0  0  0
 21 22  1  0  0  0
 22 23  2  0  0  0
 23 24  1  0  0  0
 24 25  2  0  0  0
 23  1  1  0  0  0
  1  2  1  0  0  0
  2  3  2  0  0  0
  3  4  1  0  0  0
  4  5  2  0  0  0
  5  6  1  0  0  0
  6  7  2  0  0  0
  7  8  1  0  0  0
  8  9  1  0  0  0
  5 10  1  0  0  0
 10 11  2  0  0  0
 11 12  1  0  0  0
 12 13  2  0  0  0
 13 14  1  0  0  0
 14 15  2  0  0  0
 15 16  1  0  0  0
 16 17  2  0  0  0
 17 18  1  0  0  0
 18 19  2  0  0  0
 31 26  1  0  0  0
 25 20  1  0  0  0
  9  1  2  0  0  0
 19 10  1  0  0  0
  8  4  1  0  0  0
 19 14  1  0  0  0
 31 32  1  0  0  0
M  END
> <minimizedAffinity>
-0.86123

> <CNNscore>
0.5666525364

> <CNNaffinity>
6.2992410660

> <CNN_VS>
3.5694808960

> <CNNaffinity_variance>
0.3982021809

$$$$
[H]c1nc2c(-c3c([H])c([H])c([H])c4c([H])nc([H])c([H])c34)c([H])nn2c([H])c1-c1c([H])c([H])c(N2C([H])([H])C([H])([H])N([H])C([H])([H])C2([H])[H])c([H])c1[H]


 32 37  0  0  0  0  0  0  0  0999 V2000
   36.4300  -21.5473   37.6262 C   0  0  0  0  0  0  0  0  0  0  0  0
   36.9634  -20.3186   37.9502 C   0  0  0  0  0  0  0  0  0  0  0  0
   38.2779  -20.2578   38.2613 N   0  0  0  0  0  0  0  0  0  0  0  0
   39.0634  -21.3704   38.2588 C   0  0  0  0  0  0  0  0  0  0  0  0
   40.4059  -21.5374   38.5094 C   0  0  0  0  0  0  0  0  0  0  0  0
   40.6986  -22.8552   38.3464 C   0  0  0  0  0  0  0  0  0  0  0  0
   39.5643  -23.4810   38.0028 N   0  0  0  0  0  0  0  0  0  0  0  0
   38.5688  -22.5747   37.9497 N   0  0  0  0  0  0  0  0  0  0  0  0
   37.2676  -22.6439   37.6403 C   0  0  0  0  0  0  0  0  0  0  0  0
   41.3379  -20.4765   38.8953 C   0  0  0  0  0  0  0  0  0  0  0  0
   42.0829  -19.7367   38.0220 C   0  0  0  0  0  0  0  0  0  0  0  0
   42.9028  -18.7283   38.5022 C   0  0  0  0  0  0  0  0  0  0  0  0
   42.9611  -18.4757   39.8712 C   0  0  0  0  0  0  0  0  0  0  0  0
   42.2142  -19.2150   40.7679 C   0  0  0  0  0  0  0  0  0  0  0  0
   42.2794  -18.9937   42.1505 C   0  0  0  0  0  0  0  0  0  0  0  0
   41.5374  -19.7757   42.9794 N   0  0  0  0  0  0  0  0  0  0  0  0
   40.7407  -20.7540   42.5233 C   0  0  0  0  0  0  0  0  0  0  0  0
   40.6779  -20.9697   41.1613 C   0  0  0  0  0  0  0  0  0  0  0  0
   41.4070  -20.2143   40.2567 C   0  0  0  0  0  0  0  0  0  0  0  0
   32.3474  -22.0840   36.5437 C   0  0  0  0  0  0  0  0  0  0  0  0
   33.1893  -23.1860   36.6661 C   0  0  0  0  0  0  0  0  0  0  0  0
   34.5178  -22.9726   37.0202 C   0  0  0  0  0  0  0  0  0  0  0  0
   35.0487  -21.7312   37.2572 C   0  0  0  0  0  0  0  0  0  0  0  0
   34.1764  -20.6445   37.1272 C   0  0  0  0  0  0  0  0  0  0  0  0
   32.8556  -20.8062   36.7783 C   0  0  0  0  0  0  0  0  0  0  0  0
   28.8131  -21.3748   36.0544 C   0  0  0  0  0  0  0  0  0  0  0  0
   30.2416  -21.1721   35.5468 C   0  0  0  0  0  0  0  0  0  0  0  0
   31.0037  -22.2633   36.1624 N   0  0  0  0  0  0  0  0  0  0  0  0
   30.3465  -23.5206   36.3493 C   0  0  0  0  0  0  0  0  0  0  0  0
   29.1142  -23.7044   35.5260 C   0  0  0  0  0  0  0  0  0  0  0  0
   28.2880  -22.5498   35.3918 N   0  0  0  0  0  0  0  0  0  0  0  0
   27.3276  -22.7035   35.7950 H   0  0  0  0  0  0  0  0  0  0  0  0
 26 27  1  0  0  0
 27 28  1  0  0  0
 28 29  1  0  0  0
 29 30  1  0  0  0
 30 31  1  0  0  0
 28 20  1  0  0  0
 20 21  2  0  0  0
 21 22  1  0  0  0
 22 23  2  0  0  0
 23 24  1  0  0  0
 24 25  2  0  0  0
 23  1  1  0  0  0
  1  2  1  0  0  0
  2  3  2  0  0  0
  3  4  1  0  0  0
  4  5  2  0  0  0
  5  6  1  0  0  0
  6  7  2  0  0  0
  7  8  1  0  0  0
  8  9  1  0  0  0
  5 10  1  0  0  0
 10 11  2  0  0  0
 11 12  1  0  0  0
 12 13  2  0  0  0
 13 14  1  0  0  0
 14 15  2  0  0  0
 15 16  1  0  0  0
 16 17  2  0  0  0
 17 18  1  0  0  0
 18 19  2  0  0  0
 31 26  1  0  0  0
 25 20  1  0  0  0
  9  1  2  0  0  0
 19 10  1  0  0  0
  8  4  1  0  0  0
 19 14  1  0  0  0
 31 32  1  0  0  0
M  END
> <minimizedAffinity>
-5.48142

> <CNNscore>
0.5284059644

> <CNNaffinity>
5.1595091820

> <CNN_VS>
2.7263154984

> <CNNaffinity_variance>
0.0175513476

$$$$
[H]c1nc2c(-c3c([H])c([H])c([H])c4c([H])nc([H])c([H])c34)c([H])nn2c([H])c1-c1c([H])c([H])c(N2C([H])([H])C([H])([H])N([H])C([H])([H])C2([H])[H])c([H])c1[H]


 32 37  0  0  0  0  0  0  0  0999 V2000
   36.8861  -21.7660   37.3806 C   0  0  0  0  0  0  0  0  0  0  0  0
   38.0106  -22.5206   37.6361 C   0  0  0  0  0  0  0  0  0  0  0  0
   39.1947  -22.0812   37.1532 N   0  0  0  0  0  0  0  0  0  0  0  0
   39.2877  -20.9286   36.4336 C   0  0  0  0  0  0  0  0  0  0  0  0
   40.3710  -20.2867   35.8791 C   0  0  0  0  0  0  0  0  0  0  0  0
   39.9209  -19.1500   35.2839 C   0  0  0  0  0  0  0  0  0  0  0  0
   38.5948  -19.0951   35.4697 N   0  0  0  0  0  0  0  0  0  0  0  0
   38.2105  -20.1797   36.1707 N   0  0  0  0  0  0  0  0  0  0  0  0
   37.0336  -20.6076   36.6453 C   0  0  0  0  0  0  0  0  0  0  0  0
   41.7548  -20.7627   35.9199 C   0  0  0  0  0  0  0  0  0  0  0  0
   42.3073  -21.6331   35.0243 C   0  0  0  0  0  0  0  0  0  0  0  0
   43.6432  -21.9813   35.1400 C   0  0  0  0  0  0  0  0  0  0  0  0
   44.4135  -21.4412   36.1678 C   0  0  0  0  0  0  0  0  0  0  0  0
   43.8700  -20.5596   37.0821 C   0  0  0  0  0  0  0  0  0  0  0  0
   44.6214  -20.0264   38.1385 C   0  0  0  0  0  0  0  0  0  0  0  0
   44.0169  -19.1845   39.0188 N   0  0  0  0  0  0  0  0  0  0  0  0
   42.7242  -18.8417   38.9142 C   0  0  0  0  0  0  0  0  0  0  0  0
   41.9863  -19.3678   37.8729 C   0  0  0  0  0  0  0  0  0  0  0  0
   42.5340  -20.2333   36.9395 C   0  0  0  0  0  0  0  0  0  0  0  0
   33.0110  -22.8095   38.8027 C   0  0  0  0  0  0  0  0  0  0  0  0
   34.1413  -23.4173   39.3424 C   0  0  0  0  0  0  0  0  0  0  0  0
   35.3913  -23.0525   38.8523 C   0  0  0  0  0  0  0  0  0  0  0  0
   35.5750  -22.1227   37.8619 C   0  0  0  0  0  0  0  0  0  0  0  0
   34.4193  -21.5292   37.3413 C   0  0  0  0  0  0  0  0  0  0  0  0
   33.1624  -21.8585   37.7933 C   0  0  0  0  0  0  0  0  0  0  0  0
   30.4169  -24.5635   40.6542 C   0  0  0  0  0  0  0  0  0  0  0  0
   31.4888  -23.4725   40.6742 C   0  0  0  0  0  0  0  0  0  0  0  0
   31.7296  -23.1744   39.2588 N   0  0  0  0  0  0  0  0  0  0  0  0
   30.6207  -23.2494   38.3575 C   0  0  0  0  0  0  0  0  0  0  0  0
   29.2817  -23.2106   39.0177 C   0  0  0  0  0  0  0  0  0  0  0  0
   29.1791  -23.9373   40.2405 N   0  0  0  0  0  0  0  0  0  0  0  0
   28.4696  -24.7129   40.1795 H   0  0  0  0  0  0  0  0  0  0  0  0
 26 27  1  0  0  0
 27 28  1  0  0  0
 28 29  1  0  0  0
 29 30  1  0  0  0
 30 31  1  0  0  0
 28 20  1  0  0  0
 20 21  2  0  0  0
 21 22  1  0  0  0
 22 23  2  0  0  0
 23 24  1  0  0  0
 24 25  2  0  0  0
 23  1  1  0  0  0
  1  2  1  0  0  0
  2  3  2  0  0  0
  3  4  1  0  0  0
  4  5  2  0  0  0
  5  6  1  0  0  0
  6  7  2  0  0  0
  7  8  1  0  0  0
  8  9  1  0  0  0
  5 10  1  0  0  0
 10 11  2  0  0  0
 11 12  1  0  0  0
 12 13  2  0  0  0
 13 14  1  0  0  0
 14 15  2  0  0  0
 15 16  1  0  0  0
 16 17  2  0  0  0
 17 18  1  0  0  0
 18 19  2  0  0  0
 31 26  1  0  0  0
 25 20  1  0  0  0
  9  1  2  0  0  0
 19 10  1  0  0  0
  8  4  1  0  0  0
 19 14  1  0  0  0
 31 32  1  0  0  0
M  END
> <minimizedAffinity>
-3.53625

> <CNNscore>
0.4667355120

> <CNNaffinity>
5.2103071213

> <CNN_VS>
2.4318354130

> <CNNaffinity_variance>
0.0771359652

$$$$
[H]c1c([H])c([H])c2c(c1[H])c(C(=O)OC1([H])C([H])([H])C3([H])N(C([H])([H])[H])C([H])(C([H])([H])C3([H])[H])C1([H])[H])c([H])n2[H]


 22 25  0  0  0  0  0  0  0  0999 V2000
   35.9003  -18.0300   36.6750 C   0  0  0  0  0  0  0  0  0  0  0  0
   35.3274  -19.1070   36.9586 O   0  0  0  0  0  0  0  0  0  0  0  0
   35.1311  -16.8398   36.3790 C   0  0  0  0  0  0  0  0  0  0  0  0
   33.8757  -16.8305   35.7673 C   0  0  0  0  0  0  0  0  0  0  0  0
   33.4418  -15.5740   35.6393 N   0  0  0  0  0  0  0  0  0  0  0  0
   34.3590  -14.7324   36.1426 C   0  0  0  0  0  0  0  0  0  0  0  0
   34.4412  -13.3662   36.2736 C   0  0  0  0  0  0  0  0  0  0  0  0
   35.5368  -12.7923   36.8461 C   0  0  0  0  0  0  0  0  0  0  0  0
   36.5856  -13.5523   37.3071 C   0  0  0  0  0  0  0  0  0  0  0  0
   36.5093  -14.9209   37.1789 C   0  0  0  0  0  0  0  0  0  0  0  0
   35.4228  -15.5147   36.6095 C   0  0  0  0  0  0  0  0  0  0  0  0
   32.5436  -15.2230   35.2245 H   0  0  0  0  0  0  0  0  0  0  0  0
   37.2845  -18.0319   36.6582 O   0  0  0  0  0  0  0  0  0  0  0  0
   41.2821  -19.4174   33.1291 C   0  0  0  0  0  0  0  0  0  0  0  0
   40.2887  -18.8622   34.0199 N   0  0  0  0  0  0  0  0  0  0  0  0
   38.9552  -19.3123   33.6144 C   0  0  0  0  0  0  0  0  0  0  0  0
   38.9905  -20.7659   33.9560 C   0  0  0  0  0  0  0  0  0  0  0  0
   39.9728  -20.9480   35.0885 C   0  0  0  0  0  0  0  0  0  0  0  0
   40.4258  -19.4996   35.3136 C   0  0  0  0  0  0  0  0  0  0  0  0
   39.4897  -18.9167   36.3395 C   0  0  0  0  0  0  0  0  0  0  0  0
   38.0447  -18.9659   35.9135 C   0  0  0  0  0  0  0  0  0  0  0  0
   37.9709  -18.5348   34.4596 C   0  0  0  0  0  0  0  0  0  0  0  0
 14 15  1  0  0  0
 15 16  1  0  0  0
 16 17  1  0  0  0
 17 18  1  0  0  0
 18 19  1  0  0  0
 19 20  1  0  0  0
 20 21  1  0  0  0
 21 22  1  0  0  0
 21 13  1  0  0  0
 13  1  1  0  0  0
  1  2  2  0  0  0
  1  3  1  0  0  0
  3  4  2  0  0  0
  4  5  1  0  0  0
  5  6  1  0  0  0
  6  7  2  0  0  0
  7  8  1  0  0  0
  8  9  2  0  0  0
  9 10  1  0  0  0
 10 11  2  0  0  0
 19 15  1  0  0  0
 11  3  1  0  0  0
 22 16  1  0  0  0
 11  6  1  0  0  0
  5 12  1  0  0  0
M  END
> <minimizedAffinity>
-6.92465

> <CNNscore>
0.8273951411

> <CNNaffinity>
4.6389551163

> <CNN_VS>
3.8382489681

> <CNNaffinity_variance>
0.4456671178

$$$$
[H]c1c([H])c([H])c2c(c1[H])c(C(=O)OC1([H])C([H])([H])C3([H])N(C([H])([H])[H])C([H])(C([H])([H])C3([H])[H])C1([H])[H])c([H])n2[H]


 22 25  0  0  0  0  0  0  0  0999 V2000
   35.8031  -18.3074   36.9747 C   0  0  0  0  0  0  0  0  0  0  0  0
   35.6658  -18.7127   38.1518 O   0  0  0  0  0  0  0  0  0  0  0  0
   34.6547  -18.1596   36.1057 C   0  0  0  0  0  0  0  0  0  0  0  0
   34.2069  -16.9498   35.5708 C   0  0  0  0  0  0  0  0  0  0  0  0
   33.1273  -17.1597   34.8132 N   0  0  0  0  0  0  0  0  0  0  0  0
   32.8284  -18.4687   34.8164 C   0  0  0  0  0  0  0  0  0  0  0  0
   31.8491  -19.2329   34.2269 C   0  0  0  0  0  0  0  0  0  0  0  0
   31.8104  -20.5804   34.4278 C   0  0  0  0  0  0  0  0  0  0  0  0
   32.7396  -21.2142   35.2184 C   0  0  0  0  0  0  0  0  0  0  0  0
   33.7227  -20.4545   35.8115 C   0  0  0  0  0  0  0  0  0  0  0  0
   33.7793  -19.1059   35.6235 C   0  0  0  0  0  0  0  0  0  0  0  0
   32.5528  -16.4666   34.2732 H   0  0  0  0  0  0  0  0  0  0  0  0
   37.0871  -18.0116   36.5502 O   0  0  0  0  0  0  0  0  0  0  0  0
   41.2517  -19.3254   33.1908 C   0  0  0  0  0  0  0  0  0  0  0  0
   40.2123  -18.7880   34.0391 N   0  0  0  0  0  0  0  0  0  0  0  0
   38.9052  -19.2633   33.5798 C   0  0  0  0  0  0  0  0  0  0  0  0
   38.9535  -20.7157   33.9249 C   0  0  0  0  0  0  0  0  0  0  0  0
   39.8915  -20.8784   35.0972 C   0  0  0  0  0  0  0  0  0  0  0  0
   40.3079  -19.4216   35.3384 C   0  0  0  0  0  0  0  0  0  0  0  0
   39.3196  -18.8554   36.3240 C   0  0  0  0  0  0  0  0  0  0  0  0
   37.8946  -18.9320   35.8390 C   0  0  0  0  0  0  0  0  0  0  0  0
   37.8727  -18.5036   34.3825 C   0  0  0  0  0  0  0  0  0  0  0  0
 14 15  1  0  0  0
 15 16  1  0  0  0
 16 17  1  0  0  0
 17 18  1  0  0  0
 18 19  1  0  0  0
 19 20  1  0  0  0
 20 21  1  0  0  0
 21 22  1  0  0  0
 21 13  1  0  0  0
 13  1  1  0  0  0
  1  2  2  0  0  0
  1  3  1  0  0  0
  3  4  2  0  0  0
  4  5  1  0  0  0
  5  6  1  0  0  0
  6  7  2  0  0  0
  7  8  1  0  0  0
  8  9  2  0  0  0
  9 10  1  0  0  0
 10 11  2  0  0  0
 19 15  1  0  0  0
 11  3  1  0  0  0
 22 16  1  0  0  0
 11  6  1  0  0  0
  5 12  1  0  0  0
M  END
> <minimizedAffinity>
-5.76113

> <CNNscore>
0.7475949526

> <CNNaffinity>
4.5532703400

> <CNN_VS>
3.4040019512

> <CNNaffinity_variance>
0.3373625875

$$$$
[H]c1c([H])c([H])c2c(c1[H])c(C(=O)OC1([H])C([H])([H])C3([H])N(C([H])([H])[H])C([H])(C([H])([H])C3([H])[H])C1([H])[H])c([H])n2[H]


 22 25  0  0  0  0  0  0  0  0999 V2000
   35.7166  -17.5093   36.0436 C   0  0  0  0  0  0  0  0  0  0  0  0
   36.3574  -17.7577   34.9966 O   0  0  0  0  0  0  0  0  0  0  0  0
   35.8431  -16.2251   36.6999 C   0  0  0  0  0  0  0  0  0  0  0  0
   36.8848  -15.8643   37.5574 C   0  0  0  0  0  0  0  0  0  0  0  0
   36.7034  -14.6148   37.9923 N   0  0  0  0  0  0  0  0  0  0  0  0
   35.5759  -14.1169   37.4597 C   0  0  0  0  0  0  0  0  0  0  0  0
   34.9172  -12.9138   37.5547 C   0  0  0  0  0  0  0  0  0  0  0  0
   33.7567  -12.7062   36.8708 C   0  0  0  0  0  0  0  0  0  0  0  0
   33.2114  -13.6827   36.0713 C   0  0  0  0  0  0  0  0  0  0  0  0
   33.8663  -14.8896   35.9720 C   0  0  0  0  0  0  0  0  0  0  0  0
   35.0278  -15.1176   36.6474 C   0  0  0  0  0  0  0  0  0  0  0  0
   37.2999  -14.0477   38.6439 H   0  0  0  0  0  0  0  0  0  0  0  0
   34.8933  -18.5070   36.5365 O   0  0  0  0  0  0  0  0  0  0  0  0
   29.8504  -20.4780   35.5165 C   0  0  0  0  0  0  0  0  0  0  0  0
   31.0984  -19.9017   35.9628 N   0  0  0  0  0  0  0  0  0  0  0  0
   32.1527  -20.9177   35.9255 C   0  0  0  0  0  0  0  0  0  0  0  0
   32.3431  -21.1277   34.4590 C   0  0  0  0  0  0  0  0  0  0  0  0
   31.9495  -19.8499   33.7570 C   0  0  0  0  0  0  0  0  0  0  0  0
   31.5605  -18.9713   34.9531 C   0  0  0  0  0  0  0  0  0  0  0  0
   32.8130  -18.2479   35.3734 C   0  0  0  0  0  0  0  0  0  0  0  0
   33.9381  -19.1821   35.7385 C   0  0  0  0  0  0  0  0  0  0  0  0
   33.3613  -20.2981   36.5912 C   0  0  0  0  0  0  0  0  0  0  0  0
 14 15  1  0  0  0
 15 16  1  0  0  0
 16 17  1  0  0  0
 17 18  1  0  0  0
 18 19  1  0  0  0
 19 20  1  0  0  0
 20 21  1  0  0  0
 21 22  1  0  0  0
 21 13  1  0  0  0
 13  1  1  0  0  0
  1  2  2  0  0  0
  1  3  1  0  0  0
  3  4  2  0  0  0
  4  5  1  0  0  0
  5  6  1  0  0  0
  6  7  2  0  0  0
  7  8  1  0  0  0
  8  9  2  0  0  0
  9 10  1  0  0  0
 10 11  2  0  0  0
 19 15  1  0  0  0
 11  3  1  0  0  0
 22 16  1  0  0  0
 11  6  1  0  0  0
  5 12  1  0  0  0
M  END
> <minimizedAffinity>
-7.49671

> <CNNscore>
0.6982460618

> <CNNaffinity>
4.6222448349

> <CNN_VS>
3.2274641991

> <CNNaffinity_variance>
0.7751010656

$$$$
[H]c1c([H])c([H])c2c(c1[H])c(C(=O)OC1([H])C([H])([H])C3([H])N(C([H])([H])[H])C([H])(C([H])([H])C3([H])[H])C1([H])[H])c([H])n2[H]


 22 25  0  0  0  0  0  0  0  0999 V2000
   34.0477  -17.0676   35.5047 C   0  0  0  0  0  0  0  0  0  0  0  0
   33.1520  -17.7137   36.0955 O   0  0  0  0  0  0  0  0  0  0  0  0
   34.2905  -15.6774   35.8274 C   0  0  0  0  0  0  0  0  0  0  0  0
   33.4101  -14.6278   35.5562 C   0  0  0  0  0  0  0  0  0  0  0  0
   33.9335  -13.4745   35.9797 N   0  0  0  0  0  0  0  0  0  0  0  0
   35.1370  -13.7061   36.5279 C   0  0  0  0  0  0  0  0  0  0  0  0
   36.0974  -12.9127   37.1098 C   0  0  0  0  0  0  0  0  0  0  0  0
   37.2503  -13.4615   37.5866 C   0  0  0  0  0  0  0  0  0  0  0  0
   37.4890  -14.8128   37.5028 C   0  0  0  0  0  0  0  0  0  0  0  0
   36.5311  -15.6127   36.9213 C   0  0  0  0  0  0  0  0  0  0  0  0
   35.3717  -15.0840   36.4382 C   0  0  0  0  0  0  0  0  0  0  0  0
   33.5309  -12.5064   35.9276 H   0  0  0  0  0  0  0  0  0  0  0  0
   34.7838  -17.7367   34.5421 O   0  0  0  0  0  0  0  0  0  0  0  0
   39.6369  -19.0147   36.8159 C   0  0  0  0  0  0  0  0  0  0  0  0
   38.3996  -18.4906   36.2838 N   0  0  0  0  0  0  0  0  0  0  0  0
   38.3275  -18.7592   34.8458 C   0  0  0  0  0  0  0  0  0  0  0  0
   38.1516  -20.2419   34.8056 C   0  0  0  0  0  0  0  0  0  0  0  0
   37.4771  -20.6595   36.0906 C   0  0  0  0  0  0  0  0  0  0  0  0
   37.3068  -19.3007   36.7823 C   0  0  0  0  0  0  0  0  0  0  0  0
   35.9628  -18.7722   36.3546 C   0  0  0  0  0  0  0  0  0  0  0  0
   35.8338  -18.6321   34.8594 C   0  0  0  0  0  0  0  0  0  0  0  0
   37.1163  -18.0107   34.3356 C   0  0  0  0  0  0  0  0  0  0  0  0
 14 15  1  0  0  0
 15 16  1  0  0  0
 16 17  1  0  0  0
 17 18  1  0  0  0
 18 19  1  0  0  0
 19 20  1  0  0  0
 20 21  1  0  0  0
 21 22  1  0  0  0
 21 13  1  0  0  0
 13  1  1  0  0  0
  1  2  2  0  0  0
  1  3  1  0  0  0
  3  4  2  0  0  0
  4  5  1  0  0  0
  5  6  1  0  0  0
  6  7  2  0  0  0
  7  8  1  0  0  0
  8  9  2  0  0  0
  9 10  1  0  0  0
 10 11  2  0  0  0
 19 15  1  0  0  0
 11  3  1  0  0  0
 22 16  1  0  0  0
 11  6  1  0  0  0
  5 12  1  0  0  0
M  END
> <minimizedAffinity>
-5.95653

> <CNNscore>
0.6771059036

> <CNNaffinity>
4.8641357422

> <CNN_VS>
3.2935349941

> <CNNaffinity_variance>
0.3149161339

$$$$
[H]c1c([H])c([H])c2c(c1[H])c(C(=O)OC1([H])C([H])([H])C3([H])N(C([H])([H])[H])C([H])(C([H])([H])C3([H])[H])C1([H])[H])c([H])n2[H]


 22 25  0  0  0  0  0  0  0  0999 V2000
   35.3698  -18.1859   35.1037 C   0  0  0  0  0  0  0  0  0  0  0  0
   35.9572  -18.2671   34.0005 O   0  0  0  0  0  0  0  0  0  0  0  0
   34.8870  -16.9112   35.5914 C   0  0  0  0  0  0  0  0  0  0  0  0
   33.6112  -16.3952   35.3540 C   0  0  0  0  0  0  0  0  0  0  0  0
   33.4865  -15.2026   35.9419 N   0  0  0  0  0  0  0  0  0  0  0  0
   34.6327  -14.8930   36.5689 C   0  0  0  0  0  0  0  0  0  0  0  0
   35.0611  -13.8206   37.3152 C   0  0  0  0  0  0  0  0  0  0  0  0
   36.3215  -13.7998   37.8335 C   0  0  0  0  0  0  0  0  0  0  0  0
   37.1975  -14.8396   37.6299 C   0  0  0  0  0  0  0  0  0  0  0  0
   36.7744  -15.9163   36.8835 C   0  0  0  0  0  0  0  0  0  0  0  0
   35.5184  -15.9569   36.3562 C   0  0  0  0  0  0  0  0  0  0  0  0
   32.6605  -14.5549   35.9560 H   0  0  0  0  0  0  0  0  0  0  0  0
   35.2067  -19.3565   35.8243 O   0  0  0  0  0  0  0  0  0  0  0  0
   29.8641  -20.6789   35.5716 C   0  0  0  0  0  0  0  0  0  0  0  0
   31.2027  -20.1486   35.6968 N   0  0  0  0  0  0  0  0  0  0  0  0
   31.9768  -20.9760   36.6248 C   0  0  0  0  0  0  0  0  0  0  0  0
   32.1494  -22.2444   35.8551 C   0  0  0  0  0  0  0  0  0  0  0  0
   32.0997  -21.9003   34.3855 C   0  0  0  0  0  0  0  0  0  0  0  0
   31.9055  -20.3798   34.4513 C   0  0  0  0  0  0  0  0  0  0  0  0
   33.2852  -19.7755   34.4533 C   0  0  0  0  0  0  0  0  0  0  0  0
   34.1371  -20.2568   35.5998 C   0  0  0  0  0  0  0  0  0  0  0  0
   33.2819  -20.2468   36.8543 C   0  0  0  0  0  0  0  0  0  0  0  0
 14 15  1  0  0  0
 15 16  1  0  0  0
 16 17  1  0  0  0
 17 18  1  0  0  0
 18 19  1  0  0  0
 19 20  1  0  0  0
 20 21  1  0  0  0
 21 22  1  0  0  0
 21 13  1  0  0  0
 13  1  1  0  0  0
  1  2  2  0  0  0
  1  3  1  0  0  0
  3  4  2  0  0  0
  4  5  1  0  0  0
  5  6  1  0  0  0
  6  7  2  0  0  0
  7  8  1  0  0  0
  8  9  2  0  0  0
  9 10  1  0  0  0
 10 11  2  0  0  0
 19 15  1  0  0  0
 11  3  1  0  0  0
 22 16  1  0  0  0
 11  6  1  0  0  0
  5 12  1  0  0  0
M  END
> <minimizedAffinity>
-6.93595

> <CNNscore>
0.6534367204

> <CNNaffinity>
4.4956707954

> <CNN_VS>
2.9376363754

> <CNNaffinity_variance>
0.6168227196

$$$$
[H]c1c([H])c([H])c2c(c1[H])c(C(=O)OC1([H])C([H])([H])C3([H])N(C([H])([H])[H])C([H])(C([H])([H])C3([H])[H])C1([H])[H])c([H])n2[H]


 22 25  0  0  0  0  0  0  0  0999 V2000
   35.6365  -19.8469   37.7980 C   0  0  0  0  0  0  0  0  0  0  0  0
   35.2563  -19.4862   38.9354 O   0  0  0  0  0  0  0  0  0  0  0  0
   36.8658  -19.3323   37.2324 C   0  0  0  0  0  0  0  0  0  0  0  0
   36.9481  -18.2661   36.3341 C   0  0  0  0  0  0  0  0  0  0  0  0
   38.2238  -18.0443   36.0076 N   0  0  0  0  0  0  0  0  0  0  0  0
   39.0081  -18.9224   36.6529 C   0  0  0  0  0  0  0  0  0  0  0  0
   40.3631  -19.1522   36.6942 C   0  0  0  0  0  0  0  0  0  0  0  0
   40.8706  -20.1508   37.4706 C   0  0  0  0  0  0  0  0  0  0  0  0
   40.0533  -20.9535   38.2308 C   0  0  0  0  0  0  0  0  0  0  0  0
   38.6955  -20.7284   38.1937 C   0  0  0  0  0  0  0  0  0  0  0  0
   38.1677  -19.7353   37.4241 C   0  0  0  0  0  0  0  0  0  0  0  0
   38.6253  -17.3217   35.3604 H   0  0  0  0  0  0  0  0  0  0  0  0
   34.8367  -20.7483   37.1168 O   0  0  0  0  0  0  0  0  0  0  0  0
   29.9685  -19.4218   34.9040 C   0  0  0  0  0  0  0  0  0  0  0  0
   31.1437  -19.7955   35.6577 N   0  0  0  0  0  0  0  0  0  0  0  0
   31.7902  -20.9475   35.0252 C   0  0  0  0  0  0  0  0  0  0  0  0
   32.3294  -20.3587   33.7629 C   0  0  0  0  0  0  0  0  0  0  0  0
   32.5793  -18.8902   34.0110 C   0  0  0  0  0  0  0  0  0  0  0  0
   32.1490  -18.7679   35.4785 C   0  0  0  0  0  0  0  0  0  0  0  0
   33.3816  -19.0246   36.3051 C   0  0  0  0  0  0  0  0  0  0  0  0
   33.9990  -20.3735   36.0386 C   0  0  0  0  0  0  0  0  0  0  0  0
   32.8785  -21.3962   35.9749 C   0  0  0  0  0  0  0  0  0  0  0  0
 14 15  1  0  0  0
 15 16  1  0  0  0
 16 17  1  0  0  0
 17 18  1  0  0  0
 18 19  1  0  0  0
 19 20  1  0  0  0
 20 21  1  0  0  0
 21 22  1  0  0  0
 21 13  1  0  0  0
 13  1  1  0  0  0
  1  2  2  0  0  0
  1  3  1  0  0  0
  3  4  2  0  0  0
  4  5  1  0  0  0
  5  6  1  0  0  0
  6  7  2  0  0  0
  7  8  1  0  0  0
  8  9  2  0  0  0
  9 10  1  0  0  0
 10 11  2  0  0  0
 19 15  1  0  0  0
 11  3  1  0  0  0
 22 16  1  0  0  0
 11  6  1  0  0  0
  5 12  1  0  0  0
M  END
> <minimizedAffinity>
-5.33747

> <CNNscore>
0.6011102200

> <CNNaffinity>
4.1986317635

> <CNN_VS>
2.5238404274

> <CNNaffinity_variance>
0.5354484916

$$$$
[H]c1c([H])c([H])c2c(c1[H])c(C(=O)OC1([H])C([H])([H])C3([H])N(C([H])([H])[H])C([H])(C([H])([H])C3([H])[H])C1([H])[H])c([H])n2[H]


 22 25  0  0  0  0  0  0  0  0999 V2000
   35.6461  -18.7213   36.7523 C   0  0  0  0  0  0  0  0  0  0  0  0
   36.0338  -17.9111   37.6252 O   0  0  0  0  0  0  0  0  0  0  0  0
   34.4271  -18.4797   36.0096 C   0  0  0  0  0  0  0  0  0  0  0  0
   34.2029  -17.3822   35.1756 C   0  0  0  0  0  0  0  0  0  0  0  0
   32.9810  -17.4588   34.6422 N   0  0  0  0  0  0  0  0  0  0  0  0
   32.3701  -18.5692   35.0855 C   0  0  0  0  0  0  0  0  0  0  0  0
   31.1367  -19.1383   34.8728 C   0  0  0  0  0  0  0  0  0  0  0  0
   30.8008  -20.3078   35.4868 C   0  0  0  0  0  0  0  0  0  0  0  0
   31.6750  -20.9511   36.3306 C   0  0  0  0  0  0  0  0  0  0  0  0
   32.9116  -20.3863   36.5478 C   0  0  0  0  0  0  0  0  0  0  0  0
   33.2672  -19.2176   35.9437 C   0  0  0  0  0  0  0  0  0  0  0  0
   32.5062  -16.7987   33.9782 H   0  0  0  0  0  0  0  0  0  0  0  0
   36.4275  -19.8430   36.5348 O   0  0  0  0  0  0  0  0  0  0  0  0
   40.9212  -20.7607   33.4818 C   0  0  0  0  0  0  0  0  0  0  0  0
   39.6407  -20.6165   34.1363 N   0  0  0  0  0  0  0  0  0  0  0  0
   39.7026  -21.2032   35.4768 C   0  0  0  0  0  0  0  0  0  0  0  0
   40.5998  -20.2535   36.2008 C   0  0  0  0  0  0  0  0  0  0  0  0
   40.4672  -18.9021   35.5399 C   0  0  0  0  0  0  0  0  0  0  0  0
   39.4391  -19.2155   34.4451 C   0  0  0  0  0  0  0  0  0  0  0  0
   38.0840  -18.9528   35.0478 C   0  0  0  0  0  0  0  0  0  0  0  0
   37.8192  -19.7755   36.2827 C   0  0  0  0  0  0  0  0  0  0  0  0
   38.2868  -21.1938   36.0087 C   0  0  0  0  0  0  0  0  0  0  0  0
 14 15  1  0  0  0
 15 16  1  0  0  0
 16 17  1  0  0  0
 17 18  1  0  0  0
 18 19  1  0  0  0
 19 20  1  0  0  0
 20 21  1  0  0  0
 21 22  1  0  0  0
 21 13  1  0  0  0
 13  1  1  0  0  0
  1  2  2  0  0  0
  1  3  1  0  0  0
  3  4  2  0  0  0
  4  5  1  0  0  0
  5  6  1  0  0  0
  6  7  2  0  0  0
  7  8  1  0  0  0
  8  9  2  0  0  0
  9 10  1  0  0  0
 10 11  2  0  0  0
 19 15  1  0  0  0
 11  3  1  0  0  0
 22 16  1  0  0  0
 11  6  1  0  0  0
  5 12  1  0  0  0
M  END
> <minimizedAffinity>
-5.13281

> <CNNscore>
0.5894266367

> <CNNaffinity>
4.1896467209

> <CNN_VS>
2.4694893360

> <CNNaffinity_variance>
0.4035129547

$$$$
[H]c1c([H])c([H])c2c(c1[H])c(C(=O)OC1([H])C([H])([H])C3([H])N(C([H])([H])[H])C([H])(C([H])([H])C3([H])[H])C1([H])[H])c([H])n2[H]


 22 25  0  0  0  0  0  0  0  0999 V2000
   35.8447  -18.1034   36.0968 C   0  0  0  0  0  0  0  0  0  0  0  0
   36.3307  -18.6014   35.0554 O   0  0  0  0  0  0  0  0  0  0  0  0
   35.1183  -16.8520   36.0476 C   0  0  0  0  0  0  0  0  0  0  0  0
   33.8118  -16.7036   35.5770 C   0  0  0  0  0  0  0  0  0  0  0  0
   33.4387  -15.4245   35.6675 N   0  0  0  0  0  0  0  0  0  0  0  0
   34.4463  -14.7018   36.1826 C   0  0  0  0  0  0  0  0  0  0  0  0
   34.6174  -13.3725   36.4894 C   0  0  0  0  0  0  0  0  0  0  0  0
   35.7940  -12.9318   37.0176 C   0  0  0  0  0  0  0  0  0  0  0  0
   36.8384  -13.7928   37.2589 C   0  0  0  0  0  0  0  0  0  0  0  0
   36.6732  -15.1251   36.9538 C   0  0  0  0  0  0  0  0  0  0  0  0
   35.5049  -15.5862   36.4250 C   0  0  0  0  0  0  0  0  0  0  0  0
   32.5255  -14.9810   35.4003 H   0  0  0  0  0  0  0  0  0  0  0  0
   36.0325  -18.7965   37.2802 O   0  0  0  0  0  0  0  0  0  0  0  0
   32.7912  -22.4980   39.7599 C   0  0  0  0  0  0  0  0  0  0  0  0
   33.5575  -21.3911   39.2341 N   0  0  0  0  0  0  0  0  0  0  0  0
   34.9882  -21.6833   39.3469 C   0  0  0  0  0  0  0  0  0  0  0  0
   35.1723  -22.7738   38.3429 C   0  0  0  0  0  0  0  0  0  0  0  0
   34.1113  -22.6049   37.2816 C   0  0  0  0  0  0  0  0  0  0  0  0
   33.3841  -21.3558   37.7962 C   0  0  0  0  0  0  0  0  0  0  0  0
   34.0735  -20.1738   37.1667 C   0  0  0  0  0  0  0  0  0  0  0  0
   35.5442  -20.1089   37.4903 C   0  0  0  0  0  0  0  0  0  0  0  0
   35.7114  -20.4098   38.9691 C   0  0  0  0  0  0  0  0  0  0  0  0
 14 15  1  0  0  0
 15 16  1  0  0  0
 16 17  1  0  0  0
 17 18  1  0  0  0
 18 19  1  0  0  0
 19 20  1  0  0  0
 20 21  1  0  0  0
 21 22  1  0  0  0
 21 13  1  0  0  0
 13  1  1  0  0  0
  1  2  2  0  0  0
  1  3  1  0  0  0
  3  4  2  0  0  0
  4  5  1  0  0  0
  5  6  1  0  0  0
  6  7  2  0  0  0
  7  8  1  0  0  0
  8  9  2  0  0  0
  9 10  1  0  0  0
 10 11  2  0  0  0
 19 15  1  0  0  0
 11  3  1  0  0  0
 22 16  1  0  0  0
 11  6  1  0  0  0
  5 12  1  0  0  0
M  END
> <minimizedAffinity>
-6.13349

> <CNNscore>
0.5685399771

> <CNNaffinity>
4.2699656487

> <CNN_VS>
2.4276461601

> <CNNaffinity_variance>
0.5010105371

$$$$
[H]c1c([H])c([H])c2c(c1[H])c(C(=O)OC1([H])C([H])([H])C3([H])N(C([H])([H])[H])C([H])(C([H])([H])C3([H])[H])C1([H])[H])c([H])n2[H]


 22 25  0  0  0  0  0  0  0  0999 V2000
   36.9206  -18.3520   36.8024 C   0  0  0  0  0  0  0  0  0  0  0  0
   36.6508  -19.2064   37.6774 O   0  0  0  0  0  0  0  0  0  0  0  0
   36.0061  -17.2644   36.5251 C   0  0  0  0  0  0  0  0  0  0  0  0
   34.7691  -17.4015   35.8916 C   0  0  0  0  0  0  0  0  0  0  0  0
   34.1759  -16.2093   35.7900 N   0  0  0  0  0  0  0  0  0  0  0  0
   34.9676  -15.2701   36.3321 C   0  0  0  0  0  0  0  0  0  0  0  0
   34.8680  -13.9093   36.5014 C   0  0  0  0  0  0  0  0  0  0  0  0
   35.8707  -13.2139   37.1086 C   0  0  0  0  0  0  0  0  0  0  0  0
   37.0036  -13.8434   37.5675 C   0  0  0  0  0  0  0  0  0  0  0  0
   37.1092  -15.2060   37.4009 C   0  0  0  0  0  0  0  0  0  0  0  0
   36.1181  -15.9198   36.7964 C   0  0  0  0  0  0  0  0  0  0  0  0
   33.2453  -15.9669   35.3689 H   0  0  0  0  0  0  0  0  0  0  0  0
   38.1179  -18.4950   36.1225 O   0  0  0  0  0  0  0  0  0  0  0  0
   42.8930  -21.1473   35.4011 C   0  0  0  0  0  0  0  0  0  0  0  0
   41.6874  -20.3504   35.4212 N   0  0  0  0  0  0  0  0  0  0  0  0
   40.5152  -21.2284   35.4318 C   0  0  0  0  0  0  0  0  0  0  0  0
   40.5826  -21.8358   36.7947 C   0  0  0  0  0  0  0  0  0  0  0  0
   41.2991  -20.8601   37.6976 C   0  0  0  0  0  0  0  0  0  0  0  0
   41.5807  -19.7134   36.7180 C   0  0  0  0  0  0  0  0  0  0  0  0
   40.3988  -18.7836   36.8020 C   0  0  0  0  0  0  0  0  0  0  0  0
   39.0927  -19.4602   36.4734 C   0  0  0  0  0  0  0  0  0  0  0  0
   39.3121  -20.3304   35.2486 C   0  0  0  0  0  0  0  0  0  0  0  0
 14 15  1  0  0  0
 15 16  1  0  0  0
 16 17  1  0  0  0
 17 18  1  0  0  0
 18 19  1  0  0  0
 19 20  1  0  0  0
 20 21  1  0  0  0
 21 22  1  0  0  0
 21 13  1  0  0  0
 13  1  1  0  0  0
  1  2  2  0  0  0
  1  3  1  0  0  0
  3  4  2  0  0  0
  4  5  1  0  0  0
  5  6  1  0  0  0
  6  7  2  0  0  0
  7  8  1  0  0  0
  8  9  2  0  0  0
  9 10  1  0  0  0
 10 11  2  0  0  0
 19 15  1  0  0  0
 11  3  1  0  0  0
 22 16  1  0  0  0
 11  6  1  0  0  0
  5 12  1  0  0  0
M  END
> <minimizedAffinity>
-6.02452

> <CNNscore>
0.5459685922

> <CNNaffinity>
4.1856341362

> <CNN_VS>
2.2852246761

> <CNNaffinity_variance>
0.4242842793

$$$$
[H]c1c([H])c(N([H])C(=O)C2(C(=O)N([H])c3c([H])c([H])c(-c4c([H])c([H])c([H])c5c4c(N([H])[H])nn5[H])c([H])c3[H])C([H])([H])C2([H])[H])c(F)c([H])c1F


 38 42  0  0  0  0  0  0  0  0999 V2000
   34.7479  -14.3879   37.2307 C   0  0  0  0  0  0  0  0  0  0  0  0
   34.3263  -15.3273   36.3166 C   0  0  0  0  0  0  0  0  0  0  0  0
   35.0320  -16.4992   36.1544 C   0  0  0  0  0  0  0  0  0  0  0  0
   36.1847  -16.7860   36.8933 C   0  0  0  0  0  0  0  0  0  0  0  0
   36.5542  -15.8119   37.7860 C   0  0  0  0  0  0  0  0  0  0  0  0
   35.8696  -14.6329   37.9654 C   0  0  0  0  0  0  0  0  0  0  0  0
   36.4075  -12.3983   35.5979 N   0  0  0  0  0  0  0  0  0  0  0  0
   35.4340  -11.5430   36.1626 C   0  0  0  0  0  0  0  0  0  0  0  0
   35.3370  -10.2103   36.0221 N   0  0  0  0  0  0  0  0  0  0  0  0
   34.3024   -9.7458   36.6684 N   0  0  0  0  0  0  0  0  0  0  0  0
   33.6941  -10.7984   37.2533 C   0  0  0  0  0  0  0  0  0  0  0  0
   32.5704  -10.8194   38.0206 C   0  0  0  0  0  0  0  0  0  0  0  0
   32.1161  -12.0435   38.5121 C   0  0  0  0  0  0  0  0  0  0  0  0
   32.7952  -13.1939   38.2247 C   0  0  0  0  0  0  0  0  0  0  0  0
   33.9482  -13.1899   37.4387 C   0  0  0  0  0  0  0  0  0  0  0  0
   34.3798  -11.9786   36.9609 C   0  0  0  0  0  0  0  0  0  0  0  0
   36.1531  -13.0078   34.8199 H   0  0  0  0  0  0  0  0  0  0  0  0
   37.3666  -12.3913   35.9793 H   0  0  0  0  0  0  0  0  0  0  0  0
   34.0011   -8.7403   36.7295 H   0  0  0  0  0  0  0  0  0  0  0  0
   36.8144  -18.0398   36.7274 N   0  0  0  0  0  0  0  0  0  0  0  0
   36.4899  -19.2350   37.3568 C   0  0  0  0  0  0  0  0  0  0  0  0
   35.5294  -19.2076   38.2289 O   0  0  0  0  0  0  0  0  0  0  0  0
   37.6324  -18.0867   36.0445 H   0  0  0  0  0  0  0  0  0  0  0  0
   37.0879  -20.5715   37.1575 C   0  0  0  0  0  0  0  0  0  0  0  0
   37.1282  -21.3731   38.4638 C   0  0  0  0  0  0  0  0  0  0  0  0
   36.2057  -21.7446   37.3973 C   0  0  0  0  0  0  0  0  0  0  0  0
   38.2914  -20.8100   36.3143 C   0  0  0  0  0  0  0  0  0  0  0  0
   39.3525  -20.1187   36.5700 O   0  0  0  0  0  0  0  0  0  0  0  0
   38.3814  -21.7243   35.2531 N   0  0  0  0  0  0  0  0  0  0  0  0
   37.5213  -22.2736   35.0172 H   0  0  0  0  0  0  0  0  0  0  0  0
   39.5236  -21.9607   34.4574 C   0  0  0  0  0  0  0  0  0  0  0  0
   40.2269  -21.0037   33.7479 C   0  0  0  0  0  0  0  0  0  0  0  0
   41.3796  -21.2900   33.0187 C   0  0  0  0  0  0  0  0  0  0  0  0
   41.8471  -22.6023   33.0058 C   0  0  0  0  0  0  0  0  0  0  0  0
   42.9824  -22.8421   32.2775 F   0  0  0  0  0  0  0  0  0  0  0  0
   41.1794  -23.5855   33.6997 C   0  0  0  0  0  0  0  0  0  0  0  0
   40.0455  -23.2637   34.4064 C   0  0  0  0  0  0  0  0  0  0  0  0
   39.4068  -24.2415   35.0777 F   0  0  0  0  0  0  0  0  0  0  0  0
  7  8  1  0  0  0
  8  9  2  0  0  0
  9 10  1  0  0  0
 10 11  1  0  0  0
 11 12  2  0  0  0
 12 13  1  0  0  0
 13 14  2  0  0  0
 14 15  1  0  0  0
 15  1  1  0  0  0
  1  2  2  0  0  0
  2  3  1  0  0  0
  3  4  2  0  0  0
  4 20  1  0  0  0
 20 21  1  0  0  0
 21 22  2  0  0  0
 21 24  1  0  0  0
 24 25  1  0  0  0
 25 26  1  0  0  0
 24 27  1  0  0  0
 27 28  2  0  0  0
 27 29  1  0  0  0
 29 31  1  0  0  0
 31 32  2  0  0  0
 32 33  1  0  0  0
 33 34  2  0  0  0
 34 35  1  0  0  0
 34 36  1  0  0  0
 36 37  2  0  0  0
 37 38  1  0  0  0
  4  5  1  0  0  0
  5  6  2  0  0  0
 15 16  2  0  0  0
 16  8  1  0  0  0
 16 11  1  0  0  0
  6  1  1  0  0  0
 26 24  1  0  0  0
 37 31  1  0  0  0
  7 17  1  0  0  0
  7 18  1  0  0  0
 10 19  1  0  0  0
 20 23  1  0  0  0
 29 30  1  0  0  0
M  END
> <minimizedAffinity>
-7.14413

> <CNNscore>
0.4052461386

> <CNNaffinity>
6.0121202469

> <CNN_VS>
2.4363884926

> <CNNaffinity_variance>
0.0292960349

$$$$
[H]c1c([H])c(N([H])C(=O)C2(C(=O)N([H])c3c([H])c([H])c(-c4c([H])c([H])c([H])c5c4c(N([H])[H])nn5[H])c([H])c3[H])C([H])([H])C2([H])[H])c(F)c([H])c1F


 38 42  0  0  0  0  0  0  0  0999 V2000
   39.9830  -19.9274   36.4826 C   0  0  0  0  0  0  0  0  0  0  0  0
   38.9050  -19.1127   36.7471 C   0  0  0  0  0  0  0  0  0  0  0  0
   37.8336  -19.5956   37.4660 C   0  0  0  0  0  0  0  0  0  0  0  0
   37.7893  -20.9068   37.9515 C   0  0  0  0  0  0  0  0  0  0  0  0
   38.8911  -21.6686   37.6551 C   0  0  0  0  0  0  0  0  0  0  0  0
   39.9717  -21.2123   36.9375 C   0  0  0  0  0  0  0  0  0  0  0  0
   41.7966  -19.3746   38.8876 N   0  0  0  0  0  0  0  0  0  0  0  0
   42.5628  -18.8231   37.8355 C   0  0  0  0  0  0  0  0  0  0  0  0
   43.7465  -18.1944   37.9292 N   0  0  0  0  0  0  0  0  0  0  0  0
   44.1773  -17.8302   36.7521 N   0  0  0  0  0  0  0  0  0  0  0  0
   43.2558  -18.2288   35.8510 C   0  0  0  0  0  0  0  0  0  0  0  0
   43.2655  -18.0878   34.4976 C   0  0  0  0  0  0  0  0  0  0  0  0
   42.1952  -18.5975   33.7619 C   0  0  0  0  0  0  0  0  0  0  0  0
   41.1602  -19.2229   34.3983 C   0  0  0  0  0  0  0  0  0  0  0  0
   41.1354  -19.3768   35.7850 C   0  0  0  0  0  0  0  0  0  0  0  0
   42.1966  -18.8726   36.4931 C   0  0  0  0  0  0  0  0  0  0  0  0
   41.7527  -20.3877   39.0022 H   0  0  0  0  0  0  0  0  0  0  0  0
   41.2939  -18.7422   39.5301 H   0  0  0  0  0  0  0  0  0  0  0  0
   45.0706  -17.3165   36.5428 H   0  0  0  0  0  0  0  0  0  0  0  0
   36.6920  -21.3103   38.7447 N   0  0  0  0  0  0  0  0  0  0  0  0
   35.5509  -21.9821   38.3245 C   0  0  0  0  0  0  0  0  0  0  0  0
   35.4442  -22.2407   37.0574 O   0  0  0  0  0  0  0  0  0  0  0  0
   36.7328  -21.0788   39.7851 H   0  0  0  0  0  0  0  0  0  0  0  0
   34.4190  -22.4710   39.1390 C   0  0  0  0  0  0  0  0  0  0  0  0
   34.8183  -23.6797   39.9936 C   0  0  0  0  0  0  0  0  0  0  0  0
   34.5681  -22.3851   40.6162 C   0  0  0  0  0  0  0  0  0  0  0  0
   33.0284  -22.5845   38.6198 C   0  0  0  0  0  0  0  0  0  0  0  0
   32.0578  -22.3996   39.4521 O   0  0  0  0  0  0  0  0  0  0  0  0
   32.6689  -22.8802   37.2955 N   0  0  0  0  0  0  0  0  0  0  0  0
   33.4447  -23.0581   36.6147 H   0  0  0  0  0  0  0  0  0  0  0  0
   31.3516  -22.9790   36.7968 C   0  0  0  0  0  0  0  0  0  0  0  0
   30.6100  -24.1425   36.6971 C   0  0  0  0  0  0  0  0  0  0  0  0
   29.2928  -24.1699   36.2422 C   0  0  0  0  0  0  0  0  0  0  0  0
   28.6940  -22.9676   35.8725 C   0  0  0  0  0  0  0  0  0  0  0  0
   27.3990  -23.0373   35.4309 F   0  0  0  0  0  0  0  0  0  0  0  0
   29.3947  -21.7862   35.9580 C   0  0  0  0  0  0  0  0  0  0  0  0
   30.6922  -21.8004   36.4108 C   0  0  0  0  0  0  0  0  0  0  0  0
   31.3602  -20.6330   36.4855 F   0  0  0  0  0  0  0  0  0  0  0  0
  7  8  1  0  0  0
  8  9  2  0  0  0
  9 10  1  0  0  0
 10 11  1  0  0  0
 11 12  2  0  0  0
 12 13  1  0  0  0
 13 14  2  0  0  0
 14 15  1  0  0  0
 15  1  1  0  0  0
  1  2  2  0  0  0
  2  3  1  0  0  0
  3  4  2  0  0  0
  4 20  1  0  0  0
 20 21  1  0  0  0
 21 22  2  0  0  0
 21 24  1  0  0  0
 24 25  1  0  0  0
 25 26  1  0  0  0
 24 27  1  0  0  0
 27 28  2  0  0  0
 27 29  1  0  0  0
 29 31  1  0  0  0
 31 32  2  0  0  0
 32 33  1  0  0  0
 33 34  2  0  0  0
 34 35  1  0  0  0
 34 36  1  0  0  0
 36 37  2  0  0  0
 37 38  1  0  0  0
  4  5  1  0  0  0
  5  6  2  0  0  0
 15 16  2  0  0  0
 16  8  1  0  0  0
 16 11  1  0  0  0
  6  1  1  0  0  0
 26 24  1  0  0  0
 37 31  1  0  0  0
  7 17  1  0  0  0
  7 18  1  0  0  0
 10 19  1  0  0  0
 20 23  1  0  0  0
 29 30  1  0  0  0
M  END
> <minimizedAffinity>
-5.07177

> <CNNscore>
0.3957259655

> <CNNaffinity>
5.1964693069

> <CNN_VS>
2.0563778877

> <CNNaffinity_variance>
0.2139879018

$$$$
[H]c1c([H])c(N([H])C(=O)C2(C(=O)N([H])c3c([H])c([H])c(-c4c([H])c([H])c([H])c5c4c(N([H])[H])nn5[H])c([H])c3[H])C([H])([H])C2([H])[H])c(F)c([H])c1F


 38 42  0  0  0  0  0  0  0  0999 V2000
   41.1561  -20.4021   38.2891 C   0  0  0  0  0  0  0  0  0  0  0  0
   40.8969  -19.1716   37.7283 C   0  0  0  0  0  0  0  0  0  0  0  0
   39.8228  -19.0108   36.8807 C   0  0  0  0  0  0  0  0  0  0  0  0
   38.9628  -20.0651   36.5557 C   0  0  0  0  0  0  0  0  0  0  0  0
   39.2735  -21.2647   37.1444 C   0  0  0  0  0  0  0  0  0  0  0  0
   40.3405  -21.4528   37.9913 C   0  0  0  0  0  0  0  0  0  0  0  0
   39.5377  -20.8564   40.8490 N   0  0  0  0  0  0  0  0  0  0  0  0
   40.8519  -20.7889   41.3653 C   0  0  0  0  0  0  0  0  0  0  0  0
   41.2289  -20.8653   42.6526 N   0  0  0  0  0  0  0  0  0  0  0  0
   42.5269  -20.7847   42.7655 N   0  0  0  0  0  0  0  0  0  0  0  0
   43.0265  -20.6525   41.5193 C   0  0  0  0  0  0  0  0  0  0  0  0
   44.3244  -20.5451   41.1247 C   0  0  0  0  0  0  0  0  0  0  0  0
   44.6046  -20.4298   39.7629 C   0  0  0  0  0  0  0  0  0  0  0  0
   43.5874  -20.4234   38.8505 C   0  0  0  0  0  0  0  0  0  0  0  0
   42.2515  -20.5337   39.2382 C   0  0  0  0  0  0  0  0  0  0  0  0
   41.9935  -20.6493   40.5805 C   0  0  0  0  0  0  0  0  0  0  0  0
   39.2296  -21.6989   40.3624 H   0  0  0  0  0  0  0  0  0  0  0  0
   38.9046  -20.0511   40.9757 H   0  0  0  0  0  0  0  0  0  0  0  0
   43.0812  -20.8104   43.6586 H   0  0  0  0  0  0  0  0  0  0  0  0
   37.8384  -19.8095   35.7393 N   0  0  0  0  0  0  0  0  0  0  0  0
   36.5267  -19.6092   36.1509 C   0  0  0  0  0  0  0  0  0  0  0  0
   36.2798  -19.7042   37.4213 O   0  0  0  0  0  0  0  0  0  0  0  0
   38.0025  -19.7624   34.6864 H   0  0  0  0  0  0  0  0  0  0  0  0
   35.3447  -19.2789   35.3280 C   0  0  0  0  0  0  0  0  0  0  0  0
   35.3492  -17.8073   34.8974 C   0  0  0  0  0  0  0  0  0  0  0  0
   35.5996  -18.8629   33.9230 C   0  0  0  0  0  0  0  0  0  0  0  0
   33.9734  -19.7707   35.6340 C   0  0  0  0  0  0  0  0  0  0  0  0
   33.4005  -19.3300   36.7048 O   0  0  0  0  0  0  0  0  0  0  0  0
   33.2371  -20.6817   34.8606 N   0  0  0  0  0  0  0  0  0  0  0  0
   33.6983  -21.0678   34.0031 H   0  0  0  0  0  0  0  0  0  0  0  0
   31.9327  -21.1432   35.1419 C   0  0  0  0  0  0  0  0  0  0  0  0
   31.6089  -22.3803   35.6698 C   0  0  0  0  0  0  0  0  0  0  0  0
   30.3031  -22.7610   35.9735 C   0  0  0  0  0  0  0  0  0  0  0  0
   29.2751  -21.8512   35.7364 C   0  0  0  0  0  0  0  0  0  0  0  0
   28.0065  -22.2638   36.0482 F   0  0  0  0  0  0  0  0  0  0  0  0
   29.5526  -20.6085   35.2143 C   0  0  0  0  0  0  0  0  0  0  0  0
   30.8533  -20.2704   34.9270 C   0  0  0  0  0  0  0  0  0  0  0  0
   31.1026  -19.0494   34.4155 F   0  0  0  0  0  0  0  0  0  0  0  0
  7  8  1  0  0  0
  8  9  2  0  0  0
  9 10  1  0  0  0
 10 11  1  0  0  0
 11 12  2  0  0  0
 12 13  1  0  0  0
 13 14  2  0  0  0
 14 15  1  0  0  0
 15  1  1  0  0  0
  1  2  2  0  0  0
  2  3  1  0  0  0
  3  4  2  0  0  0
  4 20  1  0  0  0
 20 21  1  0  0  0
 21 22  2  0  0  0
 21 24  1  0  0  0
 24 25  1  0  0  0
 25 26  1  0  0  0
 24 27  1  0  0  0
 27 28  2  0  0  0
 27 29  1  0  0  0
 29 31  1  0  0  0
 31 32  2  0  0  0
 32 33  1  0  0  0
 33 34  2  0  0  0
 34 35  1  0  0  0
 34 36  1  0  0  0
 36 37  2  0  0  0
 37 38  1  0  0  0
  4  5  1  0  0  0
  5  6  2  0  0  0
 15 16  2  0  0  0
 16  8  1  0  0  0
 16 11  1  0  0  0
  6  1  1  0  0  0
 26 24  1  0  0  0
 37 31  1  0  0  0
  7 17  1  0  0  0
  7 18  1  0  0  0
 10 19  1  0  0  0
 20 23  1  0  0  0
 29 30  1  0  0  0
M  END
> <minimizedAffinity>
-5.88381

> <CNNscore>
0.3596659005

> <CNNaffinity>
5.1560201645

> <CNN_VS>
1.8544446230

> <CNNaffinity_variance>
0.0874819756

$$$$
[H]c1c([H])c(N([H])C(=O)C2(C(=O)N([H])c3c([H])c([H])c(-c4c([H])c([H])c([H])c5c4c(N([H])[H])nn5[H])c([H])c3[H])C([H])([H])C2([H])[H])c(F)c([H])c1F


 38 42  0  0  0  0  0  0  0  0999 V2000
   39.2668  -20.0228   36.6830 C   0  0  0  0  0  0  0  0  0  0  0  0
   38.0472  -19.4078   36.8563 C   0  0  0  0  0  0  0  0  0  0  0  0
   37.0536  -20.0339   37.5765 C   0  0  0  0  0  0  0  0  0  0  0  0
   37.2307  -21.2958   38.1536 C   0  0  0  0  0  0  0  0  0  0  0  0
   38.4654  -21.8566   37.9453 C   0  0  0  0  0  0  0  0  0  0  0  0
   39.4729  -21.2547   37.2287 C   0  0  0  0  0  0  0  0  0  0  0  0
   38.7200  -21.0109   33.8363 N   0  0  0  0  0  0  0  0  0  0  0  0
   39.9035  -20.2624   33.6428 C   0  0  0  0  0  0  0  0  0  0  0  0
   40.5890  -20.0988   32.4989 N   0  0  0  0  0  0  0  0  0  0  0  0
   41.6259  -19.3272   32.6812 N   0  0  0  0  0  0  0  0  0  0  0  0
   41.6292  -18.9668   33.9812 C   0  0  0  0  0  0  0  0  0  0  0  0
   42.5028  -18.1604   34.6435 C   0  0  0  0  0  0  0  0  0  0  0  0
   42.2948  -17.9177   36.0015 C   0  0  0  0  0  0  0  0  0  0  0  0
   41.2322  -18.4857   36.6460 C   0  0  0  0  0  0  0  0  0  0  0  0
   40.3267  -19.3138   35.9815 C   0  0  0  0  0  0  0  0  0  0  0  0
   40.5438  -19.5398   34.6460 C   0  0  0  0  0  0  0  0  0  0  0  0
   37.8318  -20.5254   33.9664 H   0  0  0  0  0  0  0  0  0  0  0  0
   38.7706  -22.0418   33.8391 H   0  0  0  0  0  0  0  0  0  0  0  0
   42.3317  -19.0437   31.9552 H   0  0  0  0  0  0  0  0  0  0  0  0
   36.1939  -21.8440   38.9414 N   0  0  0  0  0  0  0  0  0  0  0  0
   36.1206  -21.8832   40.3281 C   0  0  0  0  0  0  0  0  0  0  0  0
   37.1273  -21.4037   40.9918 O   0  0  0  0  0  0  0  0  0  0  0  0
   35.3689  -22.2797   38.4245 H   0  0  0  0  0  0  0  0  0  0  0  0
   35.0235  -22.3921   41.1772 C   0  0  0  0  0  0  0  0  0  0  0  0
   35.4597  -23.6167   41.9902 C   0  0  0  0  0  0  0  0  0  0  0  0
   35.2318  -22.3358   42.6488 C   0  0  0  0  0  0  0  0  0  0  0  0
   33.6135  -22.4994   40.7121 C   0  0  0  0  0  0  0  0  0  0  0  0
   32.7413  -21.7104   41.2467 O   0  0  0  0  0  0  0  0  0  0  0  0
   33.1367  -23.3902   39.7376 N   0  0  0  0  0  0  0  0  0  0  0  0
   33.8272  -24.0539   39.3135 H   0  0  0  0  0  0  0  0  0  0  0  0
   31.8024  -23.4884   39.2865 C   0  0  0  0  0  0  0  0  0  0  0  0
   30.8084  -24.2583   39.8635 C   0  0  0  0  0  0  0  0  0  0  0  0
   29.4934  -24.2757   39.4019 C   0  0  0  0  0  0  0  0  0  0  0  0
   29.1640  -23.4777   38.3085 C   0  0  0  0  0  0  0  0  0  0  0  0
   27.8617  -23.5232   37.8858 F   0  0  0  0  0  0  0  0  0  0  0  0
   30.1215  -22.6944   37.7054 C   0  0  0  0  0  0  0  0  0  0  0  0
   31.4076  -22.7051   38.1894 C   0  0  0  0  0  0  0  0  0  0  0  0
   32.3294  -21.9318   37.5835 F   0  0  0  0  0  0  0  0  0  0  0  0
  7  8  1  0  0  0
  8  9  2  0  0  0
  9 10  1  0  0  0
 10 11  1  0  0  0
 11 12  2  0  0  0
 12 13  1  0  0  0
 13 14  2  0  0  0
 14 15  1  0  0  0
 15  1  1  0  0  0
  1  2  2  0  0  0
  2  3  1  0  0  0
  3  4  2  0  0  0
  4 20  1  0  0  0
 20 21  1  0  0  0
 21 22  2  0  0  0
 21 24  1  0  0  0
 24 25  1  0  0  0
 25 26  1  0  0  0
 24 27  1  0  0  0
 27 28  2  0  0  0
 27 29  1  0  0  0
 29 31  1  0  0  0
 31 32  2  0  0  0
 32 33  1  0  0  0
 33 34  2  0  0  0
 34 35  1  0  0  0
 34 36  1  0  0  0
 36 37  2  0  0  0
 37 38  1  0  0  0
  4  5  1  0  0  0
  5  6  2  0  0  0
 15 16  2  0  0  0
 16  8  1  0  0  0
 16 11  1  0  0  0
  6  1  1  0  0  0
 26 24  1  0  0  0
 37 31  1  0  0  0
  7 17  1  0  0  0
  7 18  1  0  0  0
 10 19  1  0  0  0
 20 23  1  0  0  0
 29 30  1  0  0  0
M  END
> <minimizedAffinity>
-4.94759

> <CNNscore>
0.3587048352

> <CNNaffinity>
5.2240524292

> <CNN_VS>
1.8738929033

> <CNNaffinity_variance>
0.0571194291

$$$$
[H]c1c([H])c(N([H])C(=O)C2(C(=O)N([H])c3c([H])c([H])c(-c4c([H])c([H])c([H])c5c4c(N([H])[H])nn5[H])c([H])c3[H])C([H])([H])C2([H])[H])c(F)c([H])c1F


 38 42  0  0  0  0  0  0  0  0999 V2000
   34.1596  -13.6268   37.0714 C   0  0  0  0  0  0  0  0  0  0  0  0
   35.2841  -13.7648   37.8538 C   0  0  0  0  0  0  0  0  0  0  0  0
   36.1497  -14.8151   37.6408 C   0  0  0  0  0  0  0  0  0  0  0  0
   35.9339  -15.7709   36.6425 C   0  0  0  0  0  0  0  0  0  0  0  0
   34.7975  -15.5799   35.8979 C   0  0  0  0  0  0  0  0  0  0  0  0
   33.9161  -14.5423   36.0914 C   0  0  0  0  0  0  0  0  0  0  0  0
   35.9987  -11.4484   35.9529 N   0  0  0  0  0  0  0  0  0  0  0  0
   34.9175  -10.6737   36.4315 C   0  0  0  0  0  0  0  0  0  0  0  0
   34.8008   -9.3353   36.4145 N   0  0  0  0  0  0  0  0  0  0  0  0
   33.6589   -8.9588   36.9227 N   0  0  0  0  0  0  0  0  0  0  0  0
   32.9979  -10.0772   37.2862 C   0  0  0  0  0  0  0  0  0  0  0  0
   31.7644  -10.1977   37.8482 C   0  0  0  0  0  0  0  0  0  0  0  0
   31.2761  -11.4743   38.1282 C   0  0  0  0  0  0  0  0  0  0  0  0
   32.0312  -12.5766   37.8418 C   0  0  0  0  0  0  0  0  0  0  0  0
   33.2972  -12.4706   37.2645 C   0  0  0  0  0  0  0  0  0  0  0  0
   33.7612  -11.2086   36.9929 C   0  0  0  0  0  0  0  0  0  0  0  0
   35.8964  -11.9750   35.0847 H   0  0  0  0  0  0  0  0  0  0  0  0
   36.8810  -11.4672   36.4882 H   0  0  0  0  0  0  0  0  0  0  0  0
   33.3185   -7.9704   37.0356 H   0  0  0  0  0  0  0  0  0  0  0  0
   36.9024  -16.7778   36.4327 N   0  0  0  0  0  0  0  0  0  0  0  0
   36.8962  -18.0712   36.9399 C   0  0  0  0  0  0  0  0  0  0  0  0
   35.9200  -18.3965   37.7305 O   0  0  0  0  0  0  0  0  0  0  0  0
   37.7371  -16.5291   35.8170 H   0  0  0  0  0  0  0  0  0  0  0  0
   37.8599  -19.1627   36.6880 C   0  0  0  0  0  0  0  0  0  0  0  0
   37.8726  -19.5756   35.2115 C   0  0  0  0  0  0  0  0  0  0  0  0
   39.0023  -18.8551   35.7867 C   0  0  0  0  0  0  0  0  0  0  0  0
   38.0307  -20.3276   37.5989 C   0  0  0  0  0  0  0  0  0  0  0  0
   39.2100  -20.5503   38.0772 O   0  0  0  0  0  0  0  0  0  0  0  0
   37.0191  -21.2190   37.9891 N   0  0  0  0  0  0  0  0  0  0  0  0
   36.0631  -21.0667   37.5892 H   0  0  0  0  0  0  0  0  0  0  0  0
   37.1746  -22.3190   38.8605 C   0  0  0  0  0  0  0  0  0  0  0  0
   37.5398  -23.6003   38.4880 C   0  0  0  0  0  0  0  0  0  0  0  0
   37.7267  -24.6355   39.4023 C   0  0  0  0  0  0  0  0  0  0  0  0
   37.5390  -24.3662   40.7562 C   0  0  0  0  0  0  0  0  0  0  0  0
   37.7322  -25.4102   41.6220 F   0  0  0  0  0  0  0  0  0  0  0  0
   37.1776  -23.1048   41.1710 C   0  0  0  0  0  0  0  0  0  0  0  0
   37.0019  -22.1104   40.2388 C   0  0  0  0  0  0  0  0  0  0  0  0
   36.6471  -20.8832   40.6663 F   0  0  0  0  0  0  0  0  0  0  0  0
  7  8  1  0  0  0
  8  9  2  0  0  0
  9 10  1  0  0  0
 10 11  1  0  0  0
 11 12  2  0  0  0
 12 13  1  0  0  0
 13 14  2  0  0  0
 14 15  1  0  0  0
 15  1  1  0  0  0
  1  2  2  0  0  0
  2  3  1  0  0  0
  3  4  2  0  0  0
  4 20  1  0  0  0
 20 21  1  0  0  0
 21 22  2  0  0  0
 21 24  1  0  0  0
 24 25  1  0  0  0
 25 26  1  0  0  0
 24 27  1  0  0  0
 27 28  2  0  0  0
 27 29  1  0  0  0
 29 31  1  0  0  0
 31 32  2  0  0  0
 32 33  1  0  0  0
 33 34  2  0  0  0
 34 35  1  0  0  0
 34 36  1  0  0  0
 36 37  2  0  0  0
 37 38  1  0  0  0
  4  5  1  0  0  0
  5  6  2  0  0  0
 15 16  2  0  0  0
 16  8  1  0  0  0
 16 11  1  0  0  0
  6  1  1  0  0  0
 26 24  1  0  0  0
 37 31  1  0  0  0
  7 17  1  0  0  0
  7 18  1  0  0  0
 10 19  1  0  0  0
 20 23  1  0  0  0
 29 30  1  0  0  0
M  END
> <minimizedAffinity>
-6.76427

> <CNNscore>
0.2943775356

> <CNNaffinity>
6.0203475952

> <CNN_VS>
1.7722550631

> <CNNaffinity_variance>
0.0485603698

$$$$
[H]c1c([H])c(N([H])C(=O)C2(C(=O)N([H])c3c([H])c([H])c(-c4c([H])c([H])c([H])c5c4c(N([H])[H])nn5[H])c([H])c3[H])C([H])([H])C2([H])[H])c(F)c([H])c1F


 38 42  0  0  0  0  0  0  0  0999 V2000
   34.6528  -14.3730   37.1477 C   0  0  0  0  0  0  0  0  0  0  0  0
   35.8431  -14.4862   37.8305 C   0  0  0  0  0  0  0  0  0  0  0  0
   36.7582  -15.4505   37.4691 C   0  0  0  0  0  0  0  0  0  0  0  0
   36.5286  -16.3412   36.4152 C   0  0  0  0  0  0  0  0  0  0  0  0
   35.3260  -16.1790   35.7752 C   0  0  0  0  0  0  0  0  0  0  0  0
   34.3944  -15.2271   36.1173 C   0  0  0  0  0  0  0  0  0  0  0  0
   36.1004  -12.0250   35.8172 N   0  0  0  0  0  0  0  0  0  0  0  0
   35.0416  -11.3566   36.4731 C   0  0  0  0  0  0  0  0  0  0  0  0
   34.8067  -10.0341   36.5070 N   0  0  0  0  0  0  0  0  0  0  0  0
   33.7276   -9.7681   37.1915 N   0  0  0  0  0  0  0  0  0  0  0  0
   33.2307  -10.9456   37.6234 C   0  0  0  0  0  0  0  0  0  0  0  0
   32.1133  -11.1834   38.3628 C   0  0  0  0  0  0  0  0  0  0  0  0
   31.7876  -12.5018   38.6821 C   0  0  0  0  0  0  0  0  0  0  0  0
   32.5837  -13.5281   38.2575 C   0  0  0  0  0  0  0  0  0  0  0  0
   33.7321  -13.3017   37.4977 C   0  0  0  0  0  0  0  0  0  0  0  0
   34.0364  -12.0000   37.1901 C   0  0  0  0  0  0  0  0  0  0  0  0
   35.9130  -12.5492   34.9619 H   0  0  0  0  0  0  0  0  0  0  0  0
   37.0526  -11.9697   36.2119 H   0  0  0  0  0  0  0  0  0  0  0  0
   33.3230   -8.8158   37.3790 H   0  0  0  0  0  0  0  0  0  0  0  0
   37.5434  -17.2549   36.0528 N   0  0  0  0  0  0  0  0  0  0  0  0
   37.7336  -18.5406   36.5436 C   0  0  0  0  0  0  0  0  0  0  0  0
   36.9223  -18.9511   37.4694 O   0  0  0  0  0  0  0  0  0  0  0  0
   38.2490  -16.9329   35.3206 H   0  0  0  0  0  0  0  0  0  0  0  0
   38.7451  -19.5392   36.1395 C   0  0  0  0  0  0  0  0  0  0  0  0
   38.2338  -20.4340   35.0045 C   0  0  0  0  0  0  0  0  0  0  0  0
   39.2699  -19.4397   34.7515 C   0  0  0  0  0  0  0  0  0  0  0  0
   39.5853  -20.2901   37.1123 C   0  0  0  0  0  0  0  0  0  0  0  0
   40.7732  -20.6363   36.7407 O   0  0  0  0  0  0  0  0  0  0  0  0
   39.2019  -20.6643   38.4098 N   0  0  0  0  0  0  0  0  0  0  0  0
   38.2323  -20.4132   38.7162 H   0  0  0  0  0  0  0  0  0  0  0  0
   39.9990  -21.3678   39.3389 C   0  0  0  0  0  0  0  0  0  0  0  0
   39.8968  -22.7152   39.6352 C   0  0  0  0  0  0  0  0  0  0  0  0
   40.7473  -23.3659   40.5273 C   0  0  0  0  0  0  0  0  0  0  0  0
   41.7498  -22.6242   41.1483 C   0  0  0  0  0  0  0  0  0  0  0  0
   42.5643  -23.3005   42.0178 F   0  0  0  0  0  0  0  0  0  0  0  0
   41.8888  -21.2814   40.8808 C   0  0  0  0  0  0  0  0  0  0  0  0
   41.0298  -20.6754   39.9956 C   0  0  0  0  0  0  0  0  0  0  0  0
   41.1828  -19.3599   39.7490 F   0  0  0  0  0  0  0  0  0  0  0  0
  7  8  1  0  0  0
  8  9  2  0  0  0
  9 10  1  0  0  0
 10 11  1  0  0  0
 11 12  2  0  0  0
 12 13  1  0  0  0
 13 14  2  0  0  0
 14 15  1  0  0  0
 15  1  1  0  0  0
  1  2  2  0  0  0
  2  3  1  0  0  0
  3  4  2  0  0  0
  4 20  1  0  0  0
 20 21  1  0  0  0
 21 22  2  0  0  0
 21 24  1  0  0  0
 24 25  1  0  0  0
 25 26  1  0  0  0
 24 27  1  0  0  0
 27 28  2  0  0  0
 27 29  1  0  0  0
 29 31  1  0  0  0
 31 32  2  0  0  0
 32 33  1  0  0  0
 33 34  2  0  0  0
 34 35  1  0  0  0
 34 36  1  0  0  0
 36 37  2  0  0  0
 37 38  1  0  0  0
  4  5  1  0  0  0
  5  6  2  0  0  0
 15 16  2  0  0  0
 16  8  1  0  0  0
 16 11  1  0  0  0
  6  1  1  0  0  0
 26 24  1  0  0  0
 37 31  1  0  0  0
  7 17  1  0  0  0
  7 18  1  0  0  0
 10 19  1  0  0  0
 20 23  1  0  0  0
 29 30  1  0  0  0
M  END
> <minimizedAffinity>
-7.13842

> <CNNscore>
0.2927018702

> <CNNaffinity>
5.9257369041

> <CNN_VS>
1.7344743013

> <CNNaffinity_variance>
0.1037168726

$$$$
[H]c1c([H])c(N([H])C(=O)C2(C(=O)N([H])c3c([H])c([H])c(-c4c([H])c([H])c([H])c5c4c(N([H])[H])nn5[H])c([H])c3[H])C([H])([H])C2([H])[H])c(F)c([H])c1F


 38 42  0  0  0  0  0  0  0  0999 V2000
   34.6531  -14.0129   37.2038 C   0  0  0  0  0  0  0  0  0  0  0  0
   34.2693  -14.9702   36.2915 C   0  0  0  0  0  0  0  0  0  0  0  0
   34.9898  -16.1381   36.1708 C   0  0  0  0  0  0  0  0  0  0  0  0
   36.1204  -16.4029   36.9508 C   0  0  0  0  0  0  0  0  0  0  0  0
   36.4525  -15.4118   37.8394 C   0  0  0  0  0  0  0  0  0  0  0  0
   35.7525  -14.2363   37.9780 C   0  0  0  0  0  0  0  0  0  0  0  0
   36.3899  -12.0149   35.6642 N   0  0  0  0  0  0  0  0  0  0  0  0
   35.3823  -11.1646   36.1740 C   0  0  0  0  0  0  0  0  0  0  0  0
   35.2863   -9.8324   36.0280 N   0  0  0  0  0  0  0  0  0  0  0  0
   34.2152   -9.3733   36.6160 N   0  0  0  0  0  0  0  0  0  0  0  0
   33.5810  -10.4289   37.1669 C   0  0  0  0  0  0  0  0  0  0  0  0
   32.4169  -10.4558   37.8711 C   0  0  0  0  0  0  0  0  0  0  0  0
   31.9425  -11.6821   38.3372 C   0  0  0  0  0  0  0  0  0  0  0  0
   32.6424  -12.8290   38.0881 C   0  0  0  0  0  0  0  0  0  0  0  0
   33.8369  -12.8191   37.3668 C   0  0  0  0  0  0  0  0  0  0  0  0
   34.2879  -11.6056   36.9132 C   0  0  0  0  0  0  0  0  0  0  0  0
   36.1820  -12.6257   34.8736 H   0  0  0  0  0  0  0  0  0  0  0  0
   37.3265  -12.0028   36.0980 H   0  0  0  0  0  0  0  0  0  0  0  0
   33.9058   -8.3694   36.6601 H   0  0  0  0  0  0  0  0  0  0  0  0
   36.7657  -17.6534   36.8252 N   0  0  0  0  0  0  0  0  0  0  0  0
   36.3581  -18.8691   37.3601 C   0  0  0  0  0  0  0  0  0  0  0  0
   35.2884  -18.8681   38.0947 O   0  0  0  0  0  0  0  0  0  0  0  0
   37.6686  -17.6800   36.2579 H   0  0  0  0  0  0  0  0  0  0  0  0
   36.9766  -20.2008   37.1940 C   0  0  0  0  0  0  0  0  0  0  0  0
   36.7316  -21.0939   38.4159 C   0  0  0  0  0  0  0  0  0  0  0  0
   36.0562  -21.3683   37.1530 C   0  0  0  0  0  0  0  0  0  0  0  0
   38.3310  -20.4050   36.6109 C   0  0  0  0  0  0  0  0  0  0  0  0
   38.4046  -20.8563   35.4026 O   0  0  0  0  0  0  0  0  0  0  0  0
   39.5499  -20.1531   37.2598 N   0  0  0  0  0  0  0  0  0  0  0  0
   39.5067  -19.8114   38.2489 H   0  0  0  0  0  0  0  0  0  0  0  0
   40.8362  -20.3361   36.7070 C   0  0  0  0  0  0  0  0  0  0  0  0
   41.3983  -21.5490   36.3511 C   0  0  0  0  0  0  0  0  0  0  0  0
   42.6562  -21.6622   35.7618 C   0  0  0  0  0  0  0  0  0  0  0  0
   43.3810  -20.4978   35.5172 C   0  0  0  0  0  0  0  0  0  0  0  0
   44.6124  -20.6520   34.9370 F   0  0  0  0  0  0  0  0  0  0  0  0
   42.8586  -19.2698   35.8534 C   0  0  0  0  0  0  0  0  0  0  0  0
   41.6149  -19.1995   36.4338 C   0  0  0  0  0  0  0  0  0  0  0  0
   41.1230  -17.9874   36.7560 F   0  0  0  0  0  0  0  0  0  0  0  0
  7  8  1  0  0  0
  8  9  2  0  0  0
  9 10  1  0  0  0
 10 11  1  0  0  0
 11 12  2  0  0  0
 12 13  1  0  0  0
 13 14  2  0  0  0
 14 15  1  0  0  0
 15  1  1  0  0  0
  1  2  2  0  0  0
  2  3  1  0  0  0
  3  4  2  0  0  0
  4 20  1  0  0  0
 20 21  1  0  0  0
 21 22  2  0  0  0
 21 24  1  0  0  0
 24 25  1  0  0  0
 25 26  1  0  0  0
 24 27  1  0  0  0
 27 28  2  0  0  0
 27 29  1  0  0  0
 29 31  1  0  0  0
 31 32  2  0  0  0
 32 33  1  0  0  0
 33 34  2  0  0  0
 34 35  1  0  0  0
 34 36  1  0  0  0
 36 37  2  0  0  0
 37 38  1  0  0  0
  4  5  1  0  0  0
  5  6  2  0  0  0
 15 16  2  0  0  0
 16  8  1  0  0  0
 16 11  1  0  0  0
  6  1  1  0  0  0
 26 24  1  0  0  0
 37 31  1  0  0  0
  7 17  1  0  0  0
  7 18  1  0  0  0
 10 19  1  0  0  0
 20 23  1  0  0  0
 29 30  1  0  0  0
M  END
> <minimizedAffinity>
-6.68017

> <CNNscore>
0.2706036568

> <CNNaffinity>
6.1869516373

> <CNN_VS>
1.6742117405

> <CNNaffinity_variance>
0.1370208710

$$$$
[H]c1c([H])c(N([H])C(=O)C2(C(=O)N([H])c3c([H])c([H])c(-c4c([H])c([H])c([H])c5c4c(N([H])[H])nn5[H])c([H])c3[H])C([H])([H])C2([H])[H])c(F)c([H])c1F


 38 42  0  0  0  0  0  0  0  0999 V2000
   34.1791  -12.5393   36.8915 C   0  0  0  0  0  0  0  0  0  0  0  0
   33.5081  -13.3631   36.0159 C   0  0  0  0  0  0  0  0  0  0  0  0
   33.8841  -14.6816   35.8814 C   0  0  0  0  0  0  0  0  0  0  0  0
   34.9415  -15.2354   36.6109 C   0  0  0  0  0  0  0  0  0  0  0  0
   35.5705  -14.3651   37.4649 C   0  0  0  0  0  0  0  0  0  0  0  0
   35.2171  -13.0448   37.6159 C   0  0  0  0  0  0  0  0  0  0  0  0
   31.4245  -13.0999   38.1068 N   0  0  0  0  0  0  0  0  0  0  0  0
   31.3820  -11.6935   37.9714 C   0  0  0  0  0  0  0  0  0  0  0  0
   30.3601  -10.8743   38.2710 N   0  0  0  0  0  0  0  0  0  0  0  0
   30.6749   -9.6291   38.0382 N   0  0  0  0  0  0  0  0  0  0  0  0
   31.9410   -9.6199   37.5724 C   0  0  0  0  0  0  0  0  0  0  0  0
   32.7096   -8.5590   37.2041 C   0  0  0  0  0  0  0  0  0  0  0  0
   34.0109   -8.7950   36.7600 C   0  0  0  0  0  0  0  0  0  0  0  0
   34.4945  -10.0715   36.6974 C   0  0  0  0  0  0  0  0  0  0  0  0
   33.7200  -11.1701   37.0723 C   0  0  0  0  0  0  0  0  0  0  0  0
   32.4439  -10.9205   37.5094 C   0  0  0  0  0  0  0  0  0  0  0  0
   31.9736  -13.5179   38.8586 H   0  0  0  0  0  0  0  0  0  0  0  0
   30.8942  -13.6863   37.4431 H   0  0  0  0  0  0  0  0  0  0  0  0
   30.0577   -8.7896   38.1792 H   0  0  0  0  0  0  0  0  0  0  0  0
   35.2229  -16.6134   36.4768 N   0  0  0  0  0  0  0  0  0  0  0  0
   34.4670  -17.5659   35.8049 C   0  0  0  0  0  0  0  0  0  0  0  0
   33.3529  -17.1724   35.2684 O   0  0  0  0  0  0  0  0  0  0  0  0
   36.1135  -16.9751   36.9391 H   0  0  0  0  0  0  0  0  0  0  0  0
   34.7670  -18.9975   35.5950 C   0  0  0  0  0  0  0  0  0  0  0  0
   35.6930  -19.2104   34.3918 C   0  0  0  0  0  0  0  0  0  0  0  0
   36.1859  -19.4159   35.7487 C   0  0  0  0  0  0  0  0  0  0  0  0
   33.7437  -20.0721   35.7138 C   0  0  0  0  0  0  0  0  0  0  0  0
   33.8597  -20.9088   36.6914 O   0  0  0  0  0  0  0  0  0  0  0  0
   32.6533  -20.2655   34.8512 N   0  0  0  0  0  0  0  0  0  0  0  0
   32.5604  -19.6107   34.0390 H   0  0  0  0  0  0  0  0  0  0  0  0
   31.6751  -21.2771   34.9660 C   0  0  0  0  0  0  0  0  0  0  0  0
   31.8723  -22.6241   34.7203 C   0  0  0  0  0  0  0  0  0  0  0  0
   30.8786  -23.5849   34.8998 C   0  0  0  0  0  0  0  0  0  0  0  0
   29.6278  -23.1688   35.3505 C   0  0  0  0  0  0  0  0  0  0  0  0
   28.6790  -24.1434   35.5139 F   0  0  0  0  0  0  0  0  0  0  0  0
   29.3889  -21.8385   35.6094 C   0  0  0  0  0  0  0  0  0  0  0  0
   30.3942  -20.9210   35.4194 C   0  0  0  0  0  0  0  0  0  0  0  0
   30.1386  -19.6238   35.6779 F   0  0  0  0  0  0  0  0  0  0  0  0
  7  8  1  0  0  0
  8  9  2  0  0  0
  9 10  1  0  0  0
 10 11  1  0  0  0
 11 12  2  0  0  0
 12 13  1  0  0  0
 13 14  2  0  0  0
 14 15  1  0  0  0
 15  1  1  0  0  0
  1  2  2  0  0  0
  2  3  1  0  0  0
  3  4  2  0  0  0
  4 20  1  0  0  0
 20 21  1  0  0  0
 21 22  2  0  0  0
 21 24  1  0  0  0
 24 25  1  0  0  0
 25 26  1  0  0  0
 24 27  1  0  0  0
 27 28  2  0  0  0
 27 29  1  0  0  0
 29 31  1  0  0  0
 31 32  2  0  0  0
 32 33  1  0  0  0
 33 34  2  0  0  0
 34 35  1  0  0  0
 34 36  1  0  0  0
 36 37  2  0  0  0
 37 38  1  0  0  0
  4  5  1  0  0  0
  5  6  2  0  0  0
 15 16  2  0  0  0
 16  8  1  0  0  0
 16 11  1  0  0  0
  6  1  1  0  0  0
 26 24  1  0  0  0
 37 31  1  0  0  0
  7 17  1  0  0  0
  7 18  1  0  0  0
 10 19  1  0  0  0
 20 23  1  0  0  0
 29 30  1  0  0  0
M  END
> <minimizedAffinity>
-8.87288

> <CNNscore>
0.2536429763

> <CNNaffinity>
6.0924854279

> <CNN_VS>
1.5453161001

> <CNNaffinity_variance>
0.0874096751

$$$$
[H]c1c([H])c(N([H])C(=O)C2(C(=O)N([H])c3c([H])c([H])c(-c4c([H])c([H])c([H])c5c4c(N([H])[H])nn5[H])c([H])c3[H])C([H])([H])C2([H])[H])c(F)c([H])c1F


 38 42  0  0  0  0  0  0  0  0999 V2000
   35.3416  -12.4496   36.5318 C   0  0  0  0  0  0  0  0  0  0  0  0
   34.5615  -13.3425   35.8320 C   0  0  0  0  0  0  0  0  0  0  0  0
   34.8181  -14.6938   35.9101 C   0  0  0  0  0  0  0  0  0  0  0  0
   35.8597  -15.2131   36.6861 C   0  0  0  0  0  0  0  0  0  0  0  0
   36.6010  -14.2744   37.3582 C   0  0  0  0  0  0  0  0  0  0  0  0
   36.3678  -12.9207   37.2954 C   0  0  0  0  0  0  0  0  0  0  0  0
   32.8222  -12.4887   38.2725 N   0  0  0  0  0  0  0  0  0  0  0  0
   32.8436  -11.1388   37.8535 C   0  0  0  0  0  0  0  0  0  0  0  0
   31.9455  -10.1808   38.1376 N   0  0  0  0  0  0  0  0  0  0  0  0
   32.2900   -9.0423   37.6000 N   0  0  0  0  0  0  0  0  0  0  0  0
   33.4493   -9.2486   36.9416 C   0  0  0  0  0  0  0  0  0  0  0  0
   34.2034   -8.3610   36.2377 C   0  0  0  0  0  0  0  0  0  0  0  0
   35.3859   -8.8057   35.6459 C   0  0  0  0  0  0  0  0  0  0  0  0
   35.7698  -10.1108   35.7745 C   0  0  0  0  0  0  0  0  0  0  0  0
   35.0088  -11.0334   36.4936 C   0  0  0  0  0  0  0  0  0  0  0  0
   33.8507  -10.5792   37.0716 C   0  0  0  0  0  0  0  0  0  0  0  0
   33.4709  -12.8029   38.9950 H   0  0  0  0  0  0  0  0  0  0  0  0
   32.1454  -13.1390   37.8430 H   0  0  0  0  0  0  0  0  0  0  0  0
   31.7619   -8.1351   37.6607 H   0  0  0  0  0  0  0  0  0  0  0  0
   36.0172  -16.6141   36.7779 N   0  0  0  0  0  0  0  0  0  0  0  0
   35.1405  -17.5917   36.3243 C   0  0  0  0  0  0  0  0  0  0  0  0
   34.0274  -17.1924   35.7900 O   0  0  0  0  0  0  0  0  0  0  0  0
   36.9055  -16.9740   37.2460 H   0  0  0  0  0  0  0  0  0  0  0  0
   35.3067  -19.0598   36.3498 C   0  0  0  0  0  0  0  0  0  0  0  0
   34.1215  -19.7742   35.6899 C   0  0  0  0  0  0  0  0  0  0  0  0
   35.4241  -19.7453   35.0352 C   0  0  0  0  0  0  0  0  0  0  0  0
   35.8234  -19.8026   37.5320 C   0  0  0  0  0  0  0  0  0  0  0  0
   37.0855  -19.7152   37.7936 O   0  0  0  0  0  0  0  0  0  0  0  0
   35.0591  -20.6008   38.3974 N   0  0  0  0  0  0  0  0  0  0  0  0
   34.0388  -20.7022   38.1832 H   0  0  0  0  0  0  0  0  0  0  0  0
   35.5432  -21.2989   39.5252 C   0  0  0  0  0  0  0  0  0  0  0  0
   36.1935  -22.5197   39.5027 C   0  0  0  0  0  0  0  0  0  0  0  0
   36.6944  -23.1374   40.6473 C   0  0  0  0  0  0  0  0  0  0  0  0
   36.5346  -22.4932   41.8722 C   0  0  0  0  0  0  0  0  0  0  0  0
   37.0407  -23.1332   42.9727 F   0  0  0  0  0  0  0  0  0  0  0  0
   35.8957  -21.2762   41.9399 C   0  0  0  0  0  0  0  0  0  0  0  0
   35.4147  -20.6995   40.7890 C   0  0  0  0  0  0  0  0  0  0  0  0
   34.7916  -19.5085   40.8781 F   0  0  0  0  0  0  0  0  0  0  0  0
  7  8  1  0  0  0
  8  9  2  0  0  0
  9 10  1  0  0  0
 10 11  1  0  0  0
 11 12  2  0  0  0
 12 13  1  0  0  0
 13 14  2  0  0  0
 14 15  1  0  0  0
 15  1  1  0  0  0
  1  2  2  0  0  0
  2  3  1  0  0  0
  3  4  2  0  0  0
  4 20  1  0  0  0
 20 21  1  0  0  0
 21 22  2  0  0  0
 21 24  1  0  0  0
 24 25  1  0  0  0
 25 26  1  0  0  0
 24 27  1  0  0  0
 27 28  2  0  0  0
 27 29  1  0  0  0
 29 31  1  0  0  0
 31 32  2  0  0  0
 32 33  1  0  0  0
 33 34  2  0  0  0
 34 35  1  0  0  0
 34 36  1  0  0  0
 36 37  2  0  0  0
 37 38  1  0  0  0
  4  5  1  0  0  0
  5  6  2  0  0  0
 15 16  2  0  0  0
 16  8  1  0  0  0
 16 11  1  0  0  0
  6  1  1  0  0  0
 26 24  1  0  0  0
 37 31  1  0  0  0
  7 17  1  0  0  0
  7 18  1  0  0  0
 10 19  1  0  0  0
 20 23  1  0  0  0
 29 30  1  0  0  0
M  END
> <minimizedAffinity>
-6.89603

> <CNNscore>
0.2503391206

> <CNNaffinity>
6.1100702286

> <CNN_VS>
1.5295896530

> <CNNaffinity_variance>
0.1430698931

$$$$
[H]ON([H])C(=O)C([H])([H])N(C([H])([H])c1c([H])c([H])c([N+](=O)[O-])c([H])c1[H])S(=O)(=O)c1c([H])c([H])c(Br)c([H])c1[H]


 28 29  0  0  0  0  0  0  0  0999 V2000
   35.9372  -18.9867   34.8472 N   0  0  0  0  0  0  0  0  0  0  0  0
   36.0789  -18.4309   36.4113 S   0  0  0  0  0  0  0  0  0  0  0  0
   35.2425  -19.2562   37.3481 O   0  0  0  0  0  0  0  0  0  0  0  0
   37.4961  -18.5820   36.8852 O   0  0  0  0  0  0  0  0  0  0  0  0
   35.6746  -16.7416   36.6184 C   0  0  0  0  0  0  0  0  0  0  0  0
   34.5696  -16.1873   36.0033 C   0  0  0  0  0  0  0  0  0  0  0  0
   34.2156  -14.8761   36.1363 C   0  0  0  0  0  0  0  0  0  0  0  0
   34.9781  -14.0495   36.9132 C   0  0  0  0  0  0  0  0  0  0  0  0
   34.4786  -12.2024   37.1000 Br  0  0  0  0  0  0  0  0  0  0  0  0
   36.0890  -14.5487   37.5486 C   0  0  0  0  0  0  0  0  0  0  0  0
   36.4167  -15.8760   37.3923 C   0  0  0  0  0  0  0  0  0  0  0  0
   37.0933  -19.4514   34.1825 C   0  0  0  0  0  0  0  0  0  0  0  0
   40.2006  -17.8251   32.9560 O   0  0  0  0  0  0  0  0  0  0  0  0
   39.3625  -18.7447   33.4681 N   0  0  0  0  0  0  0  0  0  0  0  0
   37.9954  -18.4552   33.6289 C   0  0  0  0  0  0  0  0  0  0  0  0
   37.5689  -17.3316   33.2897 O   0  0  0  0  0  0  0  0  0  0  0  0
   40.4560  -17.1233   33.5854 H   0  0  0  0  0  0  0  0  0  0  0  0
   39.7538  -19.6681   33.7388 H   0  0  0  0  0  0  0  0  0  0  0  0
   34.8089  -18.7048   34.0827 C   0  0  0  0  0  0  0  0  0  0  0  0
   33.5299  -19.3294   34.5062 C   0  0  0  0  0  0  0  0  0  0  0  0
   33.3840  -20.6642   34.8144 C   0  0  0  0  0  0  0  0  0  0  0  0
   32.1798  -21.2131   35.2012 C   0  0  0  0  0  0  0  0  0  0  0  0
   31.0531  -20.4509   35.3004 C   0  0  0  0  0  0  0  0  0  0  0  0
   31.1697  -19.0987   34.9955 C   0  0  0  0  0  0  0  0  0  0  0  0
   32.3759  -18.5556   34.6094 C   0  0  0  0  0  0  0  0  0  0  0  0
   29.8169  -21.0219   35.6991 N   0  0  0  0  0  0  0  0  0  0  0  0
   28.9274  -20.2472   36.3920 O   0  0  0  0  0  0  0  0  0  0  0  0
   29.5248  -22.1964   35.4373 O   0  0  0  0  0  0  0  0  0  0  0  0
 13 14  1  0  0  0
 14 15  1  0  0  0
 15 16  2  0  0  0
 15 12  1  0  0  0
 12  1  1  0  0  0
  1 19  1  0  0  0
 19 20  1  0  0  0
 20 21  2  0  0  0
 21 22  1  0  0  0
 22 23  2  0  0  0
 23 24  1  0  0  0
 24 25  2  0  0  0
 23 26  1  0  0  0
 26 27  1  0  0  0
 26 28  2  0  0  0
  1  2  1  0  0  0
  2  3  2  0  0  0
  2  4  2  0  0  0
  2  5  1  0  0  0
  5  6  2  0  0  0
  6  7  1  0  0  0
  7  8  2  0  0  0
  8  9  1  0  0  0
  8 10  1  0  0  0
 10 11  2  0  0  0
 25 20  1  0  0  0
 11  5  1  0  0  0
 13 17  1  0  0  0
 14 18  1  0  0  0
M  CHG 1  26   1
M  CHG 1  27  -1
M  END
> <minimizedAffinity>
-7.05529

> <CNNscore>
0.3403762281

> <CNNaffinity>
4.9462671280

> <CNN_VS>
1.6835917234

> <CNNaffinity_variance>
0.4210373759

$$$$
[H]ON([H])C(=O)C([H])([H])N(C([H])([H])c1c([H])c([H])c([N+](=O)[O-])c([H])c1[H])S(=O)(=O)c1c([H])c([H])c(Br)c([H])c1[H]


 28 29  0  0  0  0  0  0  0  0999 V2000
   35.9309  -17.8243   34.6303 N   0  0  0  0  0  0  0  0  0  0  0  0
   35.9574  -17.4180   36.2458 S   0  0  0  0  0  0  0  0  0  0  0  0
   35.1857  -18.4181   37.0597 O   0  0  0  0  0  0  0  0  0  0  0  0
   37.3658  -17.4649   36.7656 O   0  0  0  0  0  0  0  0  0  0  0  0
   35.3627  -15.8110   36.5976 C   0  0  0  0  0  0  0  0  0  0  0  0
   34.1174  -15.3965   36.1686 C   0  0  0  0  0  0  0  0  0  0  0  0
   33.6124  -14.1538   36.4196 C   0  0  0  0  0  0  0  0  0  0  0  0
   34.3588  -13.2559   37.1303 C   0  0  0  0  0  0  0  0  0  0  0  0
   33.6465  -11.5055   37.4835 Br  0  0  0  0  0  0  0  0  0  0  0  0
   35.6054  -13.6158   37.5815 C   0  0  0  0  0  0  0  0  0  0  0  0
   36.0834  -14.8773   37.3101 C   0  0  0  0  0  0  0  0  0  0  0  0
   37.1393  -17.7908   33.9000 C   0  0  0  0  0  0  0  0  0  0  0  0
   39.6194  -20.3028   32.7411 O   0  0  0  0  0  0  0  0  0  0  0  0
   38.9162  -19.1598   32.8384 N   0  0  0  0  0  0  0  0  0  0  0  0
   37.8965  -19.0272   33.7982 C   0  0  0  0  0  0  0  0  0  0  0  0
   37.6518  -19.9859   34.5602 O   0  0  0  0  0  0  0  0  0  0  0  0
   39.1440  -21.0267   32.2895 H   0  0  0  0  0  0  0  0  0  0  0  0
   39.1484  -18.3843   32.1873 H   0  0  0  0  0  0  0  0  0  0  0  0
   34.7352  -17.8717   33.9197 C   0  0  0  0  0  0  0  0  0  0  0  0
   33.6627  -18.7479   34.4554 C   0  0  0  0  0  0  0  0  0  0  0  0
   32.4634  -18.2885   34.9541 C   0  0  0  0  0  0  0  0  0  0  0  0
   31.4894  -19.1304   35.4479 C   0  0  0  0  0  0  0  0  0  0  0  0
   31.6657  -20.4826   35.4682 C   0  0  0  0  0  0  0  0  0  0  0  0
   32.8673  -20.9762   34.9708 C   0  0  0  0  0  0  0  0  0  0  0  0
   33.8373  -20.1300   34.4786 C   0  0  0  0  0  0  0  0  0  0  0  0
   30.6594  -21.3435   35.9776 N   0  0  0  0  0  0  0  0  0  0  0  0
   30.3715  -22.4945   35.2966 O   0  0  0  0  0  0  0  0  0  0  0  0
   30.0390  -21.0808   37.0166 O   0  0  0  0  0  0  0  0  0  0  0  0
 13 14  1  0  0  0
 14 15  1  0  0  0
 15 16  2  0  0  0
 15 12  1  0  0  0
 12  1  1  0  0  0
  1 19  1  0  0  0
 19 20  1  0  0  0
 20 21  2  0  0  0
 21 22  1  0  0  0
 22 23  2  0  0  0
 23 24  1  0  0  0
 24 25  2  0  0  0
 23 26  1  0  0  0
 26 27  1  0  0  0
 26 28  2  0  0  0
  1  2  1  0  0  0
  2  3  2  0  0  0
  2  4  2  0  0  0
  2  5  1  0  0  0
  5  6  2  0  0  0
  6  7  1  0  0  0
  7  8  2  0  0  0
  8  9  1  0  0  0
  8 10  1  0  0  0
 10 11  2  0  0  0
 25 20  1  0  0  0
 11  5  1  0  0  0
 13 17  1  0  0  0
 14 18  1  0  0  0
M  CHG 1  26   1
M  CHG 1  27  -1
M  END
> <minimizedAffinity>
-6.87127

> <CNNscore>
0.3198354542

> <CNNaffinity>
4.7575449944

> <CNN_VS>
1.5216315985

> <CNNaffinity_variance>
0.6967566609

$$$$
[H]ON([H])C(=O)C([H])([H])N(C([H])([H])c1c([H])c([H])c([N+](=O)[O-])c([H])c1[H])S(=O)(=O)c1c([H])c([H])c(Br)c([H])c1[H]


 28 29  0  0  0  0  0  0  0  0999 V2000
   35.3775  -19.1142   35.6102 N   0  0  0  0  0  0  0  0  0  0  0  0
   36.3683  -17.7749   35.6260 S   0  0  0  0  0  0  0  0  0  0  0  0
   37.5932  -18.0278   36.4590 O   0  0  0  0  0  0  0  0  0  0  0  0
   36.8674  -17.4872   34.2389 O   0  0  0  0  0  0  0  0  0  0  0  0
   35.5925  -16.3073   36.1775 C   0  0  0  0  0  0  0  0  0  0  0  0
   36.2264  -15.4441   37.0491 C   0  0  0  0  0  0  0  0  0  0  0  0
   35.6609  -14.2889   37.5053 C   0  0  0  0  0  0  0  0  0  0  0  0
   34.4034  -13.9474   37.0924 C   0  0  0  0  0  0  0  0  0  0  0  0
   33.6075  -12.3199   37.7356 Br  0  0  0  0  0  0  0  0  0  0  0  0
   33.7267  -14.7703   36.2252 C   0  0  0  0  0  0  0  0  0  0  0  0
   34.3272  -15.9276   35.7852 C   0  0  0  0  0  0  0  0  0  0  0  0
   35.6464  -20.1705   36.5082 C   0  0  0  0  0  0  0  0  0  0  0  0
   33.4681  -21.0973   39.3719 O   0  0  0  0  0  0  0  0  0  0  0  0
   34.0745  -21.1308   38.1712 N   0  0  0  0  0  0  0  0  0  0  0  0
   34.9936  -20.1306   37.8062 C   0  0  0  0  0  0  0  0  0  0  0  0
   35.2400  -19.2092   38.6124 O   0  0  0  0  0  0  0  0  0  0  0  0
   32.7394  -20.4499   39.4331 H   0  0  0  0  0  0  0  0  0  0  0  0
   33.8441  -21.9127   37.5272 H   0  0  0  0  0  0  0  0  0  0  0  0
   34.5194  -19.3619   34.5429 C   0  0  0  0  0  0  0  0  0  0  0  0
   33.1351  -19.7876   34.8709 C   0  0  0  0  0  0  0  0  0  0  0  0
   32.6967  -21.0932   34.8352 C   0  0  0  0  0  0  0  0  0  0  0  0
   31.4018  -21.4539   35.1426 C   0  0  0  0  0  0  0  0  0  0  0  0
   30.4737  -20.5221   35.5037 C   0  0  0  0  0  0  0  0  0  0  0  0
   30.8873  -19.1948   35.5488 C   0  0  0  0  0  0  0  0  0  0  0  0
   32.1828  -18.8401   35.2405 C   0  0  0  0  0  0  0  0  0  0  0  0
   29.1428  -20.8999   35.8189 N   0  0  0  0  0  0  0  0  0  0  0  0
   28.4451  -20.1538   36.7289 O   0  0  0  0  0  0  0  0  0  0  0  0
   28.6004  -21.8817   35.2943 O   0  0  0  0  0  0  0  0  0  0  0  0
 13 14  1  0  0  0
 14 15  1  0  0  0
 15 16  2  0  0  0
 15 12  1  0  0  0
 12  1  1  0  0  0
  1 19  1  0  0  0
 19 20  1  0  0  0
 20 21  2  0  0  0
 21 22  1  0  0  0
 22 23  2  0  0  0
 23 24  1  0  0  0
 24 25  2  0  0  0
 23 26  1  0  0  0
 26 27  1  0  0  0
 26 28  2  0  0  0
  1  2  1  0  0  0
  2  3  2  0  0  0
  2  4  2  0  0  0
  2  5  1  0  0  0
  5  6  2  0  0  0
  6  7  1  0  0  0
  7  8  2  0  0  0
  8  9  1  0  0  0
  8 10  1  0  0  0
 10 11  2  0  0  0
 25 20  1  0  0  0
 11  5  1  0  0  0
 13 17  1  0  0  0
 14 18  1  0  0  0
M  CHG 1  26   1
M  CHG 1  27  -1
M  END
> <minimizedAffinity>
-6.77384

> <CNNscore>
0.3198210895

> <CNNaffinity>
4.6971116066

> <CNN_VS>
1.5022352934

> <CNNaffinity_variance>
0.4244502187

$$$$
[H]ON([H])C(=O)C([H])([H])N(C([H])([H])c1c([H])c([H])c([N+](=O)[O-])c([H])c1[H])S(=O)(=O)c1c([H])c([H])c(Br)c([H])c1[H]


 28 29  0  0  0  0  0  0  0  0999 V2000
   36.3598  -18.7603   35.6810 N   0  0  0  0  0  0  0  0  0  0  0  0
   35.6117  -19.7679   36.7768 S   0  0  0  0  0  0  0  0  0  0  0  0
   36.3224  -21.0895   36.8572 O   0  0  0  0  0  0  0  0  0  0  0  0
   35.6877  -19.1765   38.1554 O   0  0  0  0  0  0  0  0  0  0  0  0
   33.9141  -20.0477   36.4608 C   0  0  0  0  0  0  0  0  0  0  0  0
   33.2643  -21.1586   36.9614 C   0  0  0  0  0  0  0  0  0  0  0  0
   31.9426  -21.4175   36.7413 C   0  0  0  0  0  0  0  0  0  0  0  0
   31.2033  -20.5473   35.9901 C   0  0  0  0  0  0  0  0  0  0  0  0
   29.3414  -20.9128   35.6806 Br  0  0  0  0  0  0  0  0  0  0  0  0
   31.7995  -19.4256   35.4673 C   0  0  0  0  0  0  0  0  0  0  0  0
   33.1345  -19.1956   35.7091 C   0  0  0  0  0  0  0  0  0  0  0  0
   36.5390  -19.2105   34.3545 C   0  0  0  0  0  0  0  0  0  0  0  0
   39.7035  -19.5885   32.4447 O   0  0  0  0  0  0  0  0  0  0  0  0
   38.4745  -19.1732   32.8017 N   0  0  0  0  0  0  0  0  0  0  0  0
   37.8668  -19.6617   33.9724 C   0  0  0  0  0  0  0  0  0  0  0  0
   38.4838  -20.4874   34.6774 O   0  0  0  0  0  0  0  0  0  0  0  0
   39.7234  -20.4795   32.0450 H   0  0  0  0  0  0  0  0  0  0  0  0
   37.9923  -18.4857   32.1901 H   0  0  0  0  0  0  0  0  0  0  0  0
   37.0903  -17.6536   36.1033 C   0  0  0  0  0  0  0  0  0  0  0  0
   36.3232  -16.4415   36.4875 C   0  0  0  0  0  0  0  0  0  0  0  0
   35.0851  -16.1145   35.9794 C   0  0  0  0  0  0  0  0  0  0  0  0
   34.4009  -14.9780   36.3555 C   0  0  0  0  0  0  0  0  0  0  0  0
   34.9227  -14.1053   37.2645 C   0  0  0  0  0  0  0  0  0  0  0  0
   36.1720  -14.4092   37.7953 C   0  0  0  0  0  0  0  0  0  0  0  0
   36.8513  -15.5465   37.4156 C   0  0  0  0  0  0  0  0  0  0  0  0
   34.2135  -12.9375   37.6473 N   0  0  0  0  0  0  0  0  0  0  0  0
   33.2798  -13.0315   38.6428 O   0  0  0  0  0  0  0  0  0  0  0  0
   34.4171  -11.8424   37.1065 O   0  0  0  0  0  0  0  0  0  0  0  0
 13 14  1  0  0  0
 14 15  1  0  0  0
 15 16  2  0  0  0
 15 12  1  0  0  0
 12  1  1  0  0  0
  1 19  1  0  0  0
 19 20  1  0  0  0
 20 21  2  0  0  0
 21 22  1  0  0  0
 22 23  2  0  0  0
 23 24  1  0  0  0
 24 25  2  0  0  0
 23 26  1  0  0  0
 26 27  1  0  0  0
 26 28  2  0  0  0
  1  2  1  0  0  0
  2  3  2  0  0  0
  2  4  2  0  0  0
  2  5  1  0  0  0
  5  6  2  0  0  0
  6  7  1  0  0  0
  7  8  2  0  0  0
  8  9  1  0  0  0
  8 10  1  0  0  0
 10 11  2  0  0  0
 25 20  1  0  0  0
 11  5  1  0  0  0
 13 17  1  0  0  0
 14 18  1  0  0  0
M  CHG 1  26   1
M  CHG 1  27  -1
M  END
> <minimizedAffinity>
-7.53229

> <CNNscore>
0.2326605022

> <CNNaffinity>
4.6711468697

> <CNN_VS>
1.0867913961

> <CNNaffinity_variance>
0.5644546747

$$$$
[H]ON([H])C(=O)C([H])([H])N(C([H])([H])c1c([H])c([H])c([N+](=O)[O-])c([H])c1[H])S(=O)(=O)c1c([H])c([H])c(Br)c([H])c1[H]


 28 29  0  0  0  0  0  0  0  0999 V2000
   37.4854  -19.3496   35.6566 N   0  0  0  0  0  0  0  0  0  0  0  0
   36.5642  -18.1571   34.9459 S   0  0  0  0  0  0  0  0  0  0  0  0
   36.7482  -16.8463   35.6571 O   0  0  0  0  0  0  0  0  0  0  0  0
   37.0214  -17.9259   33.5340 O   0  0  0  0  0  0  0  0  0  0  0  0
   34.8562  -18.5228   34.8500 C   0  0  0  0  0  0  0  0  0  0  0  0
   33.9342  -17.8556   35.6319 C   0  0  0  0  0  0  0  0  0  0  0  0
   32.5934  -18.1068   35.5906 C   0  0  0  0  0  0  0  0  0  0  0  0
   32.1147  -19.0632   34.7394 C   0  0  0  0  0  0  0  0  0  0  0  0
   30.2258  -19.4164   34.6818 Br  0  0  0  0  0  0  0  0  0  0  0  0
   32.9882  -19.7578   33.9383 C   0  0  0  0  0  0  0  0  0  0  0  0
   34.3339  -19.4787   34.0059 C   0  0  0  0  0  0  0  0  0  0  0  0
   37.4361  -19.5024   37.0597 C   0  0  0  0  0  0  0  0  0  0  0  0
   34.4227  -20.1753   39.1264 O   0  0  0  0  0  0  0  0  0  0  0  0
   35.4945  -19.5513   38.6045 N   0  0  0  0  0  0  0  0  0  0  0  0
   36.2791  -20.1800   37.6208 C   0  0  0  0  0  0  0  0  0  0  0  0
   35.9676  -21.3269   37.2374 O   0  0  0  0  0  0  0  0  0  0  0  0
   34.6422  -20.8617   39.7856 H   0  0  0  0  0  0  0  0  0  0  0  0
   35.7225  -18.5980   38.9484 H   0  0  0  0  0  0  0  0  0  0  0  0
   38.5256  -19.9633   34.9652 C   0  0  0  0  0  0  0  0  0  0  0  0
   39.8350  -19.2629   34.9491 C   0  0  0  0  0  0  0  0  0  0  0  0
   40.4627  -18.8194   33.8057 C   0  0  0  0  0  0  0  0  0  0  0  0
   41.6815  -18.1750   33.8261 C   0  0  0  0  0  0  0  0  0  0  0  0
   42.3388  -17.9394   34.9977 C   0  0  0  0  0  0  0  0  0  0  0  0
   41.7291  -18.3759   36.1693 C   0  0  0  0  0  0  0  0  0  0  0  0
   40.5109  -19.0195   36.1429 C   0  0  0  0  0  0  0  0  0  0  0  0
   43.5928  -17.2757   35.0117 N   0  0  0  0  0  0  0  0  0  0  0  0
   44.5134  -17.5882   34.0493 O   0  0  0  0  0  0  0  0  0  0  0  0
   43.8730  -16.4260   35.8677 O   0  0  0  0  0  0  0  0  0  0  0  0
 13 14  1  0  0  0
 14 15  1  0  0  0
 15 16  2  0  0  0
 15 12  1  0  0  0
 12  1  1  0  0  0
  1 19  1  0  0  0
 19 20  1  0  0  0
 20 21  2  0  0  0
 21 22  1  0  0  0
 22 23  2  0  0  0
 23 24  1  0  0  0
 24 25  2  0  0  0
 23 26  1  0  0  0
 26 27  1  0  0  0
 26 28  2  0  0  0
  1  2  1  0  0  0
  2  3  2  0  0  0
  2  4  2  0  0  0
  2  5  1  0  0  0
  5  6  2  0  0  0
  6  7  1  0  0  0
  7  8  2  0  0  0
  8  9  1  0  0  0
  8 10  1  0  0  0
 10 11  2  0  0  0
 25 20  1  0  0  0
 11  5  1  0  0  0
 13 17  1  0  0  0
 14 18  1  0  0  0
M  CHG 1  26   1
M  CHG 1  27  -1
M  END
> <minimizedAffinity>
-5.57217

> <CNNscore>
0.1678259373

> <CNNaffinity>
4.0886220932

> <CNN_VS>
0.6861768365

> <CNNaffinity_variance>
0.5582997203

$$$$
[H]ON([H])C(=O)C([H])([H])N(C([H])([H])c1c([H])c([H])c([N+](=O)[O-])c([H])c1[H])S(=O)(=O)c1c([H])c([H])c(Br)c([H])c1[H]


 28 29  0  0  0  0  0  0  0  0999 V2000
   35.3356  -18.3271   35.5583 N   0  0  0  0  0  0  0  0  0  0  0  0
   34.1091  -18.9806   34.6394 S   0  0  0  0  0  0  0  0  0  0  0  0
   33.1151  -17.9237   34.2482 O   0  0  0  0  0  0  0  0  0  0  0  0
   34.6621  -19.5208   33.3516 O   0  0  0  0  0  0  0  0  0  0  0  0
   33.2638  -20.3095   35.4007 C   0  0  0  0  0  0  0  0  0  0  0  0
   33.2155  -20.4365   36.7749 C   0  0  0  0  0  0  0  0  0  0  0  0
   32.5683  -21.4551   37.4121 C   0  0  0  0  0  0  0  0  0  0  0  0
   31.9278  -22.4105   36.6738 C   0  0  0  0  0  0  0  0  0  0  0  0
   31.0164  -23.8451   37.5723 Br  0  0  0  0  0  0  0  0  0  0  0  0
   31.9441  -22.3329   35.3023 C   0  0  0  0  0  0  0  0  0  0  0  0
   32.6064  -21.2921   34.6928 C   0  0  0  0  0  0  0  0  0  0  0  0
   35.7003  -16.9792   35.3471 C   0  0  0  0  0  0  0  0  0  0  0  0
   33.1561  -14.5711   36.5848 O   0  0  0  0  0  0  0  0  0  0  0  0
   33.7638  -15.5042   35.8297 N   0  0  0  0  0  0  0  0  0  0  0  0
   35.0474  -15.9711   36.1656 C   0  0  0  0  0  0  0  0  0  0  0  0
   35.6169  -15.5073   37.1757 O   0  0  0  0  0  0  0  0  0  0  0  0
   33.4885  -13.6638   36.4424 H   0  0  0  0  0  0  0  0  0  0  0  0
   33.2589  -15.8663   34.9971 H   0  0  0  0  0  0  0  0  0  0  0  0
   36.2101  -19.1398   36.2736 C   0  0  0  0  0  0  0  0  0  0  0  0
   37.5877  -19.2883   35.7394 C   0  0  0  0  0  0  0  0  0  0  0  0
   38.7253  -18.8934   36.4088 C   0  0  0  0  0  0  0  0  0  0  0  0
   39.9906  -19.0426   35.8816 C   0  0  0  0  0  0  0  0  0  0  0  0
   40.1844  -19.5978   34.6510 C   0  0  0  0  0  0  0  0  0  0  0  0
   39.0539  -20.0065   33.9511 C   0  0  0  0  0  0  0  0  0  0  0  0
   37.7917  -19.8548   34.4829 C   0  0  0  0  0  0  0  0  0  0  0  0
   41.4892  -19.7486   34.1143 N   0  0  0  0  0  0  0  0  0  0  0  0
   42.1505  -18.6364   33.6702 O   0  0  0  0  0  0  0  0  0  0  0  0
   42.0409  -20.8546   34.0382 O   0  0  0  0  0  0  0  0  0  0  0  0
 13 14  1  0  0  0
 14 15  1  0  0  0
 15 16  2  0  0  0
 15 12  1  0  0  0
 12  1  1  0  0  0
  1 19  1  0  0  0
 19 20  1  0  0  0
 20 21  2  0  0  0
 21 22  1  0  0  0
 22 23  2  0  0  0
 23 24  1  0  0  0
 24 25  2  0  0  0
 23 26  1  0  0  0
 26 27  1  0  0  0
 26 28  2  0  0  0
  1  2  1  0  0  0
  2  3  2  0  0  0
  2  4  2  0  0  0
  2  5  1  0  0  0
  5  6  2  0  0  0
  6  7  1  0  0  0
  7  8  2  0  0  0
  8  9  1  0  0  0
  8 10  1  0  0  0
 10 11  2  0  0  0
 25 20  1  0  0  0
 11  5  1  0  0  0
 13 17  1  0  0  0
 14 18  1  0  0  0
M  CHG 1  26   1
M  CHG 1  27  -1
M  END
> <minimizedAffinity>
-5.46429

> <CNNscore>
0.1672134101

> <CNNaffinity>
4.1951026917

> <CNN_VS>
0.7014774084

> <CNNaffinity_variance>
0.3754522800

$$$$
[H]ON([H])C(=O)C([H])([H])N(C([H])([H])c1c([H])c([H])c([N+](=O)[O-])c([H])c1[H])S(=O)(=O)c1c([H])c([H])c(Br)c([H])c1[H]


 28 29  0  0  0  0  0  0  0  0999 V2000
   33.6262  -19.7919   35.6422 N   0  0  0  0  0  0  0  0  0  0  0  0
   34.3066  -18.6326   34.6580 S   0  0  0  0  0  0  0  0  0  0  0  0
   35.2643  -19.2567   33.6826 O   0  0  0  0  0  0  0  0  0  0  0  0
   33.2432  -17.9750   33.8256 O   0  0  0  0  0  0  0  0  0  0  0  0
   35.1200  -17.3426   35.5149 C   0  0  0  0  0  0  0  0  0  0  0  0
   36.4632  -17.4221   35.8252 C   0  0  0  0  0  0  0  0  0  0  0  0
   37.1390  -16.4413   36.4912 C   0  0  0  0  0  0  0  0  0  0  0  0
   36.4738  -15.3128   36.8814 C   0  0  0  0  0  0  0  0  0  0  0  0
   37.4266  -13.9315   37.8196 Br  0  0  0  0  0  0  0  0  0  0  0  0
   35.1359  -15.1813   36.5986 C   0  0  0  0  0  0  0  0  0  0  0  0
   34.4858  -16.1901   35.9253 C   0  0  0  0  0  0  0  0  0  0  0  0
   32.5146  -20.5216   35.1665 C   0  0  0  0  0  0  0  0  0  0  0  0
   29.4343  -18.4696   35.4908 O   0  0  0  0  0  0  0  0  0  0  0  0
   30.6562  -18.8781   35.1030 N   0  0  0  0  0  0  0  0  0  0  0  0
   31.1942  -20.0838   35.5879 C   0  0  0  0  0  0  0  0  0  0  0  0
   30.5219  -20.7715   36.3847 O   0  0  0  0  0  0  0  0  0  0  0  0
   29.4084  -18.0833   36.3876 H   0  0  0  0  0  0  0  0  0  0  0  0
   31.1856  -18.2795   34.4393 H   0  0  0  0  0  0  0  0  0  0  0  0
   33.9026  -19.8307   37.0057 C   0  0  0  0  0  0  0  0  0  0  0  0
   35.1118  -20.5803   37.4311 C   0  0  0  0  0  0  0  0  0  0  0  0
   36.2090  -20.0041   38.0330 C   0  0  0  0  0  0  0  0  0  0  0  0
   37.3183  -20.7296   38.4126 C   0  0  0  0  0  0  0  0  0  0  0  0
   37.3878  -22.0763   38.2089 C   0  0  0  0  0  0  0  0  0  0  0  0
   36.2943  -22.6863   37.6029 C   0  0  0  0  0  0  0  0  0  0  0  0
   35.1882  -21.9562   37.2255 C   0  0  0  0  0  0  0  0  0  0  0  0
   38.5323  -22.8171   38.6019 N   0  0  0  0  0  0  0  0  0  0  0  0
   38.6902  -23.1318   39.9239 O   0  0  0  0  0  0  0  0  0  0  0  0
   39.3863  -23.1837   37.7837 O   0  0  0  0  0  0  0  0  0  0  0  0
 13 14  1  0  0  0
 14 15  1  0  0  0
 15 16  2  0  0  0
 15 12  1  0  0  0
 12  1  1  0  0  0
  1 19  1  0  0  0
 19 20  1  0  0  0
 20 21  2  0  0  0
 21 22  1  0  0  0
 22 23  2  0  0  0
 23 24  1  0  0  0
 24 25  2  0  0  0
 23 26  1  0  0  0
 26 27  1  0  0  0
 26 28  2  0  0  0
  1  2  1  0  0  0
  2  3  2  0  0  0
  2  4  2  0  0  0
  2  5  1  0  0  0
  5  6  2  0  0  0
  6  7  1  0  0  0
  7  8  2  0  0  0
  8  9  1  0  0  0
  8 10  1  0  0  0
 10 11  2  0  0  0
 25 20  1  0  0  0
 11  5  1  0  0  0
 13 17  1  0  0  0
 14 18  1  0  0  0
M  CHG 1  26   1
M  CHG 1  27  -1
M  END
> <minimizedAffinity>
-5.60245

> <CNNscore>
0.1544838846

> <CNNaffinity>
4.7097954750

> <CNN_VS>
0.7275875211

> <CNNaffinity_variance>
0.1620850563

$$$$
[H]ON([H])C(=O)C([H])([H])N(C([H])([H])c1c([H])c([H])c([N+](=O)[O-])c([H])c1[H])S(=O)(=O)c1c([H])c([H])c(Br)c([H])c1[H]


 28 29  0  0  0  0  0  0  0  0999 V2000
   37.2237  -18.2636   36.1998 N   0  0  0  0  0  0  0  0  0  0  0  0
   36.4697  -18.5086   34.7345 S   0  0  0  0  0  0  0  0  0  0  0  0
   36.6636  -17.3240   33.8305 O   0  0  0  0  0  0  0  0  0  0  0  0
   37.0939  -19.6746   34.0227 O   0  0  0  0  0  0  0  0  0  0  0  0
   34.7617  -18.8679   34.8508 C   0  0  0  0  0  0  0  0  0  0  0  0
   33.8301  -18.1774   34.1010 C   0  0  0  0  0  0  0  0  0  0  0  0
   32.4890  -18.4234   34.1586 C   0  0  0  0  0  0  0  0  0  0  0  0
   32.0197  -19.3984   34.9937 C   0  0  0  0  0  0  0  0  0  0  0  0
   30.1303  -19.7442   35.0741 Br  0  0  0  0  0  0  0  0  0  0  0  0
   32.9028  -20.1165   35.7628 C   0  0  0  0  0  0  0  0  0  0  0  0
   34.2487  -19.8420   35.6796 C   0  0  0  0  0  0  0  0  0  0  0  0
   38.4122  -18.9728   36.4808 C   0  0  0  0  0  0  0  0  0  0  0  0
   37.5550  -22.5641   36.8958 O   0  0  0  0  0  0  0  0  0  0  0  0
   37.6779  -21.3399   36.3514 N   0  0  0  0  0  0  0  0  0  0  0  0
   38.2815  -20.2939   37.0726 C   0  0  0  0  0  0  0  0  0  0  0  0
   38.7025  -20.5166   38.2270 O   0  0  0  0  0  0  0  0  0  0  0  0
   36.8325  -22.6400   37.5486 H   0  0  0  0  0  0  0  0  0  0  0  0
   37.3157  -21.1926   35.3889 H   0  0  0  0  0  0  0  0  0  0  0  0
   36.5586  -17.6512   37.2578 C   0  0  0  0  0  0  0  0  0  0  0  0
   36.1992  -16.2196   37.0949 C   0  0  0  0  0  0  0  0  0  0  0  0
   37.0276  -15.1700   37.4265 C   0  0  0  0  0  0  0  0  0  0  0  0
   36.6607  -13.8506   37.2657 C   0  0  0  0  0  0  0  0  0  0  0  0
   35.4396  -13.5113   36.7618 C   0  0  0  0  0  0  0  0  0  0  0  0
   34.5812  -14.5503   36.4175 C   0  0  0  0  0  0  0  0  0  0  0  0
   34.9532  -15.8671   36.5805 C   0  0  0  0  0  0  0  0  0  0  0  0
   35.0683  -12.1516   36.5986 N   0  0  0  0  0  0  0  0  0  0  0  0
   34.0599  -11.6475   37.3736 O   0  0  0  0  0  0  0  0  0  0  0  0
   35.6304  -11.4145   35.7777 O   0  0  0  0  0  0  0  0  0  0  0  0
 13 14  1  0  0  0
 14 15  1  0  0  0
 15 16  2  0  0  0
 15 12  1  0  0  0
 12  1  1  0  0  0
  1 19  1  0  0  0
 19 20  1  0  0  0
 20 21  2  0  0  0
 21 22  1  0  0  0
 22 23  2  0  0  0
 23 24  1  0  0  0
 24 25  2  0  0  0
 23 26  1  0  0  0
 26 27  1  0  0  0
 26 28  2  0  0  0
  1  2  1  0  0  0
  2  3  2  0  0  0
  2  4  2  0  0  0
  2  5  1  0  0  0
  5  6  2  0  0  0
  6  7  1  0  0  0
  7  8  2  0  0  0
  8  9  1  0  0  0
  8 10  1  0  0  0
 10 11  2  0  0  0
 25 20  1  0  0  0
 11  5  1  0  0  0
 13 17  1  0  0  0
 14 18  1  0  0  0
M  CHG 1  26   1
M  CHG 1  27  -1
M  END
> <minimizedAffinity>
-6.55465

> <CNNscore>
0.1517701447

> <CNNaffinity>
4.5803818703

> <CNN_VS>
0.6951652169

> <CNNaffinity_variance>
0.6276068091

$$$$
[H]ON([H])C(=O)C([H])([H])N(C([H])([H])c1c([H])c([H])c([N+](=O)[O-])c([H])c1[H])S(=O)(=O)c1c([H])c([H])c(Br)c([H])c1[H]


 28 29  0  0  0  0  0  0  0  0999 V2000
   35.4824  -18.9952   35.8972 N   0  0  0  0  0  0  0  0  0  0  0  0
   36.4495  -17.6420   35.8015 S   0  0  0  0  0  0  0  0  0  0  0  0
   37.7138  -17.8335   36.5908 O   0  0  0  0  0  0  0  0  0  0  0  0
   36.8825  -17.4178   34.3809 O   0  0  0  0  0  0  0  0  0  0  0  0
   35.6731  -16.1601   36.3126 C   0  0  0  0  0  0  0  0  0  0  0  0
   34.3701  -15.8728   35.9574 C   0  0  0  0  0  0  0  0  0  0  0  0
   33.7242  -14.7309   36.3330 C   0  0  0  0  0  0  0  0  0  0  0  0
   34.3798  -13.8092   37.1004 C   0  0  0  0  0  0  0  0  0  0  0  0
   33.4691  -12.2008   37.6291 Br  0  0  0  0  0  0  0  0  0  0  0  0
   35.6782  -14.0442   37.4826 C   0  0  0  0  0  0  0  0  0  0  0  0
   36.2990  -15.2065   37.0859 C   0  0  0  0  0  0  0  0  0  0  0  0
   35.7003  -19.9148   36.9465 C   0  0  0  0  0  0  0  0  0  0  0  0
   38.9815  -21.0037   38.3075 O   0  0  0  0  0  0  0  0  0  0  0  0
   37.7658  -20.4337   38.2205 N   0  0  0  0  0  0  0  0  0  0  0  0
   37.0131  -20.5321   37.0364 C   0  0  0  0  0  0  0  0  0  0  0  0
   37.4887  -21.1563   36.0649 O   0  0  0  0  0  0  0  0  0  0  0  0
   39.6891  -20.5060   37.8542 H   0  0  0  0  0  0  0  0  0  0  0  0
   37.4035  -19.9226   39.0492 H   0  0  0  0  0  0  0  0  0  0  0  0
   34.7086  -19.4046   34.8152 C   0  0  0  0  0  0  0  0  0  0  0  0
   33.2835  -19.7242   35.0836 C   0  0  0  0  0  0  0  0  0  0  0  0
   32.2492  -18.8236   34.9522 C   0  0  0  0  0  0  0  0  0  0  0  0
   30.9359  -19.1527   35.2134 C   0  0  0  0  0  0  0  0  0  0  0  0
   30.5875  -20.4066   35.6214 C   0  0  0  0  0  0  0  0  0  0  0  0
   31.6109  -21.3380   35.7629 C   0  0  0  0  0  0  0  0  0  0  0  0
   32.9218  -21.0034   35.5006 C   0  0  0  0  0  0  0  0  0  0  0  0
   29.2342  -20.7388   35.8885 N   0  0  0  0  0  0  0  0  0  0  0  0
   28.7038  -21.8569   35.3052 O   0  0  0  0  0  0  0  0  0  0  0  0
   28.5256  -20.0467   36.6315 O   0  0  0  0  0  0  0  0  0  0  0  0
 13 14  1  0  0  0
 14 15  1  0  0  0
 15 16  2  0  0  0
 15 12  1  0  0  0
 12  1  1  0  0  0
  1 19  1  0  0  0
 19 20  1  0  0  0
 20 21  2  0  0  0
 21 22  1  0  0  0
 22 23  2  0  0  0
 23 24  1  0  0  0
 24 25  2  0  0  0
 23 26  1  0  0  0
 26 27  1  0  0  0
 26 28  2  0  0  0
  1  2  1  0  0  0
  2  3  2  0  0  0
  2  4  2  0  0  0
  2  5  1  0  0  0
  5  6  2  0  0  0
  6  7  1  0  0  0
  7  8  2  0  0  0
  8  9  1  0  0  0
  8 10  1  0  0  0
 10 11  2  0  0  0
 25 20  1  0  0  0
 11  5  1  0  0  0
 13 17  1  0  0  0
 14 18  1  0  0  0
M  CHG 1  26   1
M  CHG 1  27  -1
M  END
> <minimizedAffinity>
-6.33432

> <CNNscore>
0.1500191391

> <CNNaffinity>
4.5924372673

> <CNN_VS>
0.6889534593

> <CNNaffinity_variance>
0.2764362395

$$$$
[H]c1nc([H])c(-c2nc(-c3noc(=O)n3[H])c([H])c3nc(N4C([H])([H])[C@]([H])(C([H])([H])[H])N(C([H])([H])[H])C([H])([H])[C@@]4([H])C([H])([H])[H])n(C([H])([H])[C@]4([H])C([H])([H])C([H])([H])[C@@]([H])(C([H])([H])[H])C([H])([H])C4([H])[H])c23)c([H])c1Cl


 40 45  0  0  0  0  0  0  0  0999 V2000
   35.9316  -19.7903   35.8226 C   0  0  0  0  0  0  0  0  0  0  0  0
   35.0251  -18.8747   35.3701 N   0  0  0  0  0  0  0  0  0  0  0  0
   33.8308  -19.3797   35.6774 C   0  0  0  0  0  0  0  0  0  0  0  0
   32.5665  -18.8724   35.4715 C   0  0  0  0  0  0  0  0  0  0  0  0
   31.4926  -19.5957   35.9035 C   0  0  0  0  0  0  0  0  0  0  0  0
   31.6103  -20.7550   36.5047 N   0  0  0  0  0  0  0  0  0  0  0  0
   32.8677  -21.3085   36.7335 C   0  0  0  0  0  0  0  0  0  0  0  0
   33.9544  -20.6231   36.3273 C   0  0  0  0  0  0  0  0  0  0  0  0
   35.3149  -20.8369   36.3999 N   0  0  0  0  0  0  0  0  0  0  0  0
   40.6057  -20.3089   36.5246 C   0  0  0  0  0  0  0  0  0  0  0  0
   39.6271  -20.4170   35.3411 C   0  0  0  0  0  0  0  0  0  0  0  0
   38.2343  -20.6404   35.7707 C   0  0  0  0  0  0  0  0  0  0  0  0
   37.3097  -19.5415   35.5558 N   0  0  0  0  0  0  0  0  0  0  0  0
   37.8984  -18.3012   35.1679 C   0  0  0  0  0  0  0  0  0  0  0  0
   36.9764  -17.1467   34.9822 C   0  0  0  0  0  0  0  0  0  0  0  0
   38.8249  -18.5687   34.0095 C   0  0  0  0  0  0  0  0  0  0  0  0
   39.9137  -19.3552   34.4690 N   0  0  0  0  0  0  0  0  0  0  0  0
   41.0314  -18.5196   34.8190 C   0  0  0  0  0  0  0  0  0  0  0  0
   32.8566  -22.5913   37.3720 C   0  0  0  0  0  0  0  0  0  0  0  0
   31.6700  -23.0097   37.9884 C   0  0  0  0  0  0  0  0  0  0  0  0
   31.5658  -24.2577   38.4774 N   0  0  0  0  0  0  0  0  0  0  0  0
   32.5647  -25.1526   38.4061 C   0  0  0  0  0  0  0  0  0  0  0  0
   33.7481  -24.7818   37.8080 C   0  0  0  0  0  0  0  0  0  0  0  0
   35.1078  -25.8765   37.6661 Cl  0  0  0  0  0  0  0  0  0  0  0  0
   33.8497  -23.5004   37.3082 C   0  0  0  0  0  0  0  0  0  0  0  0
   30.1606  -19.0360   35.6773 C   0  0  0  0  0  0  0  0  0  0  0  0
   29.0928  -19.1989   36.4657 N   0  0  0  0  0  0  0  0  0  0  0  0
   28.1062  -18.5636   35.9494 O   0  0  0  0  0  0  0  0  0  0  0  0
   28.4791  -17.9741   34.8309 C   0  0  0  0  0  0  0  0  0  0  0  0
   27.7402  -17.2627   34.0717 O   0  0  0  0  0  0  0  0  0  0  0  0
   29.7699  -18.2656   34.6513 N   0  0  0  0  0  0  0  0  0  0  0  0
   30.3258  -17.9246   33.8349 H   0  0  0  0  0  0  0  0  0  0  0  0
   35.9181  -21.9545   37.0580 C   0  0  0  0  0  0  0  0  0  0  0  0
   35.8888  -22.0041   38.5600 C   0  0  0  0  0  0  0  0  0  0  0  0
   37.0805  -22.9350   38.9187 C   0  0  0  0  0  0  0  0  0  0  0  0
   37.2076  -23.0757   40.3973 C   0  0  0  0  0  0  0  0  0  0  0  0
   37.4540  -21.6928   40.9997 C   0  0  0  0  0  0  0  0  0  0  0  0
   37.6933  -21.8749   42.4630 C   0  0  0  0  0  0  0  0  0  0  0  0
   36.2233  -20.8749   40.6992 C   0  0  0  0  0  0  0  0  0  0  0  0
   36.1858  -20.6600   39.1869 C   0  0  0  0  0  0  0  0  0  0  0  0
 10 11  1  0  0  0
 11 12  1  0  0  0
 12 13  1  0  0  0
 13 14  1  0  0  0
 14 15  1  0  0  0
 14 16  1  0  0  0
 16 17  1  0  0  0
 17 18  1  0  0  0
 13  1  1  0  0  0
  1  2  2  0  0  0
  2  3  1  0  0  0
  3  4  2  0  0  0
  4  5  1  0  0  0
  5  6  2  0  0  0
  6  7  1  0  0  0
  7 19  1  0  0  0
 19 20  2  0  0  0
 20 21  1  0  0  0
 21 22  2  0  0  0
 22 23  1  0  0  0
 23 24  1  0  0  0
 23 25  2  0  0  0
  7  8  2  0  0  0
  8  9  1  0  0  0
  9 33  1  0  0  0
 33 34  1  0  0  0
 34 35  1  0  0  0
 35 36  1  0  0  0
 36 37  1  0  0  0
 37 38  1  0  0  0
 37 39  1  0  0  0
 39 40  1  0  0  0
  5 26  1  0  0  0
 26 27  2  0  0  0
 27 28  1  0  0  0
 28 29  1  0  0  0
 29 30  2  0  0  0
 29 31  1  0  0  0
 17 11  1  0  0  0
  9  1  1  0  0  0
 40 34  1  0  0  0
 31 26  1  0  0  0
  8  3  1  0  0  0
 25 19  1  0  0  0
 31 32  1  0  0  0
M  END
> <minimizedAffinity>
-0.44391

> <CNNscore>
0.3635827601

> <CNNaffinity>
6.5707139969

> <CNN_VS>
2.3889982700

> <CNNaffinity_variance>
0.2515442073

$$$$
[H]c1nc([H])c(-c2nc(-c3noc(=O)n3[H])c([H])c3nc(N4C([H])([H])[C@]([H])(C([H])([H])[H])N(C([H])([H])[H])C([H])([H])[C@@]4([H])C([H])([H])[H])n(C([H])([H])[C@]4([H])C([H])([H])C([H])([H])[C@@]([H])(C([H])([H])[H])C([H])([H])C4([H])[H])c23)c([H])c1Cl


 40 45  0  0  0  0  0  0  0  0999 V2000
   35.0396  -19.8269   37.0135 C   0  0  0  0  0  0  0  0  0  0  0  0
   33.7440  -20.0315   37.3935 N   0  0  0  0  0  0  0  0  0  0  0  0
   33.6419  -21.3430   37.6060 C   0  0  0  0  0  0  0  0  0  0  0  0
   32.5681  -22.0999   38.0210 C   0  0  0  0  0  0  0  0  0  0  0  0
   32.7369  -23.4453   38.1773 C   0  0  0  0  0  0  0  0  0  0  0  0
   33.8767  -24.0513   37.9474 N   0  0  0  0  0  0  0  0  0  0  0  0
   34.9895  -23.3281   37.5249 C   0  0  0  0  0  0  0  0  0  0  0  0
   34.8661  -21.9959   37.3639 C   0  0  0  0  0  0  0  0  0  0  0  0
   35.7261  -20.9834   36.9938 N   0  0  0  0  0  0  0  0  0  0  0  0
   35.9390  -15.2291   37.8256 C   0  0  0  0  0  0  0  0  0  0  0  0
   36.6658  -16.4195   37.1738 C   0  0  0  0  0  0  0  0  0  0  0  0
   36.1463  -17.7229   37.6269 C   0  0  0  0  0  0  0  0  0  0  0  0
   35.4172  -18.5031   36.6429 N   0  0  0  0  0  0  0  0  0  0  0  0
   35.0925  -17.8261   35.4298 C   0  0  0  0  0  0  0  0  0  0  0  0
   34.3080  -18.5902   34.4208 C   0  0  0  0  0  0  0  0  0  0  0  0
   36.3512  -17.1844   34.9046 C   0  0  0  0  0  0  0  0  0  0  0  0
   36.7438  -16.1532   35.7978 N   0  0  0  0  0  0  0  0  0  0  0  0
   36.2353  -14.8808   35.3593 C   0  0  0  0  0  0  0  0  0  0  0  0
   36.1635  -24.1126   37.2810 C   0  0  0  0  0  0  0  0  0  0  0  0
   36.8404  -24.6457   38.3858 C   0  0  0  0  0  0  0  0  0  0  0  0
   37.8619  -25.5009   38.2047 N   0  0  0  0  0  0  0  0  0  0  0  0
   38.2824  -25.8845   36.9882 C   0  0  0  0  0  0  0  0  0  0  0  0
   37.6442  -25.3838   35.8757 C   0  0  0  0  0  0  0  0  0  0  0  0
   38.1181  -25.8238   34.2481 Cl  0  0  0  0  0  0  0  0  0  0  0  0
   36.5971  -24.5069   36.0671 C   0  0  0  0  0  0  0  0  0  0  0  0
   31.5844  -24.2279   38.6221 C   0  0  0  0  0  0  0  0  0  0  0  0
   31.4586  -25.5573   38.5490 N   0  0  0  0  0  0  0  0  0  0  0  0
   30.3177  -25.8844   39.0338 O   0  0  0  0  0  0  0  0  0  0  0  0
   29.6675  -24.8098   39.4336 C   0  0  0  0  0  0  0  0  0  0  0  0
   28.5064  -24.7851   39.9624 O   0  0  0  0  0  0  0  0  0  0  0  0
   30.4563  -23.7628   39.1787 N   0  0  0  0  0  0  0  0  0  0  0  0
   30.1876  -22.7768   39.3968 H   0  0  0  0  0  0  0  0  0  0  0  0
   37.1184  -21.1705   36.7247 C   0  0  0  0  0  0  0  0  0  0  0  0
   38.0127  -21.6159   37.8477 C   0  0  0  0  0  0  0  0  0  0  0  0
   39.2827  -22.1374   37.1194 C   0  0  0  0  0  0  0  0  0  0  0  0
   40.2970  -22.6048   38.1066 C   0  0  0  0  0  0  0  0  0  0  0  0
   40.6821  -21.4292   39.0043 C   0  0  0  0  0  0  0  0  0  0  0  0
   41.7805  -21.8914   39.9054 C   0  0  0  0  0  0  0  0  0  0  0  0
   39.4310  -21.0383   39.7498 C   0  0  0  0  0  0  0  0  0  0  0  0
   38.4573  -20.4643   38.7217 C   0  0  0  0  0  0  0  0  0  0  0  0
 10 11  1  0  0  0
 11 12  1  0  0  0
 12 13  1  0  0  0
 13 14  1  0  0  0
 14 15  1  0  0  0
 14 16  1  0  0  0
 16 17  1  0  0  0
 17 18  1  0  0  0
 13  1  1  0  0  0
  1  2  2  0  0  0
  2  3  1  0  0  0
  3  4  2  0  0  0
  4  5  1  0  0  0
  5  6  2  0  0  0
  6  7  1  0  0  0
  7 19  1  0  0  0
 19 20  2  0  0  0
 20 21  1  0  0  0
 21 22  2  0  0  0
 22 23  1  0  0  0
 23 24  1  0  0  0
 23 25  2  0  0  0
  7  8  2  0  0  0
  8  9  1  0  0  0
  9 33  1  0  0  0
 33 34  1  0  0  0
 34 35  1  0  0  0
 35 36  1  0  0  0
 36 37  1  0  0  0
 37 38  1  0  0  0
 37 39  1  0  0  0
 39 40  1  0  0  0
  5 26  1  0  0  0
 26 27  2  0  0  0
 27 28  1  0  0  0
 28 29  1  0  0  0
 29 30  2  0  0  0
 29 31  1  0  0  0
 17 11  1  0  0  0
  9  1  1  0  0  0
 40 34  1  0  0  0
 31 26  1  0  0  0
  8  3  1  0  0  0
 25 19  1  0  0  0
 31 32  1  0  0  0
M  END
> <minimizedAffinity>
-3.97753

> <CNNscore>
0.3319891989

> <CNNaffinity>
6.9270133972

> <CNN_VS>
2.2996935844

> <CNNaffinity_variance>
0.8524403572

$$$$
[H]c1nc([H])c(-c2nc(-c3noc(=O)n3[H])c([H])c3nc(N4C([H])([H])[C@]([H])(C([H])([H])[H])N(C([H])([H])[H])C([H])([H])[C@@]4([H])C([H])([H])[H])n(C([H])([H])[C@]4([H])C([H])([H])C([H])([H])[C@@]([H])(C([H])([H])[H])C([H])([H])C4([H])[H])c23)c([H])c1Cl


 40 45  0  0  0  0  0  0  0  0999 V2000
   34.3217  -21.9525   37.7950 C   0  0  0  0  0  0  0  0  0  0  0  0
   34.8939  -20.7462   37.5084 N   0  0  0  0  0  0  0  0  0  0  0  0
   33.9432  -20.0417   36.8955 C   0  0  0  0  0  0  0  0  0  0  0  0
   33.9616  -18.7550   36.4033 C   0  0  0  0  0  0  0  0  0  0  0  0
   32.8291  -18.2592   35.8249 C   0  0  0  0  0  0  0  0  0  0  0  0
   31.7231  -18.9545   35.7142 N   0  0  0  0  0  0  0  0  0  0  0  0
   31.6572  -20.2598   36.1956 C   0  0  0  0  0  0  0  0  0  0  0  0
   32.7525  -20.7849   36.7791 C   0  0  0  0  0  0  0  0  0  0  0  0
   33.0452  -21.9946   37.3731 N   0  0  0  0  0  0  0  0  0  0  0  0
   38.1810  -23.5287   40.0817 C   0  0  0  0  0  0  0  0  0  0  0  0
   36.6540  -23.6291   40.2505 C   0  0  0  0  0  0  0  0  0  0  0  0
   35.9304  -22.5522   39.5500 C   0  0  0  0  0  0  0  0  0  0  0  0
   35.1473  -22.9488   38.3932 N   0  0  0  0  0  0  0  0  0  0  0  0
   35.3489  -24.2847   37.9350 C   0  0  0  0  0  0  0  0  0  0  0  0
   34.5896  -24.7036   36.7244 C   0  0  0  0  0  0  0  0  0  0  0  0
   35.2175  -25.2072   39.1196 C   0  0  0  0  0  0  0  0  0  0  0  0
   36.2980  -24.9650   40.0079 N   0  0  0  0  0  0  0  0  0  0  0  0
   37.3773  -25.8824   39.7565 C   0  0  0  0  0  0  0  0  0  0  0  0
   30.4022  -20.9189   35.9863 C   0  0  0  0  0  0  0  0  0  0  0  0
   30.0003  -21.1662   34.6671 C   0  0  0  0  0  0  0  0  0  0  0  0
   28.9029  -21.9030   34.4215 N   0  0  0  0  0  0  0  0  0  0  0  0
   28.1477  -22.4311   35.3985 C   0  0  0  0  0  0  0  0  0  0  0  0
   28.5077  -22.2118   36.7092 C   0  0  0  0  0  0  0  0  0  0  0  0
   27.5885  -22.8581   38.0526 Cl  0  0  0  0  0  0  0  0  0  0  0  0
   29.6342  -21.4553   36.9555 C   0  0  0  0  0  0  0  0  0  0  0  0
   32.8709  -16.8900   35.3128 C   0  0  0  0  0  0  0  0  0  0  0  0
   32.2878  -16.4490   34.1930 N   0  0  0  0  0  0  0  0  0  0  0  0
   32.5402  -15.1981   34.0694 O   0  0  0  0  0  0  0  0  0  0  0  0
   33.2795  -14.7806   35.0776 C   0  0  0  0  0  0  0  0  0  0  0  0
   33.7050  -13.5912   35.2579 O   0  0  0  0  0  0  0  0  0  0  0  0
   33.4928  -15.8379   35.8651 N   0  0  0  0  0  0  0  0  0  0  0  0
   34.0543  -15.7924   36.7452 H   0  0  0  0  0  0  0  0  0  0  0  0
   32.0967  -23.0493   37.5570 C   0  0  0  0  0  0  0  0  0  0  0  0
   31.9347  -24.0674   36.4630 C   0  0  0  0  0  0  0  0  0  0  0  0
   30.4527  -24.5160   36.5970 C   0  0  0  0  0  0  0  0  0  0  0  0
   30.1157  -25.5260   35.5539 C   0  0  0  0  0  0  0  0  0  0  0  0
   30.3249  -24.8948   34.1777 C   0  0  0  0  0  0  0  0  0  0  0  0
   29.8708  -25.8840   33.1545 C   0  0  0  0  0  0  0  0  0  0  0  0
   31.7950  -24.5740   34.0783 C   0  0  0  0  0  0  0  0  0  0  0  0
   32.0802  -23.4607   35.0851 C   0  0  0  0  0  0  0  0  0  0  0  0
 10 11  1  0  0  0
 11 12  1  0  0  0
 12 13  1  0  0  0
 13 14  1  0  0  0
 14 15  1  0  0  0
 14 16  1  0  0  0
 16 17  1  0  0  0
 17 18  1  0  0  0
 13  1  1  0  0  0
  1  2  2  0  0  0
  2  3  1  0  0  0
  3  4  2  0  0  0
  4  5  1  0  0  0
  5  6  2  0  0  0
  6  7  1  0  0  0
  7 19  1  0  0  0
 19 20  2  0  0  0
 20 21  1  0  0  0
 21 22  2  0  0  0
 22 23  1  0  0  0
 23 24  1  0  0  0
 23 25  2  0  0  0
  7  8  2  0  0  0
  8  9  1  0  0  0
  9 33  1  0  0  0
 33 34  1  0  0  0
 34 35  1  0  0  0
 35 36  1  0  0  0
 36 37  1  0  0  0
 37 38  1  0  0  0
 37 39  1  0  0  0
 39 40  1  0  0  0
  5 26  1  0  0  0
 26 27  2  0  0  0
 27 28  1  0  0  0
 28 29  1  0  0  0
 29 30  2  0  0  0
 29 31  1  0  0  0
 17 11  1  0  0  0
  9  1  1  0  0  0
 40 34  1  0  0  0
 31 26  1  0  0  0
  8  3  1  0  0  0
 25 19  1  0  0  0
 31 32  1  0  0  0
M  END
> <minimizedAffinity>
1.52020

> <CNNscore>
0.3007971644

> <CNNaffinity>
6.1944017410

> <CNN_VS>
1.8632584810

> <CNNaffinity_variance>
0.2424835265

$$$$
[H]c1nc([H])c(-c2nc(-c3noc(=O)n3[H])c([H])c3nc(N4C([H])([H])[C@]([H])(C([H])([H])[H])N(C([H])([H])[H])C([H])([H])[C@@]4([H])C([H])([H])[H])n(C([H])([H])[C@]4([H])C([H])([H])C([H])([H])[C@@]([H])(C([H])([H])[H])C([H])([H])C4([H])[H])c23)c([H])c1Cl


 40 45  0  0  0  0  0  0  0  0999 V2000
   34.7209  -21.7478   37.2739 C   0  0  0  0  0  0  0  0  0  0  0  0
   34.1707  -20.5034   37.1578 N   0  0  0  0  0  0  0  0  0  0  0  0
   35.2030  -19.6607   37.1530 C   0  0  0  0  0  0  0  0  0  0  0  0
   35.2350  -18.2878   37.0419 C   0  0  0  0  0  0  0  0  0  0  0  0
   36.4461  -17.6585   37.0494 C   0  0  0  0  0  0  0  0  0  0  0  0
   37.5826  -18.3029   37.1604 N   0  0  0  0  0  0  0  0  0  0  0  0
   37.6002  -19.6907   37.2767 C   0  0  0  0  0  0  0  0  0  0  0  0
   36.4254  -20.3506   37.2677 C   0  0  0  0  0  0  0  0  0  0  0  0
   36.0628  -21.6794   37.3363 N   0  0  0  0  0  0  0  0  0  0  0  0
   30.7506  -24.1797   36.3090 C   0  0  0  0  0  0  0  0  0  0  0  0
   32.2669  -24.4451   36.2824 C   0  0  0  0  0  0  0  0  0  0  0  0
   33.0618  -23.2059   36.2019 C   0  0  0  0  0  0  0  0  0  0  0  0
   33.8300  -22.8554   37.3832 N   0  0  0  0  0  0  0  0  0  0  0  0
   33.5512  -23.6199   38.5550 C   0  0  0  0  0  0  0  0  0  0  0  0
   34.2947  -23.2529   39.7918 C   0  0  0  0  0  0  0  0  0  0  0  0
   33.6145  -25.0793   38.1836 C   0  0  0  0  0  0  0  0  0  0  0  0
   32.5425  -25.3716   37.3001 N   0  0  0  0  0  0  0  0  0  0  0  0
   31.4114  -25.8842   38.0265 C   0  0  0  0  0  0  0  0  0  0  0  0
   38.9034  -20.2689   37.4205 C   0  0  0  0  0  0  0  0  0  0  0  0
   39.8144  -20.1090   36.3681 C   0  0  0  0  0  0  0  0  0  0  0  0
   41.0897  -20.5099   36.5110 N   0  0  0  0  0  0  0  0  0  0  0  0
   41.5534  -21.0717   37.6394 C   0  0  0  0  0  0  0  0  0  0  0  0
   40.6907  -21.2471   38.6980 C   0  0  0  0  0  0  0  0  0  0  0  0
   41.2000  -21.9690   40.2101 Cl  0  0  0  0  0  0  0  0  0  0  0  0
   39.3837  -20.8341   38.5460 C   0  0  0  0  0  0  0  0  0  0  0  0
   36.4559  -16.2013   36.9266 C   0  0  0  0  0  0  0  0  0  0  0  0
   35.4937  -15.4497   36.3809 N   0  0  0  0  0  0  0  0  0  0  0  0
   35.8499  -14.2201   36.4515 O   0  0  0  0  0  0  0  0  0  0  0  0
   37.0293  -14.1200   37.0316 C   0  0  0  0  0  0  0  0  0  0  0  0
   37.6685  -13.0388   37.2569 O   0  0  0  0  0  0  0  0  0  0  0  0
   37.4186  -15.3611   37.3341 N   0  0  0  0  0  0  0  0  0  0  0  0
   38.3256  -15.5779   37.8056 H   0  0  0  0  0  0  0  0  0  0  0  0
   36.9935  -22.7645   37.3826 C   0  0  0  0  0  0  0  0  0  0  0  0
   37.2383  -23.5538   36.1271 C   0  0  0  0  0  0  0  0  0  0  0  0
   38.6061  -23.0186   35.6192 C   0  0  0  0  0  0  0  0  0  0  0  0
   39.0131  -23.7245   34.3710 C   0  0  0  0  0  0  0  0  0  0  0  0
   39.1411  -25.2171   34.6740 C   0  0  0  0  0  0  0  0  0  0  0  0
   39.6609  -25.8839   33.4423 C   0  0  0  0  0  0  0  0  0  0  0  0
   37.7635  -25.6892   35.0653 C   0  0  0  0  0  0  0  0  0  0  0  0
   37.4259  -25.0294   36.4014 C   0  0  0  0  0  0  0  0  0  0  0  0
 10 11  1  0  0  0
 11 12  1  0  0  0
 12 13  1  0  0  0
 13 14  1  0  0  0
 14 15  1  0  0  0
 14 16  1  0  0  0
 16 17  1  0  0  0
 17 18  1  0  0  0
 13  1  1  0  0  0
  1  2  2  0  0  0
  2  3  1  0  0  0
  3  4  2  0  0  0
  4  5  1  0  0  0
  5  6  2  0  0  0
  6  7  1  0  0  0
  7 19  1  0  0  0
 19 20  2  0  0  0
 20 21  1  0  0  0
 21 22  2  0  0  0
 22 23  1  0  0  0
 23 24  1  0  0  0
 23 25  2  0  0  0
  7  8  2  0  0  0
  8  9  1  0  0  0
  9 33  1  0  0  0
 33 34  1  0  0  0
 34 35  1  0  0  0
 35 36  1  0  0  0
 36 37  1  0  0  0
 37 38  1  0  0  0
 37 39  1  0  0  0
 39 40  1  0  0  0
  5 26  1  0  0  0
 26 27  2  0  0  0
 27 28  1  0  0  0
 28 29  1  0  0  0
 29 30  2  0  0  0
 29 31  1  0  0  0
 17 11  1  0  0  0
  9  1  1  0  0  0
 40 34  1  0  0  0
 31 26  1  0  0  0
  8  3  1  0  0  0
 25 19  1  0  0  0
 31 32  1  0  0  0
M  END
> <minimizedAffinity>
-5.17365

> <CNNscore>
0.2433565259

> <CNNaffinity>
6.6723489761

> <CNN_VS>
1.6237596273

> <CNNaffinity_variance>
0.5226085186

$$$$
[H]c1nc([H])c(-c2nc(-c3noc(=O)n3[H])c([H])c3nc(N4C([H])([H])[C@]([H])(C([H])([H])[H])N(C([H])([H])[H])C([H])([H])[C@@]4([H])C([H])([H])[H])n(C([H])([H])[C@]4([H])C([H])([H])C([H])([H])[C@@]([H])(C([H])([H])[H])C([H])([H])C4([H])[H])c23)c([H])c1Cl


 40 45  0  0  0  0  0  0  0  0999 V2000
   35.6932  -21.7549   37.2087 C   0  0  0  0  0  0  0  0  0  0  0  0
   35.4872  -20.4978   36.7166 N   0  0  0  0  0  0  0  0  0  0  0  0
   34.2387  -20.5018   36.2509 C   0  0  0  0  0  0  0  0  0  0  0  0
   33.5016  -19.4976   35.6621 C   0  0  0  0  0  0  0  0  0  0  0  0
   32.2177  -19.7642   35.2833 C   0  0  0  0  0  0  0  0  0  0  0  0
   31.6540  -20.9358   35.4526 N   0  0  0  0  0  0  0  0  0  0  0  0
   32.3602  -21.9818   36.0418 C   0  0  0  0  0  0  0  0  0  0  0  0
   33.6293  -21.7580   36.4354 C   0  0  0  0  0  0  0  0  0  0  0  0
   34.5975  -22.5198   37.0552 N   0  0  0  0  0  0  0  0  0  0  0  0
   39.5899  -24.4381   37.6826 C   0  0  0  0  0  0  0  0  0  0  0  0
   39.2662  -22.9821   37.3010 C   0  0  0  0  0  0  0  0  0  0  0  0
   37.8783  -22.8097   36.8338 C   0  0  0  0  0  0  0  0  0  0  0  0
   36.9921  -22.0628   37.7088 N   0  0  0  0  0  0  0  0  0  0  0  0
   37.4988  -21.7811   39.0124 C   0  0  0  0  0  0  0  0  0  0  0  0
   36.5937  -21.0532   39.9443 C   0  0  0  0  0  0  0  0  0  0  0  0
   38.8713  -21.1778   38.8571 C   0  0  0  0  0  0  0  0  0  0  0  0
   39.7473  -22.1663   38.3369 N   0  0  0  0  0  0  0  0  0  0  0  0
   40.4549  -22.8281   39.4006 C   0  0  0  0  0  0  0  0  0  0  0  0
   31.6403  -23.2167   36.1416 C   0  0  0  0  0  0  0  0  0  0  0  0
   31.8039  -24.1589   35.1177 C   0  0  0  0  0  0  0  0  0  0  0  0
   31.2625  -25.3841   35.2334 N   0  0  0  0  0  0  0  0  0  0  0  0
   30.5525  -25.7671   36.3072 C   0  0  0  0  0  0  0  0  0  0  0  0
   30.3680  -24.8712   37.3363 C   0  0  0  0  0  0  0  0  0  0  0  0
   29.4588  -25.2761   38.7773 Cl  0  0  0  0  0  0  0  0  0  0  0  0
   30.9255  -23.6159   37.2125 C   0  0  0  0  0  0  0  0  0  0  0  0
   31.4533  -18.6823   34.6638 C   0  0  0  0  0  0  0  0  0  0  0  0
   30.2325  -18.7862   34.1277 N   0  0  0  0  0  0  0  0  0  0  0  0
   29.8848  -17.6349   33.6835 O   0  0  0  0  0  0  0  0  0  0  0  0
   30.8395  -16.7536   33.9054 C   0  0  0  0  0  0  0  0  0  0  0  0
   30.8125  -15.5179   33.5883 O   0  0  0  0  0  0  0  0  0  0  0  0
   31.8304  -17.4031   34.5216 N   0  0  0  0  0  0  0  0  0  0  0  0
   32.7204  -16.9423   34.8173 H   0  0  0  0  0  0  0  0  0  0  0  0
   34.3953  -23.8608   37.5098 C   0  0  0  0  0  0  0  0  0  0  0  0
   34.8859  -24.2353   38.8804 C   0  0  0  0  0  0  0  0  0  0  0  0
   36.4145  -23.9636   38.8089 C   0  0  0  0  0  0  0  0  0  0  0  0
   37.0616  -24.2684   40.1166 C   0  0  0  0  0  0  0  0  0  0  0  0
   36.4434  -23.3708   41.1880 C   0  0  0  0  0  0  0  0  0  0  0  0
   37.1867  -23.6116   42.4614 C   0  0  0  0  0  0  0  0  0  0  0  0
   34.9872  -23.7533   41.2721 C   0  0  0  0  0  0  0  0  0  0  0  0
   34.3350  -23.3276   39.9576 C   0  0  0  0  0  0  0  0  0  0  0  0
 10 11  1  0  0  0
 11 12  1  0  0  0
 12 13  1  0  0  0
 13 14  1  0  0  0
 14 15  1  0  0  0
 14 16  1  0  0  0
 16 17  1  0  0  0
 17 18  1  0  0  0
 13  1  1  0  0  0
  1  2  2  0  0  0
  2  3  1  0  0  0
  3  4  2  0  0  0
  4  5  1  0  0  0
  5  6  2  0  0  0
  6  7  1  0  0  0
  7 19  1  0  0  0
 19 20  2  0  0  0
 20 21  1  0  0  0
 21 22  2  0  0  0
 22 23  1  0  0  0
 23 24  1  0  0  0
 23 25  2  0  0  0
  7  8  2  0  0  0
  8  9  1  0  0  0
  9 33  1  0  0  0
 33 34  1  0  0  0
 34 35  1  0  0  0
 35 36  1  0  0  0
 36 37  1  0  0  0
 37 38  1  0  0  0
 37 39  1  0  0  0
 39 40  1  0  0  0
  5 26  1  0  0  0
 26 27  2  0  0  0
 27 28  1  0  0  0
 28 29  1  0  0  0
 29 30  2  0  0  0
 29 31  1  0  0  0
 17 11  1  0  0  0
  9  1  1  0  0  0
 40 34  1  0  0  0
 31 26  1  0  0  0
  8  3  1  0  0  0
 25 19  1  0  0  0
 31 32  1  0  0  0
M  END
> <minimizedAffinity>
9.31675

> <CNNscore>
0.2395605892

> <CNNaffinity>
5.9951357841

> <CNN_VS>
1.4361982346

> <CNNaffinity_variance>
0.2457488477

$$$$
[H]c1nc([H])c(-c2nc(-c3noc(=O)n3[H])c([H])c3nc(N4C([H])([H])[C@]([H])(C([H])([H])[H])N(C([H])([H])[H])C([H])([H])[C@@]4([H])C([H])([H])[H])n(C([H])([H])[C@]4([H])C([H])([H])C([H])([H])[C@@]([H])(C([H])([H])[H])C([H])([H])C4([H])[H])c23)c([H])c1Cl


 40 45  0  0  0  0  0  0  0  0999 V2000
   33.7343  -21.7835   37.0836 C   0  0  0  0  0  0  0  0  0  0  0  0
   34.2027  -22.4734   38.1650 N   0  0  0  0  0  0  0  0  0  0  0  0
   35.5279  -22.3410   38.1207 C   0  0  0  0  0  0  0  0  0  0  0  0
   36.5023  -22.8165   38.9709 C   0  0  0  0  0  0  0  0  0  0  0  0
   37.8072  -22.5202   38.7019 C   0  0  0  0  0  0  0  0  0  0  0  0
   38.1761  -21.8041   37.6673 N   0  0  0  0  0  0  0  0  0  0  0  0
   37.2271  -21.3032   36.7794 C   0  0  0  0  0  0  0  0  0  0  0  0
   35.9267  -21.5684   37.0127 C   0  0  0  0  0  0  0  0  0  0  0  0
   34.7445  -21.2331   36.3866 N   0  0  0  0  0  0  0  0  0  0  0  0
   29.2634  -23.1874   37.8887 C   0  0  0  0  0  0  0  0  0  0  0  0
   30.0119  -21.8513   37.7313 C   0  0  0  0  0  0  0  0  0  0  0  0
   31.4590  -21.9744   37.9860 C   0  0  0  0  0  0  0  0  0  0  0  0
   32.3311  -21.8198   36.8352 N   0  0  0  0  0  0  0  0  0  0  0  0
   31.6837  -21.7948   35.5641 C   0  0  0  0  0  0  0  0  0  0  0  0
   32.5585  -21.6798   34.3646 C   0  0  0  0  0  0  0  0  0  0  0  0
   30.5628  -20.7896   35.6332 C   0  0  0  0  0  0  0  0  0  0  0  0
   29.5739  -21.2707   36.5308 N   0  0  0  0  0  0  0  0  0  0  0  0
   28.5389  -21.9712   35.8180 C   0  0  0  0  0  0  0  0  0  0  0  0
   37.7630  -20.5625   35.6761 C   0  0  0  0  0  0  0  0  0  0  0  0
   38.4716  -21.2656   34.6930 C   0  0  0  0  0  0  0  0  0  0  0  0
   38.8722  -20.6413   33.5717 N   0  0  0  0  0  0  0  0  0  0  0  0
   38.6240  -19.3430   33.3337 C   0  0  0  0  0  0  0  0  0  0  0  0
   37.9303  -18.6154   34.2745 C   0  0  0  0  0  0  0  0  0  0  0  0
   37.5574  -16.9183   34.0560 Cl  0  0  0  0  0  0  0  0  0  0  0  0
   37.5218  -19.2607   35.4229 C   0  0  0  0  0  0  0  0  0  0  0  0
   38.8237  -23.0325   39.6199 C   0  0  0  0  0  0  0  0  0  0  0  0
   40.1439  -23.0452   39.4067 N   0  0  0  0  0  0  0  0  0  0  0  0
   40.7152  -23.5674   40.4288 O   0  0  0  0  0  0  0  0  0  0  0  0
   39.8149  -23.9086   41.3292 C   0  0  0  0  0  0  0  0  0  0  0  0
   40.0487  -24.4521   42.4598 O   0  0  0  0  0  0  0  0  0  0  0  0
   38.6221  -23.5760   40.8293 N   0  0  0  0  0  0  0  0  0  0  0  0
   37.7233  -23.7359   41.3378 H   0  0  0  0  0  0  0  0  0  0  0  0
   34.6556  -20.3778   35.2436 C   0  0  0  0  0  0  0  0  0  0  0  0
   34.9637  -18.9166   35.4152 C   0  0  0  0  0  0  0  0  0  0  0  0
   33.9679  -18.2167   34.4489 C   0  0  0  0  0  0  0  0  0  0  0  0
   34.1289  -16.7362   34.5141 C   0  0  0  0  0  0  0  0  0  0  0  0
   33.8451  -16.2770   35.9440 C   0  0  0  0  0  0  0  0  0  0  0  0
   33.8984  -14.7840   35.9566 C   0  0  0  0  0  0  0  0  0  0  0  0
   34.9021  -16.9136   36.8107 C   0  0  0  0  0  0  0  0  0  0  0  0
   34.6392  -18.4187   36.8061 C   0  0  0  0  0  0  0  0  0  0  0  0
 10 11  1  0  0  0
 11 12  1  0  0  0
 12 13  1  0  0  0
 13 14  1  0  0  0
 14 15  1  0  0  0
 14 16  1  0  0  0
 16 17  1  0  0  0
 17 18  1  0  0  0
 13  1  1  0  0  0
  1  2  2  0  0  0
  2  3  1  0  0  0
  3  4  2  0  0  0
  4  5  1  0  0  0
  5  6  2  0  0  0
  6  7  1  0  0  0
  7 19  1  0  0  0
 19 20  2  0  0  0
 20 21  1  0  0  0
 21 22  2  0  0  0
 22 23  1  0  0  0
 23 24  1  0  0  0
 23 25  2  0  0  0
  7  8  2  0  0  0
  8  9  1  0  0  0
  9 33  1  0  0  0
 33 34  1  0  0  0
 34 35  1  0  0  0
 35 36  1  0  0  0
 36 37  1  0  0  0
 37 38  1  0  0  0
 37 39  1  0  0  0
 39 40  1  0  0  0
  5 26  1  0  0  0
 26 27  2  0  0  0
 27 28  1  0  0  0
 28 29  1  0  0  0
 29 30  2  0  0  0
 29 31  1  0  0  0
 17 11  1  0  0  0
  9  1  1  0  0  0
 40 34  1  0  0  0
 31 26  1  0  0  0
  8  3  1  0  0  0
 25 19  1  0  0  0
 31 32  1  0  0  0
M  END
> <minimizedAffinity>
-2.21439

> <CNNscore>
0.2224791348

> <CNNaffinity>
6.4821443558

> <CNN_VS>
1.4421418905

> <CNNaffinity_variance>
0.1323964894

$$$$
[H]c1nc([H])c(-c2nc(-c3noc(=O)n3[H])c([H])c3nc(N4C([H])([H])[C@]([H])(C([H])([H])[H])N(C([H])([H])[H])C([H])([H])[C@@]4([H])C([H])([H])[H])n(C([H])([H])[C@]4([H])C([H])([H])C([H])([H])[C@@]([H])(C([H])([H])[H])C([H])([H])C4([H])[H])c23)c([H])c1Cl


 40 45  0  0  0  0  0  0  0  0999 V2000
   39.3976  -19.3731   36.7976 C   0  0  0  0  0  0  0  0  0  0  0  0
   39.1989  -18.0530   36.5102 N   0  0  0  0  0  0  0  0  0  0  0  0
   37.8888  -17.8547   36.6522 C   0  0  0  0  0  0  0  0  0  0  0  0
   37.1374  -16.7094   36.5038 C   0  0  0  0  0  0  0  0  0  0  0  0
   35.7924  -16.7756   36.7267 C   0  0  0  0  0  0  0  0  0  0  0  0
   35.1819  -17.8828   37.0739 N   0  0  0  0  0  0  0  0  0  0  0  0
   35.8995  -19.0656   37.2345 C   0  0  0  0  0  0  0  0  0  0  0  0
   37.2311  -19.0415   37.0295 C   0  0  0  0  0  0  0  0  0  0  0  0
   38.2391  -19.9789   37.1138 N   0  0  0  0  0  0  0  0  0  0  0  0
   42.7961  -21.9347   34.6771 C   0  0  0  0  0  0  0  0  0  0  0  0
   42.6148  -20.4824   35.1545 C   0  0  0  0  0  0  0  0  0  0  0  0
   41.1976  -20.1004   35.2946 C   0  0  0  0  0  0  0  0  0  0  0  0
   40.7182  -19.8891   36.6489 N   0  0  0  0  0  0  0  0  0  0  0  0
   41.6036  -20.2943   37.6916 C   0  0  0  0  0  0  0  0  0  0  0  0
   41.1190  -20.1278   39.0898 C   0  0  0  0  0  0  0  0  0  0  0  0
   42.9573  -19.6936   37.4114 C   0  0  0  0  0  0  0  0  0  0  0  0
   43.4868  -20.2912   36.2377 N   0  0  0  0  0  0  0  0  0  0  0  0
   44.3465  -21.3948   36.5735 C   0  0  0  0  0  0  0  0  0  0  0  0
   35.1102  -20.2086   37.5866 C   0  0  0  0  0  0  0  0  0  0  0  0
   34.8731  -20.4517   38.9458 C   0  0  0  0  0  0  0  0  0  0  0  0
   34.0262  -21.4263   39.3207 N   0  0  0  0  0  0  0  0  0  0  0  0
   33.3752  -22.2030   38.4393 C   0  0  0  0  0  0  0  0  0  0  0  0
   33.5800  -21.9971   37.0935 C   0  0  0  0  0  0  0  0  0  0  0  0
   32.7778  -22.9567   35.8676 Cl  0  0  0  0  0  0  0  0  0  0  0  0
   34.4498  -20.9962   36.7145 C   0  0  0  0  0  0  0  0  0  0  0  0
   35.0156  -15.5470   36.5668 C   0  0  0  0  0  0  0  0  0  0  0  0
   33.8283  -15.4382   35.9610 N   0  0  0  0  0  0  0  0  0  0  0  0
   33.4558  -14.2126   36.0150 O   0  0  0  0  0  0  0  0  0  0  0  0
   34.3611  -13.4884   36.6424 C   0  0  0  0  0  0  0  0  0  0  0  0
   34.2987  -12.2338   36.8669 O   0  0  0  0  0  0  0  0  0  0  0  0
   35.3461  -14.3191   36.9933 N   0  0  0  0  0  0  0  0  0  0  0  0
   36.2005  -14.0089   37.5087 H   0  0  0  0  0  0  0  0  0  0  0  0
   38.0464  -21.3286   37.5462 C   0  0  0  0  0  0  0  0  0  0  0  0
   37.6703  -22.3632   36.5227 C   0  0  0  0  0  0  0  0  0  0  0  0
   38.9469  -22.4914   35.6457 C   0  0  0  0  0  0  0  0  0  0  0  0
   38.7469  -23.5109   34.5768 C   0  0  0  0  0  0  0  0  0  0  0  0
   38.4554  -24.8586   35.2362 C   0  0  0  0  0  0  0  0  0  0  0  0
   38.3748  -25.8828   34.1516 C   0  0  0  0  0  0  0  0  0  0  0  0
   37.1591  -24.6904   35.9880 C   0  0  0  0  0  0  0  0  0  0  0  0
   37.4306  -23.7234   37.1394 C   0  0  0  0  0  0  0  0  0  0  0  0
 10 11  1  0  0  0
 11 12  1  0  0  0
 12 13  1  0  0  0
 13 14  1  0  0  0
 14 15  1  0  0  0
 14 16  1  0  0  0
 16 17  1  0  0  0
 17 18  1  0  0  0
 13  1  1  0  0  0
  1  2  2  0  0  0
  2  3  1  0  0  0
  3  4  2  0  0  0
  4  5  1  0  0  0
  5  6  2  0  0  0
  6  7  1  0  0  0
  7 19  1  0  0  0
 19 20  2  0  0  0
 20 21  1  0  0  0
 21 22  2  0  0  0
 22 23  1  0  0  0
 23 24  1  0  0  0
 23 25  2  0  0  0
  7  8  2  0  0  0
  8  9  1  0  0  0
  9 33  1  0  0  0
 33 34  1  0  0  0
 34 35  1  0  0  0
 35 36  1  0  0  0
 36 37  1  0  0  0
 37 38  1  0  0  0
 37 39  1  0  0  0
 39 40  1  0  0  0
  5 26  1  0  0  0
 26 27  2  0  0  0
 27 28  1  0  0  0
 28 29  1  0  0  0
 29 30  2  0  0  0
 29 31  1  0  0  0
 17 11  1  0  0  0
  9  1  1  0  0  0
 40 34  1  0  0  0
 31 26  1  0  0  0
  8  3  1  0  0  0
 25 19  1  0  0  0
 31 32  1  0  0  0
M  END
> <minimizedAffinity>
-5.79764

> <CNNscore>
0.2025065124

> <CNNaffinity>
6.4990220070

> <CNN_VS>
1.3160942793

> <CNNaffinity_variance>
0.5033965111

$$$$
[H]c1nc([H])c(-c2nc(-c3noc(=O)n3[H])c([H])c3nc(N4C([H])([H])[C@]([H])(C([H])([H])[H])N(C([H])([H])[H])C([H])([H])[C@@]4([H])C([H])([H])[H])n(C([H])([H])[C@]4([H])C([H])([H])C([H])([H])[C@@]([H])(C([H])([H])[H])C([H])([H])C4([H])[H])c23)c([H])c1Cl


 40 45  0  0  0  0  0  0  0  0999 V2000
   36.3348  -22.8417   38.9223 C   0  0  0  0  0  0  0  0  0  0  0  0
   35.5435  -23.4228   39.8714 N   0  0  0  0  0  0  0  0  0  0  0  0
   34.2920  -23.1985   39.4726 C   0  0  0  0  0  0  0  0  0  0  0  0
   33.0931  -23.5735   40.0386 C   0  0  0  0  0  0  0  0  0  0  0  0
   31.9339  -23.2231   39.4089 C   0  0  0  0  0  0  0  0  0  0  0  0
   31.9100  -22.5422   38.2886 N   0  0  0  0  0  0  0  0  0  0  0  0
   33.0964  -22.1399   37.6801 C   0  0  0  0  0  0  0  0  0  0  0  0
   34.2634  -22.4710   38.2670 C   0  0  0  0  0  0  0  0  0  0  0  0
   35.5921  -22.2731   37.9556 N   0  0  0  0  0  0  0  0  0  0  0  0
   40.6264  -24.8815   39.0939 C   0  0  0  0  0  0  0  0  0  0  0  0
   39.9931  -23.6480   38.4249 C   0  0  0  0  0  0  0  0  0  0  0  0
   38.5276  -23.7549   38.3017 C   0  0  0  0  0  0  0  0  0  0  0  0
   37.7441  -22.8613   39.1360 N   0  0  0  0  0  0  0  0  0  0  0  0
   38.4702  -22.1494   40.1366 C   0  0  0  0  0  0  0  0  0  0  0  0
   37.6840  -21.2581   41.0338 C   0  0  0  0  0  0  0  0  0  0  0  0
   39.6578  -21.4989   39.4746 C   0  0  0  0  0  0  0  0  0  0  0  0
   40.5487  -22.5141   39.0378 N   0  0  0  0  0  0  0  0  0  0  0  0
   41.5702  -22.7513   40.0228 C   0  0  0  0  0  0  0  0  0  0  0  0
   32.9312  -21.3781   36.4778 C   0  0  0  0  0  0  0  0  0  0  0  0
   32.5354  -22.0565   35.3176 C   0  0  0  0  0  0  0  0  0  0  0  0
   32.2321  -21.3691   34.2026 N   0  0  0  0  0  0  0  0  0  0  0  0
   32.2889  -20.0289   34.1363 C   0  0  0  0  0  0  0  0  0  0  0  0
   32.6734  -19.3236   35.2546 C   0  0  0  0  0  0  0  0  0  0  0  0
   32.7776  -17.5754   35.2680 Cl  0  0  0  0  0  0  0  0  0  0  0  0
   32.9834  -20.0336   36.3955 C   0  0  0  0  0  0  0  0  0  0  0  0
   30.6738  -23.6350   40.0260 C   0  0  0  0  0  0  0  0  0  0  0  0
   29.4688  -23.1071   39.7858 N   0  0  0  0  0  0  0  0  0  0  0  0
   28.6052  -23.7216   40.5071 O   0  0  0  0  0  0  0  0  0  0  0  0
   29.1951  -24.6528   41.2299 C   0  0  0  0  0  0  0  0  0  0  0  0
   28.6230  -25.4433   42.0522 O   0  0  0  0  0  0  0  0  0  0  0  0
   30.4965  -24.6059   40.9341 N   0  0  0  0  0  0  0  0  0  0  0  0
   31.2054  -25.2402   41.3668 H   0  0  0  0  0  0  0  0  0  0  0  0
   36.0506  -21.6384   36.7585 C   0  0  0  0  0  0  0  0  0  0  0  0
   35.7892  -20.1690   36.5803 C   0  0  0  0  0  0  0  0  0  0  0  0
   36.2813  -19.5451   37.9160 C   0  0  0  0  0  0  0  0  0  0  0  0
   36.1102  -18.0644   37.8959 C   0  0  0  0  0  0  0  0  0  0  0  0
   36.9352  -17.4934   36.7430 C   0  0  0  0  0  0  0  0  0  0  0  0
   36.8406  -16.0042   36.8156 C   0  0  0  0  0  0  0  0  0  0  0  0
   36.3445  -18.0622   35.4775 C   0  0  0  0  0  0  0  0  0  0  0  0
   36.6341  -19.5624   35.4822 C   0  0  0  0  0  0  0  0  0  0  0  0
 10 11  1  0  0  0
 11 12  1  0  0  0
 12 13  1  0  0  0
 13 14  1  0  0  0
 14 15  1  0  0  0
 14 16  1  0  0  0
 16 17  1  0  0  0
 17 18  1  0  0  0
 13  1  1  0  0  0
  1  2  2  0  0  0
  2  3  1  0  0  0
  3  4  2  0  0  0
  4  5  1  0  0  0
  5  6  2  0  0  0
  6  7  1  0  0  0
  7 19  1  0  0  0
 19 20  2  0  0  0
 20 21  1  0  0  0
 21 22  2  0  0  0
 22 23  1  0  0  0
 23 24  1  0  0  0
 23 25  2  0  0  0
  7  8  2  0  0  0
  8  9  1  0  0  0
  9 33  1  0  0  0
 33 34  1  0  0  0
 34 35  1  0  0  0
 35 36  1  0  0  0
 36 37  1  0  0  0
 37 38  1  0  0  0
 37 39  1  0  0  0
 39 40  1  0  0  0
  5 26  1  0  0  0
 26 27  2  0  0  0
 27 28  1  0  0  0
 28 29  1  0  0  0
 29 30  2  0  0  0
 29 31  1  0  0  0
 17 11  1  0  0  0
  9  1  1  0  0  0
 40 34  1  0  0  0
 31 26  1  0  0  0
  8  3  1  0  0  0
 25 19  1  0  0  0
 31 32  1  0  0  0
M  END
> <minimizedAffinity>
-4.56288

> <CNNscore>
0.2004980594

> <CNNaffinity>
6.3978605270

> <CNN_VS>
1.2827585936

> <CNNaffinity_variance>
0.0620241165

$$$$
[H]c1nc([H])c(-c2nc(-c3noc(=O)n3[H])c([H])c3nc(N4C([H])([H])[C@]([H])(C([H])([H])[H])N(C([H])([H])[H])C([H])([H])[C@@]4([H])C([H])([H])[H])n(C([H])([H])[C@]4([H])C([H])([H])C([H])([H])[C@@]([H])(C([H])([H])[H])C([H])([H])C4([H])[H])c23)c([H])c1Cl


 40 45  0  0  0  0  0  0  0  0999 V2000
   37.8864  -18.2901   36.2007 C   0  0  0  0  0  0  0  0  0  0  0  0
   37.8250  -16.9587   36.4977 N   0  0  0  0  0  0  0  0  0  0  0  0
   36.5352  -16.6362   36.4062 C   0  0  0  0  0  0  0  0  0  0  0  0
   35.8980  -15.4331   36.6172 C   0  0  0  0  0  0  0  0  0  0  0  0
   34.5424  -15.3755   36.4690 C   0  0  0  0  0  0  0  0  0  0  0  0
   33.8182  -16.4153   36.1318 N   0  0  0  0  0  0  0  0  0  0  0  0
   34.4182  -17.6520   35.9068 C   0  0  0  0  0  0  0  0  0  0  0  0
   35.7545  -17.7525   36.0484 C   0  0  0  0  0  0  0  0  0  0  0  0
   36.6636  -18.7831   35.9345 N   0  0  0  0  0  0  0  0  0  0  0  0
   42.2863  -19.1753   37.7711 C   0  0  0  0  0  0  0  0  0  0  0  0
   41.0601  -19.9985   37.3364 C   0  0  0  0  0  0  0  0  0  0  0  0
   39.8024  -19.2327   37.4125 C   0  0  0  0  0  0  0  0  0  0  0  0
   39.1761  -18.8951   36.1466 N   0  0  0  0  0  0  0  0  0  0  0  0
   39.9600  -19.1418   34.9804 C   0  0  0  0  0  0  0  0  0  0  0  0
   39.3578  -18.7650   33.6716 C   0  0  0  0  0  0  0  0  0  0  0  0
   40.4785  -20.5549   35.0593 C   0  0  0  0  0  0  0  0  0  0  0  0
   41.3990  -20.6430   36.1364 N   0  0  0  0  0  0  0  0  0  0  0  0
   42.7472  -20.4622   35.6681 C   0  0  0  0  0  0  0  0  0  0  0  0
   33.5198  -18.6977   35.5164 C   0  0  0  0  0  0  0  0  0  0  0  0
   33.3164  -18.9141   34.1472 C   0  0  0  0  0  0  0  0  0  0  0  0
   32.5951  -19.9689   33.7292 N   0  0  0  0  0  0  0  0  0  0  0  0
   32.0420  -20.8532   34.5754 C   0  0  0  0  0  0  0  0  0  0  0  0
   32.2179  -20.6771   35.9296 C   0  0  0  0  0  0  0  0  0  0  0  0
   31.5373  -21.7754   37.1119 Cl  0  0  0  0  0  0  0  0  0  0  0  0
   32.9586  -19.5935   36.3529 C   0  0  0  0  0  0  0  0  0  0  0  0
   33.8871  -14.0890   36.7014 C   0  0  0  0  0  0  0  0  0  0  0  0
   34.4786  -12.9694   37.1316 N   0  0  0  0  0  0  0  0  0  0  0  0
   33.5912  -12.0479   37.2155 O   0  0  0  0  0  0  0  0  0  0  0  0
   32.4133  -12.5153   36.8526 C   0  0  0  0  0  0  0  0  0  0  0  0
   31.3195  -11.8587   36.8212 O   0  0  0  0  0  0  0  0  0  0  0  0
   32.5894  -13.7985   36.5275 N   0  0  0  0  0  0  0  0  0  0  0  0
   31.8138  -14.4182   36.2013 H   0  0  0  0  0  0  0  0  0  0  0  0
   36.3080  -20.1409   35.6590 C   0  0  0  0  0  0  0  0  0  0  0  0
   36.1688  -21.0943   36.8127 C   0  0  0  0  0  0  0  0  0  0  0  0
   37.4715  -21.9395   36.7482 C   0  0  0  0  0  0  0  0  0  0  0  0
   37.5036  -22.9364   37.8559 C   0  0  0  0  0  0  0  0  0  0  0  0
   37.4582  -22.1878   39.1876 C   0  0  0  0  0  0  0  0  0  0  0  0
   37.6088  -23.1981   40.2778 C   0  0  0  0  0  0  0  0  0  0  0  0
   36.1322  -21.4708   39.2252 C   0  0  0  0  0  0  0  0  0  0  0  0
   36.1779  -20.3866   38.1494 C   0  0  0  0  0  0  0  0  0  0  0  0
 10 11  1  0  0  0
 11 12  1  0  0  0
 12 13  1  0  0  0
 13 14  1  0  0  0
 14 15  1  0  0  0
 14 16  1  0  0  0
 16 17  1  0  0  0
 17 18  1  0  0  0
 13  1  1  0  0  0
  1  2  2  0  0  0
  2  3  1  0  0  0
  3  4  2  0  0  0
  4  5  1  0  0  0
  5  6  2  0  0  0
  6  7  1  0  0  0
  7 19  1  0  0  0
 19 20  2  0  0  0
 20 21  1  0  0  0
 21 22  2  0  0  0
 22 23  1  0  0  0
 23 24  1  0  0  0
 23 25  2  0  0  0
  7  8  2  0  0  0
  8  9  1  0  0  0
  9 33  1  0  0  0
 33 34  1  0  0  0
 34 35  1  0  0  0
 35 36  1  0  0  0
 36 37  1  0  0  0
 37 38  1  0  0  0
 37 39  1  0  0  0
 39 40  1  0  0  0
  5 26  1  0  0  0
 26 27  2  0  0  0
 27 28  1  0  0  0
 28 29  1  0  0  0
 29 30  2  0  0  0
 29 31  1  0  0  0
 17 11  1  0  0  0
  9  1  1  0  0  0
 40 34  1  0  0  0
 31 26  1  0  0  0
  8  3  1  0  0  0
 25 19  1  0  0  0
 31 32  1  0  0  0
M  END
> <minimizedAffinity>
-7.11138

> <CNNscore>
0.1782513559

> <CNNaffinity>
6.7024507523

> <CNN_VS>
1.1947209835

> <CNNaffinity_variance>
0.2034101188

$$$$
[H]c1nc(N2C([H])([H])C([H])([H])c3nc(N4C([H])([H])C([H])([H])OC([H])([H])C4([H])[H])nc(N([H])c4nc([H])c(C(F)(F)F)c([H])c4[H])c3C([H])([H])C2([H])[H])c(C(F)(F)F)c([H])c1[H]


 39 43  0  0  0  0  0  0  0  0999 V2000
   37.0996  -17.8993   35.3017 C   0  0  0  0  0  0  0  0  0  0  0  0
   36.3771  -16.8075   35.6120 N   0  0  0  0  0  0  0  0  0  0  0  0
   35.6882  -16.6744   36.7441 C   0  0  0  0  0  0  0  0  0  0  0  0
   35.6873  -17.6631   37.6576 N   0  0  0  0  0  0  0  0  0  0  0  0
   36.3897  -18.8207   37.4531 C   0  0  0  0  0  0  0  0  0  0  0  0
   36.1883  -19.7090   38.5950 C   0  0  0  0  0  0  0  0  0  0  0  0
   36.4381  -21.1979   38.2632 C   0  0  0  0  0  0  0  0  0  0  0  0
   37.7933  -21.4417   37.9522 N   0  0  0  0  0  0  0  0  0  0  0  0
   38.6648  -20.5691   37.1919 C   0  0  0  0  0  0  0  0  0  0  0  0
   37.9946  -20.0193   35.9232 C   0  0  0  0  0  0  0  0  0  0  0  0
   37.0785  -18.9001   36.2779 C   0  0  0  0  0  0  0  0  0  0  0  0
   38.4947  -22.5983   38.4052 C   0  0  0  0  0  0  0  0  0  0  0  0
   38.5438  -23.6808   37.5489 N   0  0  0  0  0  0  0  0  0  0  0  0
   39.1072  -24.8393   37.8565 C   0  0  0  0  0  0  0  0  0  0  0  0
   39.6754  -24.9692   39.1024 C   0  0  0  0  0  0  0  0  0  0  0  0
   39.6448  -23.9082   39.9777 C   0  0  0  0  0  0  0  0  0  0  0  0
   39.0492  -22.6836   39.6488 C   0  0  0  0  0  0  0  0  0  0  0  0
   39.0703  -21.5718   40.6468 C   0  0  0  0  0  0  0  0  0  0  0  0
   37.8517  -21.2943   41.1842 F   0  0  0  0  0  0  0  0  0  0  0  0
   39.8110  -22.0653   41.7729 F   0  0  0  0  0  0  0  0  0  0  0  0
   39.8174  -20.4893   40.2476 F   0  0  0  0  0  0  0  0  0  0  0  0
   34.9759  -15.4832   37.0288 N   0  0  0  0  0  0  0  0  0  0  0  0
   35.5993  -14.3979   37.7617 C   0  0  0  0  0  0  0  0  0  0  0  0
   34.5108  -13.4033   38.1018 C   0  0  0  0  0  0  0  0  0  0  0  0
   33.8503  -12.9023   36.9980 O   0  0  0  0  0  0  0  0  0  0  0  0
   33.5990  -13.8527   36.0180 C   0  0  0  0  0  0  0  0  0  0  0  0
   33.6135  -15.2572   36.6042 C   0  0  0  0  0  0  0  0  0  0  0  0
   37.7339  -18.1415   34.0916 N   0  0  0  0  0  0  0  0  0  0  0  0
   38.3172  -19.0381   34.0261 H   0  0  0  0  0  0  0  0  0  0  0  0
   37.4396  -16.0427   30.4558 C   0  0  0  0  0  0  0  0  0  0  0  0
   38.6784  -16.4170   30.9129 C   0  0  0  0  0  0  0  0  0  0  0  0
   38.7943  -17.0972   32.1149 C   0  0  0  0  0  0  0  0  0  0  0  0
   37.6952  -17.4196   32.8790 C   0  0  0  0  0  0  0  0  0  0  0  0
   36.5066  -17.0357   32.3936 N   0  0  0  0  0  0  0  0  0  0  0  0
   36.3700  -16.3884   31.2591 C   0  0  0  0  0  0  0  0  0  0  0  0
   38.3365  -15.2834   28.3793 F   0  0  0  0  0  0  0  0  0  0  0  0
   37.2155  -15.3057   29.1773 C   0  0  0  0  0  0  0  0  0  0  0  0
   36.9213  -13.9929   29.5074 F   0  0  0  0  0  0  0  0  0  0  0  0
   36.1035  -15.7796   28.4927 F   0  0  0  0  0  0  0  0  0  0  0  0
 36 37  1  0  0  0
 37 38  1  0  0  0
 37 39  1  0  0  0
 37 30  1  0  0  0
 30 31  2  0  0  0
 31 32  1  0  0  0
 32 33  2  0  0  0
 33 28  1  0  0  0
 28  1  1  0  0  0
  1  2  2  0  0  0
  2  3  1  0  0  0
  3  4  2  0  0  0
  4  5  1  0  0  0
  5  6  1  0  0  0
  6  7  1  0  0  0
  7  8  1  0  0  0
  8  9  1  0  0  0
  9 10  1  0  0  0
 10 11  1  0  0  0
  8 12  1  0  0  0
 12 13  2  0  0  0
 13 14  1  0  0  0
 14 15  2  0  0  0
 15 16  1  0  0  0
 16 17  2  0  0  0
 17 18  1  0  0  0
 18 19  1  0  0  0
 18 20  1  0  0  0
 18 21  1  0  0  0
  3 22  1  0  0  0
 22 23  1  0  0  0
 23 24  1  0  0  0
 24 25  1  0  0  0
 25 26  1  0  0  0
 26 27  1  0  0  0
 33 34  1  0  0  0
 34 35  2  0  0  0
 35 30  1  0  0  0
 11  1  1  0  0  0
 17 12  1  0  0  0
 27 22  1  0  0  0
 11  5  2  0  0  0
 28 29  1  0  0  0
M  END
> <minimizedAffinity>
2.67188

> <CNNscore>
0.4159950614

> <CNNaffinity>
6.5985617638

> <CNN_VS>
2.7449691296

> <CNNaffinity_variance>
2.6614296436

$$$$
[H]c1nc(N2C([H])([H])C([H])([H])c3nc(N4C([H])([H])C([H])([H])OC([H])([H])C4([H])[H])nc(N([H])c4nc([H])c(C(F)(F)F)c([H])c4[H])c3C([H])([H])C2([H])[H])c(C(F)(F)F)c([H])c1[H]


 39 43  0  0  0  0  0  0  0  0999 V2000
   37.2730  -17.9524   34.9322 C   0  0  0  0  0  0  0  0  0  0  0  0
   36.8486  -16.7981   35.4779 N   0  0  0  0  0  0  0  0  0  0  0  0
   36.3804  -16.6963   36.7207 C   0  0  0  0  0  0  0  0  0  0  0  0
   36.3109  -17.7843   37.5103 N   0  0  0  0  0  0  0  0  0  0  0  0
   36.7180  -19.0135   37.0647 C   0  0  0  0  0  0  0  0  0  0  0  0
   36.5099  -19.9977   38.1236 C   0  0  0  0  0  0  0  0  0  0  0  0
   36.3916  -21.4464   37.5974 C   0  0  0  0  0  0  0  0  0  0  0  0
   37.6039  -21.8949   37.0302 N   0  0  0  0  0  0  0  0  0  0  0  0
   38.5138  -21.1046   36.2260 C   0  0  0  0  0  0  0  0  0  0  0  0
   37.7900  -20.2681   35.1595 C   0  0  0  0  0  0  0  0  0  0  0  0
   37.1908  -19.0570   35.7854 C   0  0  0  0  0  0  0  0  0  0  0  0
   38.1091  -23.2142   37.2285 C   0  0  0  0  0  0  0  0  0  0  0  0
   37.6123  -24.2086   36.4090 N   0  0  0  0  0  0  0  0  0  0  0  0
   37.9438  -25.4865   36.5161 C   0  0  0  0  0  0  0  0  0  0  0  0
   38.8347  -25.8409   37.5023 C   0  0  0  0  0  0  0  0  0  0  0  0
   39.3493  -24.8730   38.3337 C   0  0  0  0  0  0  0  0  0  0  0  0
   38.9976  -23.5219   38.2169 C   0  0  0  0  0  0  0  0  0  0  0  0
   39.6117  -22.5263   39.1466 C   0  0  0  0  0  0  0  0  0  0  0  0
   38.7019  -21.7745   39.8235 F   0  0  0  0  0  0  0  0  0  0  0  0
   40.2337  -23.2908   40.1900 F   0  0  0  0  0  0  0  0  0  0  0  0
   40.6733  -21.8459   38.5997 F   0  0  0  0  0  0  0  0  0  0  0  0
   35.9826  -15.4437   37.2500 N   0  0  0  0  0  0  0  0  0  0  0  0
   36.9122  -14.3324   37.3161 C   0  0  0  0  0  0  0  0  0  0  0  0
   36.2561  -13.2478   38.1426 C   0  0  0  0  0  0  0  0  0  0  0  0
   35.0473  -12.8158   37.6347 O   0  0  0  0  0  0  0  0  0  0  0  0
   34.2549  -13.8384   37.1316 C   0  0  0  0  0  0  0  0  0  0  0  0
   34.6476  -15.1794   37.7349 C   0  0  0  0  0  0  0  0  0  0  0  0
   37.6539  -18.1391   33.6110 N   0  0  0  0  0  0  0  0  0  0  0  0
   38.0930  -19.0857   33.3671 H   0  0  0  0  0  0  0  0  0  0  0  0
   37.3141  -15.7450   30.1668 C   0  0  0  0  0  0  0  0  0  0  0  0
   37.1386  -15.1697   31.4004 C   0  0  0  0  0  0  0  0  0  0  0  0
   37.2340  -15.9464   32.5443 C   0  0  0  0  0  0  0  0  0  0  0  0
   37.5056  -17.2951   32.4892 C   0  0  0  0  0  0  0  0  0  0  0  0
   37.6706  -17.8136   31.2645 N   0  0  0  0  0  0  0  0  0  0  0  0
   37.5831  -17.1001   30.1654 C   0  0  0  0  0  0  0  0  0  0  0  0
   38.3937  -15.0557   28.1537 F   0  0  0  0  0  0  0  0  0  0  0  0
   37.2271  -14.9919   28.8809 C   0  0  0  0  0  0  0  0  0  0  0  0
   37.0150  -13.6606   29.1994 F   0  0  0  0  0  0  0  0  0  0  0  0
   36.1263  -15.3780   28.1265 F   0  0  0  0  0  0  0  0  0  0  0  0
 36 37  1  0  0  0
 37 38  1  0  0  0
 37 39  1  0  0  0
 37 30  1  0  0  0
 30 31  2  0  0  0
 31 32  1  0  0  0
 32 33  2  0  0  0
 33 28  1  0  0  0
 28  1  1  0  0  0
  1  2  2  0  0  0
  2  3  1  0  0  0
  3  4  2  0  0  0
  4  5  1  0  0  0
  5  6  1  0  0  0
  6  7  1  0  0  0
  7  8  1  0  0  0
  8  9  1  0  0  0
  9 10  1  0  0  0
 10 11  1  0  0  0
  8 12  1  0  0  0
 12 13  2  0  0  0
 13 14  1  0  0  0
 14 15  2  0  0  0
 15 16  1  0  0  0
 16 17  2  0  0  0
 17 18  1  0  0  0
 18 19  1  0  0  0
 18 20  1  0  0  0
 18 21  1  0  0  0
  3 22  1  0  0  0
 22 23  1  0  0  0
 23 24  1  0  0  0
 24 25  1  0  0  0
 25 26  1  0  0  0
 26 27  1  0  0  0
 33 34  1  0  0  0
 34 35  2  0  0  0
 35 30  1  0  0  0
 11  1  1  0  0  0
 17 12  1  0  0  0
 27 22  1  0  0  0
 11  5  2  0  0  0
 28 29  1  0  0  0
M  END
> <minimizedAffinity>
9.57263

> <CNNscore>
0.3791234195

> <CNNaffinity>
6.4883909225

> <CNN_VS>
2.4599008560

> <CNNaffinity_variance>
1.5608114004

$$$$
[H]c1nc(N2C([H])([H])C([H])([H])c3nc(N4C([H])([H])C([H])([H])OC([H])([H])C4([H])[H])nc(N([H])c4nc([H])c(C(F)(F)F)c([H])c4[H])c3C([H])([H])C2([H])[H])c(C(F)(F)F)c([H])c1[H]


 39 43  0  0  0  0  0  0  0  0999 V2000
   37.2069  -18.2733   34.5229 C   0  0  0  0  0  0  0  0  0  0  0  0
   36.7036  -17.2120   35.1792 N   0  0  0  0  0  0  0  0  0  0  0  0
   36.4128  -17.2168   36.4790 C   0  0  0  0  0  0  0  0  0  0  0  0
   36.6188  -18.3243   37.2158 N   0  0  0  0  0  0  0  0  0  0  0  0
   37.1308  -19.4650   36.6572 C   0  0  0  0  0  0  0  0  0  0  0  0
   37.2255  -20.4985   37.6849 C   0  0  0  0  0  0  0  0  0  0  0  0
   37.2434  -21.9332   37.1098 C   0  0  0  0  0  0  0  0  0  0  0  0
   38.4118  -22.1774   36.3562 N   0  0  0  0  0  0  0  0  0  0  0  0
   39.0692  -21.2366   35.4719 C   0  0  0  0  0  0  0  0  0  0  0  0
   38.0830  -20.4897   34.5605 C   0  0  0  0  0  0  0  0  0  0  0  0
   37.4122  -19.4009   35.3236 C   0  0  0  0  0  0  0  0  0  0  0  0
   39.1271  -23.4101   36.4160 C   0  0  0  0  0  0  0  0  0  0  0  0
   38.3797  -24.5687   36.4964 N   0  0  0  0  0  0  0  0  0  0  0  0
   38.9054  -25.7784   36.6172 C   0  0  0  0  0  0  0  0  0  0  0  0
   40.2760  -25.8837   36.6656 C   0  0  0  0  0  0  0  0  0  0  0  0
   41.0486  -24.7482   36.5857 C   0  0  0  0  0  0  0  0  0  0  0  0
   40.4894  -23.4701   36.4566 C   0  0  0  0  0  0  0  0  0  0  0  0
   41.3946  -22.2853   36.3589 C   0  0  0  0  0  0  0  0  0  0  0  0
   41.1687  -21.3427   37.3137 F   0  0  0  0  0  0  0  0  0  0  0  0
   42.7079  -22.7630   36.6863 F   0  0  0  0  0  0  0  0  0  0  0  0
   41.5555  -21.8213   35.0752 F   0  0  0  0  0  0  0  0  0  0  0  0
   35.9189  -16.0539   37.1203 N   0  0  0  0  0  0  0  0  0  0  0  0
   36.8079  -15.1683   37.8477 C   0  0  0  0  0  0  0  0  0  0  0  0
   35.9410  -14.1831   38.6012 C   0  0  0  0  0  0  0  0  0  0  0  0
   35.1058  -13.4424   37.7890 O   0  0  0  0  0  0  0  0  0  0  0  0
   34.5356  -14.1749   36.7571 C   0  0  0  0  0  0  0  0  0  0  0  0
   34.5290  -15.6616   37.0830 C   0  0  0  0  0  0  0  0  0  0  0  0
   37.4132  -18.3634   33.1536 N   0  0  0  0  0  0  0  0  0  0  0  0
   37.5211  -19.3495   32.7482 H   0  0  0  0  0  0  0  0  0  0  0  0
   37.4057  -15.4628   30.1046 C   0  0  0  0  0  0  0  0  0  0  0  0
   38.4362  -15.4769   31.0110 C   0  0  0  0  0  0  0  0  0  0  0  0
   38.4473  -16.4170   32.0292 C   0  0  0  0  0  0  0  0  0  0  0  0
   37.4486  -17.3549   32.1665 C   0  0  0  0  0  0  0  0  0  0  0  0
   36.4639  -17.3046   31.2589 N   0  0  0  0  0  0  0  0  0  0  0  0
   36.4288  -16.4228   30.2863 C   0  0  0  0  0  0  0  0  0  0  0  0
   37.6671  -13.2141   29.3510 F   0  0  0  0  0  0  0  0  0  0  0  0
   37.3055  -14.4885   28.9782 C   0  0  0  0  0  0  0  0  0  0  0  0
   35.9753  -14.4414   28.5944 F   0  0  0  0  0  0  0  0  0  0  0  0
   38.0054  -14.9169   27.8572 F   0  0  0  0  0  0  0  0  0  0  0  0
 36 37  1  0  0  0
 37 38  1  0  0  0
 37 39  1  0  0  0
 37 30  1  0  0  0
 30 31  2  0  0  0
 31 32  1  0  0  0
 32 33  2  0  0  0
 33 28  1  0  0  0
 28  1  1  0  0  0
  1  2  2  0  0  0
  2  3  1  0  0  0
  3  4  2  0  0  0
  4  5  1  0  0  0
  5  6  1  0  0  0
  6  7  1  0  0  0
  7  8  1  0  0  0
  8  9  1  0  0  0
  9 10  1  0  0  0
 10 11  1  0  0  0
  8 12  1  0  0  0
 12 13  2  0  0  0
 13 14  1  0  0  0
 14 15  2  0  0  0
 15 16  1  0  0  0
 16 17  2  0  0  0
 17 18  1  0  0  0
 18 19  1  0  0  0
 18 20  1  0  0  0
 18 21  1  0  0  0
  3 22  1  0  0  0
 22 23  1  0  0  0
 23 24  1  0  0  0
 24 25  1  0  0  0
 25 26  1  0  0  0
 26 27  1  0  0  0
 33 34  1  0  0  0
 34 35  2  0  0  0
 35 30  1  0  0  0
 11  1  1  0  0  0
 17 12  1  0  0  0
 27 22  1  0  0  0
 11  5  2  0  0  0
 28 29  1  0  0  0
M  END
> <minimizedAffinity>
9.46248

> <CNNscore>
0.3604668677

> <CNNaffinity>
5.9973812103

> <CNN_VS>
2.1618571281

> <CNNaffinity_variance>
0.5480071306

$$$$
[H]c1nc(N2C([H])([H])C([H])([H])c3nc(N4C([H])([H])C([H])([H])OC([H])([H])C4([H])[H])nc(N([H])c4nc([H])c(C(F)(F)F)c([H])c4[H])c3C([H])([H])C2([H])[H])c(C(F)(F)F)c([H])c1[H]


 39 43  0  0  0  0  0  0  0  0999 V2000
   37.6245  -20.5656   34.2211 C   0  0  0  0  0  0  0  0  0  0  0  0
   36.3066  -20.3038   34.1517 N   0  0  0  0  0  0  0  0  0  0  0  0
   35.7309  -19.2504   34.7287 C   0  0  0  0  0  0  0  0  0  0  0  0
   36.4719  -18.3723   35.4300 N   0  0  0  0  0  0  0  0  0  0  0  0
   37.8250  -18.5330   35.5664 C   0  0  0  0  0  0  0  0  0  0  0  0
   38.3541  -17.4469   36.3873 C   0  0  0  0  0  0  0  0  0  0  0  0
   39.6980  -17.7935   37.0679 C   0  0  0  0  0  0  0  0  0  0  0  0
   40.7325  -17.9615   36.1223 N   0  0  0  0  0  0  0  0  0  0  0  0
   40.6086  -18.5957   34.8255 C   0  0  0  0  0  0  0  0  0  0  0  0
   39.8198  -19.9132   34.8818 C   0  0  0  0  0  0  0  0  0  0  0  0
   38.3600  -19.6277   34.9521 C   0  0  0  0  0  0  0  0  0  0  0  0
   42.0555  -17.4691   36.3275 C   0  0  0  0  0  0  0  0  0  0  0  0
   42.3998  -16.2993   35.6791 N   0  0  0  0  0  0  0  0  0  0  0  0
   43.6070  -15.7567   35.7285 C   0  0  0  0  0  0  0  0  0  0  0  0
   44.5722  -16.3982   36.4694 C   0  0  0  0  0  0  0  0  0  0  0  0
   44.2600  -17.5645   37.1289 C   0  0  0  0  0  0  0  0  0  0  0  0
   42.9816  -18.1352   37.0757 C   0  0  0  0  0  0  0  0  0  0  0  0
   42.7142  -19.3953   37.8327 C   0  0  0  0  0  0  0  0  0  0  0  0
   42.6940  -20.5097   37.0525 F   0  0  0  0  0  0  0  0  0  0  0  0
   43.8643  -19.6087   38.6644 F   0  0  0  0  0  0  0  0  0  0  0  0
   41.6977  -19.2796   38.7505 F   0  0  0  0  0  0  0  0  0  0  0  0
   34.3417  -19.0101   34.5879 N   0  0  0  0  0  0  0  0  0  0  0  0
   33.4838  -19.9651   33.9130 C   0  0  0  0  0  0  0  0  0  0  0  0
   32.1372  -19.3017   33.7228 C   0  0  0  0  0  0  0  0  0  0  0  0
   31.5459  -18.8949   34.9021 O   0  0  0  0  0  0  0  0  0  0  0  0
   32.4362  -18.3416   35.8120 C   0  0  0  0  0  0  0  0  0  0  0  0
   33.6871  -17.8327   35.1100 C   0  0  0  0  0  0  0  0  0  0  0  0
   38.2563  -21.7058   33.7455 N   0  0  0  0  0  0  0  0  0  0  0  0
   37.9604  -22.0492   32.7745 H   0  0  0  0  0  0  0  0  0  0  0  0
   41.3024  -24.1510   35.3116 C   0  0  0  0  0  0  0  0  0  0  0  0
   40.7921  -23.1400   36.0870 C   0  0  0  0  0  0  0  0  0  0  0  0
   39.7979  -22.3171   35.5818 C   0  0  0  0  0  0  0  0  0  0  0  0
   39.2922  -22.4800   34.3116 C   0  0  0  0  0  0  0  0  0  0  0  0
   39.8188  -23.4798   33.5912 N   0  0  0  0  0  0  0  0  0  0  0  0
   40.7628  -24.2718   34.0454 C   0  0  0  0  0  0  0  0  0  0  0  0
   41.9764  -25.8670   36.8261 F   0  0  0  0  0  0  0  0  0  0  0  0
   42.3748  -25.0843   35.7667 C   0  0  0  0  0  0  0  0  0  0  0  0
   43.4342  -24.3077   36.2063 F   0  0  0  0  0  0  0  0  0  0  0  0
   42.8770  -25.8479   34.7205 F   0  0  0  0  0  0  0  0  0  0  0  0
 36 37  1  0  0  0
 37 38  1  0  0  0
 37 39  1  0  0  0
 37 30  1  0  0  0
 30 31  2  0  0  0
 31 32  1  0  0  0
 32 33  2  0  0  0
 33 28  1  0  0  0
 28  1  1  0  0  0
  1  2  2  0  0  0
  2  3  1  0  0  0
  3  4  2  0  0  0
  4  5  1  0  0  0
  5  6  1  0  0  0
  6  7  1  0  0  0
  7  8  1  0  0  0
  8  9  1  0  0  0
  9 10  1  0  0  0
 10 11  1  0  0  0
  8 12  1  0  0  0
 12 13  2  0  0  0
 13 14  1  0  0  0
 14 15  2  0  0  0
 15 16  1  0  0  0
 16 17  2  0  0  0
 17 18  1  0  0  0
 18 19  1  0  0  0
 18 20  1  0  0  0
 18 21  1  0  0  0
  3 22  1  0  0  0
 22 23  1  0  0  0
 23 24  1  0  0  0
 24 25  1  0  0  0
 25 26  1  0  0  0
 26 27  1  0  0  0
 33 34  1  0  0  0
 34 35  2  0  0  0
 35 30  1  0  0  0
 11  1  1  0  0  0
 17 12  1  0  0  0
 27 22  1  0  0  0
 11  5  2  0  0  0
 28 29  1  0  0  0
M  END
> <minimizedAffinity>
-0.51947

> <CNNscore>
0.3494020700

> <CNNaffinity>
6.3091020584

> <CNN_VS>
2.2044134140

> <CNNaffinity_variance>
0.7814437151

$$$$
[H]c1nc(N2C([H])([H])C([H])([H])c3nc(N4C([H])([H])C([H])([H])OC([H])([H])C4([H])[H])nc(N([H])c4nc([H])c(C(F)(F)F)c([H])c4[H])c3C([H])([H])C2([H])[H])c(C(F)(F)F)c([H])c1[H]


 39 43  0  0  0  0  0  0  0  0999 V2000
   37.6567  -18.9066   36.8333 C   0  0  0  0  0  0  0  0  0  0  0  0
   38.8877  -18.7316   36.3192 N   0  0  0  0  0  0  0  0  0  0  0  0
   39.9627  -19.4014   36.7311 C   0  0  0  0  0  0  0  0  0  0  0  0
   39.8571  -20.3146   37.7144 N   0  0  0  0  0  0  0  0  0  0  0  0
   38.6537  -20.5809   38.3112 C   0  0  0  0  0  0  0  0  0  0  0  0
   38.8481  -21.5931   39.3461 C   0  0  0  0  0  0  0  0  0  0  0  0
   37.7485  -21.5761   40.4325 C   0  0  0  0  0  0  0  0  0  0  0  0
   36.4920  -21.9478   39.9074 N   0  0  0  0  0  0  0  0  0  0  0  0
   35.9678  -21.5805   38.6076 C   0  0  0  0  0  0  0  0  0  0  0  0
   36.1808  -20.0945   38.2797 C   0  0  0  0  0  0  0  0  0  0  0  0
   37.5874  -19.8672   37.8469 C   0  0  0  0  0  0  0  0  0  0  0  0
   35.5812  -22.7939   40.6069 C   0  0  0  0  0  0  0  0  0  0  0  0
   35.5844  -24.1343   40.2742 N   0  0  0  0  0  0  0  0  0  0  0  0
   34.7555  -25.0256   40.7963 C   0  0  0  0  0  0  0  0  0  0  0  0
   33.8387  -24.5877   41.7236 C   0  0  0  0  0  0  0  0  0  0  0  0
   33.8115  -23.2586   42.0778 C   0  0  0  0  0  0  0  0  0  0  0  0
   34.6906  -22.3185   41.5246 C   0  0  0  0  0  0  0  0  0  0  0  0
   34.6112  -20.8951   41.9721 C   0  0  0  0  0  0  0  0  0  0  0  0
   35.8136  -20.3616   42.3192 F   0  0  0  0  0  0  0  0  0  0  0  0
   34.2481  -20.1349   40.8100 F   0  0  0  0  0  0  0  0  0  0  0  0
   33.5673  -20.6468   42.8311 F   0  0  0  0  0  0  0  0  0  0  0  0
   41.2263  -19.1977   36.1234 N   0  0  0  0  0  0  0  0  0  0  0  0
   41.7763  -20.1720   35.2004 C   0  0  0  0  0  0  0  0  0  0  0  0
   43.2124  -19.7764   34.9342 C   0  0  0  0  0  0  0  0  0  0  0  0
   43.3519  -18.5067   34.4107 O   0  0  0  0  0  0  0  0  0  0  0  0
   42.4997  -17.5705   34.9802 C   0  0  0  0  0  0  0  0  0  0  0  0
   42.0346  -18.0232   36.3569 C   0  0  0  0  0  0  0  0  0  0  0  0
   36.5308  -18.1547   36.5293 N   0  0  0  0  0  0  0  0  0  0  0  0
   36.5646  -17.1146   36.7848 H   0  0  0  0  0  0  0  0  0  0  0  0
   32.8835  -19.2364   34.7300 C   0  0  0  0  0  0  0  0  0  0  0  0
   34.0606  -19.5780   34.1123 C   0  0  0  0  0  0  0  0  0  0  0  0
   35.2704  -19.2180   34.6846 C   0  0  0  0  0  0  0  0  0  0  0  0
   35.3374  -18.5217   35.8705 C   0  0  0  0  0  0  0  0  0  0  0  0
   34.1642  -18.2105   36.4384 N   0  0  0  0  0  0  0  0  0  0  0  0
   33.0047  -18.5377   35.9157 C   0  0  0  0  0  0  0  0  0  0  0  0
   31.1930  -20.8905   34.4149 F   0  0  0  0  0  0  0  0  0  0  0  0
   31.5344  -19.5765   34.1893 C   0  0  0  0  0  0  0  0  0  0  0  0
   31.5857  -19.3962   32.8168 F   0  0  0  0  0  0  0  0  0  0  0  0
   30.5561  -18.7028   34.6471 F   0  0  0  0  0  0  0  0  0  0  0  0
 36 37  1  0  0  0
 37 38  1  0  0  0
 37 39  1  0  0  0
 37 30  1  0  0  0
 30 31  2  0  0  0
 31 32  1  0  0  0
 32 33  2  0  0  0
 33 28  1  0  0  0
 28  1  1  0  0  0
  1  2  2  0  0  0
  2  3  1  0  0  0
  3  4  2  0  0  0
  4  5  1  0  0  0
  5  6  1  0  0  0
  6  7  1  0  0  0
  7  8  1  0  0  0
  8  9  1  0  0  0
  9 10  1  0  0  0
 10 11  1  0  0  0
  8 12  1  0  0  0
 12 13  2  0  0  0
 13 14  1  0  0  0
 14 15  2  0  0  0
 15 16  1  0  0  0
 16 17  2  0  0  0
 17 18  1  0  0  0
 18 19  1  0  0  0
 18 20  1  0  0  0
 18 21  1  0  0  0
  3 22  1  0  0  0
 22 23  1  0  0  0
 23 24  1  0  0  0
 24 25  1  0  0  0
 25 26  1  0  0  0
 26 27  1  0  0  0
 33 34  1  0  0  0
 34 35  2  0  0  0
 35 30  1  0  0  0
 11  1  1  0  0  0
 17 12  1  0  0  0
 27 22  1  0  0  0
 11  5  2  0  0  0
 28 29  1  0  0  0
M  END
> <minimizedAffinity>
-5.27126

> <CNNscore>
0.3487600982

> <CNNaffinity>
6.3120627403

> <CNN_VS>
2.2013955116

> <CNNaffinity_variance>
0.4481940269

$$$$
[H]c1nc(N2C([H])([H])C([H])([H])c3nc(N4C([H])([H])C([H])([H])OC([H])([H])C4([H])[H])nc(N([H])c4nc([H])c(C(F)(F)F)c([H])c4[H])c3C([H])([H])C2([H])[H])c(C(F)(F)F)c([H])c1[H]


 39 43  0  0  0  0  0  0  0  0999 V2000
   38.0111  -18.3791   36.5084 C   0  0  0  0  0  0  0  0  0  0  0  0
   37.5615  -17.1116   36.4678 N   0  0  0  0  0  0  0  0  0  0  0  0
   36.3873  -16.7276   36.9657 C   0  0  0  0  0  0  0  0  0  0  0  0
   35.5731  -17.6252   37.5518 N   0  0  0  0  0  0  0  0  0  0  0  0
   35.9260  -18.9443   37.6548 C   0  0  0  0  0  0  0  0  0  0  0  0
   34.8478  -19.6764   38.3143 C   0  0  0  0  0  0  0  0  0  0  0  0
   34.8552  -21.1901   38.0008 C   0  0  0  0  0  0  0  0  0  0  0  0
   35.9960  -21.8269   38.5351 N   0  0  0  0  0  0  0  0  0  0  0  0
   37.3375  -21.2809   38.5762 C   0  0  0  0  0  0  0  0  0  0  0  0
   37.7548  -20.6305   37.2481 C   0  0  0  0  0  0  0  0  0  0  0  0
   37.1403  -19.2791   37.1301 C   0  0  0  0  0  0  0  0  0  0  0  0
   35.9458  -23.1100   39.1563 C   0  0  0  0  0  0  0  0  0  0  0  0
   35.9793  -23.1433   40.5366 N   0  0  0  0  0  0  0  0  0  0  0  0
   35.9989  -24.2609   41.2470 C   0  0  0  0  0  0  0  0  0  0  0  0
   35.9855  -25.4569   40.5676 C   0  0  0  0  0  0  0  0  0  0  0  0
   35.9500  -25.4573   39.1923 C   0  0  0  0  0  0  0  0  0  0  0  0
   35.9279  -24.2733   38.4438 C   0  0  0  0  0  0  0  0  0  0  0  0
   35.8727  -24.3547   36.9529 C   0  0  0  0  0  0  0  0  0  0  0  0
   36.9199  -23.7478   36.3315 F   0  0  0  0  0  0  0  0  0  0  0  0
   36.0656  -25.7387   36.6250 F   0  0  0  0  0  0  0  0  0  0  0  0
   34.6268  -24.0945   36.4343 F   0  0  0  0  0  0  0  0  0  0  0  0
   35.9866  -15.3692   36.9245 N   0  0  0  0  0  0  0  0  0  0  0  0
   36.9616  -14.3082   36.7599 C   0  0  0  0  0  0  0  0  0  0  0  0
   36.2438  -12.9983   37.0021 C   0  0  0  0  0  0  0  0  0  0  0  0
   35.1744  -12.7851   36.1555 O   0  0  0  0  0  0  0  0  0  0  0  0
   34.4168  -13.9229   35.9145 C   0  0  0  0  0  0  0  0  0  0  0  0
   34.6076  -14.9495   37.0218 C   0  0  0  0  0  0  0  0  0  0  0  0
   39.1642  -18.8559   35.9014 N   0  0  0  0  0  0  0  0  0  0  0  0
   39.3384  -18.5453   34.8907 H   0  0  0  0  0  0  0  0  0  0  0  0
   42.3368  -21.0872   37.5342 C   0  0  0  0  0  0  0  0  0  0  0  0
   41.7106  -21.5457   36.4022 C   0  0  0  0  0  0  0  0  0  0  0  0
   40.6554  -20.8299   35.8590 C   0  0  0  0  0  0  0  0  0  0  0  0
   40.2060  -19.6553   36.4195 C   0  0  0  0  0  0  0  0  0  0  0  0
   40.8474  -19.2452   37.5224 N   0  0  0  0  0  0  0  0  0  0  0  0
   41.8480  -19.9059   38.0581 C   0  0  0  0  0  0  0  0  0  0  0  0
   44.6214  -21.7672   37.4281 F   0  0  0  0  0  0  0  0  0  0  0  0
   43.4775  -21.7895   38.1928 C   0  0  0  0  0  0  0  0  0  0  0  0
   43.1101  -23.1168   38.3421 F   0  0  0  0  0  0  0  0  0  0  0  0
   43.7063  -21.3158   39.4785 F   0  0  0  0  0  0  0  0  0  0  0  0
 36 37  1  0  0  0
 37 38  1  0  0  0
 37 39  1  0  0  0
 37 30  1  0  0  0
 30 31  2  0  0  0
 31 32  1  0  0  0
 32 33  2  0  0  0
 33 28  1  0  0  0
 28  1  1  0  0  0
  1  2  2  0  0  0
  2  3  1  0  0  0
  3  4  2  0  0  0
  4  5  1  0  0  0
  5  6  1  0  0  0
  6  7  1  0  0  0
  7  8  1  0  0  0
  8  9  1  0  0  0
  9 10  1  0  0  0
 10 11  1  0  0  0
  8 12  1  0  0  0
 12 13  2  0  0  0
 13 14  1  0  0  0
 14 15  2  0  0  0
 15 16  1  0  0  0
 16 17  2  0  0  0
 17 18  1  0  0  0
 18 19  1  0  0  0
 18 20  1  0  0  0
 18 21  1  0  0  0
  3 22  1  0  0  0
 22 23  1  0  0  0
 23 24  1  0  0  0
 24 25  1  0  0  0
 25 26  1  0  0  0
 26 27  1  0  0  0
 33 34  1  0  0  0
 34 35  2  0  0  0
 35 30  1  0  0  0
 11  1  1  0  0  0
 17 12  1  0  0  0
 27 22  1  0  0  0
 11  5  2  0  0  0
 28 29  1  0  0  0
M  END
> <minimizedAffinity>
-4.49674

> <CNNscore>
0.3019142747

> <CNNaffinity>
6.4691238403

> <CNN_VS>
1.9531208277

> <CNNaffinity_variance>
0.6702238321

$$$$
[H]c1nc(N2C([H])([H])C([H])([H])c3nc(N4C([H])([H])C([H])([H])OC([H])([H])C4([H])[H])nc(N([H])c4nc([H])c(C(F)(F)F)c([H])c4[H])c3C([H])([H])C2([H])[H])c(C(F)(F)F)c([H])c1[H]


 39 43  0  0  0  0  0  0  0  0999 V2000
   34.0789  -18.7685   36.7359 C   0  0  0  0  0  0  0  0  0  0  0  0
   34.2022  -17.4290   36.7048 N   0  0  0  0  0  0  0  0  0  0  0  0
   35.3713  -16.7931   36.7572 C   0  0  0  0  0  0  0  0  0  0  0  0
   36.5192  -17.4905   36.8461 N   0  0  0  0  0  0  0  0  0  0  0  0
   36.5185  -18.8595   36.8817 C   0  0  0  0  0  0  0  0  0  0  0  0
   37.8949  -19.3344   36.9976 C   0  0  0  0  0  0  0  0  0  0  0  0
   38.0032  -20.7558   37.5954 C   0  0  0  0  0  0  0  0  0  0  0  0
   37.4418  -21.7257   36.7371 N   0  0  0  0  0  0  0  0  0  0  0  0
   36.2416  -21.5686   35.9409 C   0  0  0  0  0  0  0  0  0  0  0  0
   35.0871  -20.9283   36.7272 C   0  0  0  0  0  0  0  0  0  0  0  0
   35.2929  -19.4565   36.8220 C   0  0  0  0  0  0  0  0  0  0  0  0
   38.0396  -23.0020   36.5166 C   0  0  0  0  0  0  0  0  0  0  0  0
   37.5493  -24.0628   37.2527 N   0  0  0  0  0  0  0  0  0  0  0  0
   38.0442  -25.2901   37.1973 C   0  0  0  0  0  0  0  0  0  0  0  0
   39.1089  -25.5184   36.3568 C   0  0  0  0  0  0  0  0  0  0  0  0
   39.6188  -24.4827   35.6085 C   0  0  0  0  0  0  0  0  0  0  0  0
   39.0922  -23.1859   35.6685 C   0  0  0  0  0  0  0  0  0  0  0  0
   39.6894  -22.1167   34.8125 C   0  0  0  0  0  0  0  0  0  0  0  0
   40.7343  -21.4683   35.3945 F   0  0  0  0  0  0  0  0  0  0  0  0
   40.3086  -22.7936   33.7087 F   0  0  0  0  0  0  0  0  0  0  0  0
   38.7541  -21.3237   34.1915 F   0  0  0  0  0  0  0  0  0  0  0  0
   35.4369  -15.3797   36.6832 N   0  0  0  0  0  0  0  0  0  0  0  0
   36.6778  -14.7065   36.3507 C   0  0  0  0  0  0  0  0  0  0  0  0
   36.4656  -13.2285   36.5961 C   0  0  0  0  0  0  0  0  0  0  0  0
   35.4293  -12.6860   35.8631 O   0  0  0  0  0  0  0  0  0  0  0  0
   34.3164  -13.5108   35.7733 C   0  0  0  0  0  0  0  0  0  0  0  0
   34.2954  -14.5234   36.9094 C   0  0  0  0  0  0  0  0  0  0  0  0
   32.8879  -19.4770   36.8069 N   0  0  0  0  0  0  0  0  0  0  0  0
   32.1381  -19.0908   37.4679 H   0  0  0  0  0  0  0  0  0  0  0  0
   31.6682  -22.9860   34.8295 C   0  0  0  0  0  0  0  0  0  0  0  0
   31.9306  -21.8594   34.0907 C   0  0  0  0  0  0  0  0  0  0  0  0
   32.3205  -20.6917   34.7272 C   0  0  0  0  0  0  0  0  0  0  0  0
   32.4598  -20.6185   36.0951 C   0  0  0  0  0  0  0  0  0  0  0  0
   32.1946  -21.7421   36.7756 N   0  0  0  0  0  0  0  0  0  0  0  0
   31.8214  -22.8603   36.1968 C   0  0  0  0  0  0  0  0  0  0  0  0
   29.8737  -24.4492   34.2534 F   0  0  0  0  0  0  0  0  0  0  0  0
   31.2401  -24.2864   34.2347 C   0  0  0  0  0  0  0  0  0  0  0  0
   31.7836  -25.2928   35.0160 F   0  0  0  0  0  0  0  0  0  0  0  0
   31.7652  -24.4732   32.9622 F   0  0  0  0  0  0  0  0  0  0  0  0
 36 37  1  0  0  0
 37 38  1  0  0  0
 37 39  1  0  0  0
 37 30  1  0  0  0
 30 31  2  0  0  0
 31 32  1  0  0  0
 32 33  2  0  0  0
 33 28  1  0  0  0
 28  1  1  0  0  0
  1  2  2  0  0  0
  2  3  1  0  0  0
  3  4  2  0  0  0
  4  5  1  0  0  0
  5  6  1  0  0  0
  6  7  1  0  0  0
  7  8  1  0  0  0
  8  9  1  0  0  0
  9 10  1  0  0  0
 10 11  1  0  0  0
  8 12  1  0  0  0
 12 13  2  0  0  0
 13 14  1  0  0  0
 14 15  2  0  0  0
 15 16  1  0  0  0
 16 17  2  0  0  0
 17 18  1  0  0  0
 18 19  1  0  0  0
 18 20  1  0  0  0
 18 21  1  0  0  0
  3 22  1  0  0  0
 22 23  1  0  0  0
 23 24  1  0  0  0
 24 25  1  0  0  0
 25 26  1  0  0  0
 26 27  1  0  0  0
 33 34  1  0  0  0
 34 35  2  0  0  0
 35 30  1  0  0  0
 11  1  1  0  0  0
 17 12  1  0  0  0
 27 22  1  0  0  0
 11  5  2  0  0  0
 28 29  1  0  0  0
M  END
> <minimizedAffinity>
-3.27359

> <CNNscore>
0.3011153936

> <CNNaffinity>
6.4739370346

> <CNN_VS>
1.9494020939

> <CNNaffinity_variance>
1.1445573568

$$$$
[H]c1nc(N2C([H])([H])C([H])([H])c3nc(N4C([H])([H])C([H])([H])OC([H])([H])C4([H])[H])nc(N([H])c4nc([H])c(C(F)(F)F)c([H])c4[H])c3C([H])([H])C2([H])[H])c(C(F)(F)F)c([H])c1[H]


 39 43  0  0  0  0  0  0  0  0999 V2000
   36.5221  -21.1188   36.7280 C   0  0  0  0  0  0  0  0  0  0  0  0
   37.6792  -21.7762   36.5298 N   0  0  0  0  0  0  0  0  0  0  0  0
   38.7778  -21.2065   36.0372 C   0  0  0  0  0  0  0  0  0  0  0  0
   38.7749  -19.9018   35.7061 N   0  0  0  0  0  0  0  0  0  0  0  0
   37.6554  -19.1298   35.8672 C   0  0  0  0  0  0  0  0  0  0  0  0
   37.9421  -17.7726   35.4101 C   0  0  0  0  0  0  0  0  0  0  0  0
   36.6751  -16.9796   35.0157 C   0  0  0  0  0  0  0  0  0  0  0  0
   35.8474  -16.7319   36.1321 N   0  0  0  0  0  0  0  0  0  0  0  0
   35.5881  -17.6499   37.2226 C   0  0  0  0  0  0  0  0  0  0  0  0
   35.2910  -19.0778   36.7388 C   0  0  0  0  0  0  0  0  0  0  0  0
   36.5616  -19.7657   36.3781 C   0  0  0  0  0  0  0  0  0  0  0  0
   35.1825  -15.4873   36.3409 C   0  0  0  0  0  0  0  0  0  0  0  0
   33.9502  -15.3229   35.7396 N   0  0  0  0  0  0  0  0  0  0  0  0
   33.2455  -14.2029   35.7964 C   0  0  0  0  0  0  0  0  0  0  0  0
   33.7747  -13.1431   36.4956 C   0  0  0  0  0  0  0  0  0  0  0  0
   34.9996  -13.2760   37.1078 C   0  0  0  0  0  0  0  0  0  0  0  0
   35.7418  -14.4626   37.0469 C   0  0  0  0  0  0  0  0  0  0  0  0
   37.0573  -14.5361   37.7518 C   0  0  0  0  0  0  0  0  0  0  0  0
   38.1184  -14.7013   36.9165 F   0  0  0  0  0  0  0  0  0  0  0  0
   37.2845  -13.2302   38.3022 F   0  0  0  0  0  0  0  0  0  0  0  0
   37.0370  -15.3338   38.8709 F   0  0  0  0  0  0  0  0  0  0  0  0
   39.9775  -21.9451   35.8863 N   0  0  0  0  0  0  0  0  0  0  0  0
   40.0666  -23.0379   34.9368 C   0  0  0  0  0  0  0  0  0  0  0  0
   41.3730  -23.7548   35.1999 C   0  0  0  0  0  0  0  0  0  0  0  0
   42.4850  -22.9448   35.0853 O   0  0  0  0  0  0  0  0  0  0  0  0
   42.3072  -21.6734   35.6130 C   0  0  0  0  0  0  0  0  0  0  0  0
   41.1797  -21.6603   36.6353 C   0  0  0  0  0  0  0  0  0  0  0  0
   35.3183  -21.6859   37.1212 N   0  0  0  0  0  0  0  0  0  0  0  0
   34.5201  -21.6620   36.4065 H   0  0  0  0  0  0  0  0  0  0  0  0
   34.4235  -23.6028   40.7592 C   0  0  0  0  0  0  0  0  0  0  0  0
   34.0163  -24.1795   39.5822 C   0  0  0  0  0  0  0  0  0  0  0  0
   34.2912  -23.5548   38.3759 C   0  0  0  0  0  0  0  0  0  0  0  0
   34.9712  -22.3593   38.3124 C   0  0  0  0  0  0  0  0  0  0  0  0
   35.3503  -21.8337   39.4854 N   0  0  0  0  0  0  0  0  0  0  0  0
   35.1003  -22.4041   40.6416 C   0  0  0  0  0  0  0  0  0  0  0  0
   33.4065  -25.3401   42.0400 F   0  0  0  0  0  0  0  0  0  0  0  0
   34.1711  -24.1978   42.1047 C   0  0  0  0  0  0  0  0  0  0  0  0
   33.4541  -23.2656   42.8368 F   0  0  0  0  0  0  0  0  0  0  0  0
   35.3496  -24.4043   42.8105 F   0  0  0  0  0  0  0  0  0  0  0  0
 36 37  1  0  0  0
 37 38  1  0  0  0
 37 39  1  0  0  0
 37 30  1  0  0  0
 30 31  2  0  0  0
 31 32  1  0  0  0
 32 33  2  0  0  0
 33 28  1  0  0  0
 28  1  1  0  0  0
  1  2  2  0  0  0
  2  3  1  0  0  0
  3  4  2  0  0  0
  4  5  1  0  0  0
  5  6  1  0  0  0
  6  7  1  0  0  0
  7  8  1  0  0  0
  8  9  1  0  0  0
  9 10  1  0  0  0
 10 11  1  0  0  0
  8 12  1  0  0  0
 12 13  2  0  0  0
 13 14  1  0  0  0
 14 15  2  0  0  0
 15 16  1  0  0  0
 16 17  2  0  0  0
 17 18  1  0  0  0
 18 19  1  0  0  0
 18 20  1  0  0  0
 18 21  1  0  0  0
  3 22  1  0  0  0
 22 23  1  0  0  0
 23 24  1  0  0  0
 24 25  1  0  0  0
 25 26  1  0  0  0
 26 27  1  0  0  0
 33 34  1  0  0  0
 34 35  2  0  0  0
 35 30  1  0  0  0
 11  1  1  0  0  0
 17 12  1  0  0  0
 27 22  1  0  0  0
 11  5  2  0  0  0
 28 29  1  0  0  0
M  END
> <minimizedAffinity>
-4.85759

> <CNNscore>
0.2970640957

> <CNNaffinity>
6.3170142174

> <CNN_VS>
1.8765580654

> <CNNaffinity_variance>
0.7047604918

$$$$
[H]c1nc(N2C([H])([H])C([H])([H])c3nc(N4C([H])([H])C([H])([H])OC([H])([H])C4([H])[H])nc(N([H])c4nc([H])c(C(F)(F)F)c([H])c4[H])c3C([H])([H])C2([H])[H])c(C(F)(F)F)c([H])c1[H]


 39 43  0  0  0  0  0  0  0  0999 V2000
   37.0048  -19.0837   37.3102 C   0  0  0  0  0  0  0  0  0  0  0  0
   37.8541  -19.6606   36.4407 N   0  0  0  0  0  0  0  0  0  0  0  0
   38.1497  -19.1496   35.2467 C   0  0  0  0  0  0  0  0  0  0  0  0
   37.5903  -17.9922   34.8472 N   0  0  0  0  0  0  0  0  0  0  0  0
   36.7131  -17.3123   35.6493 C   0  0  0  0  0  0  0  0  0  0  0  0
   36.2594  -16.1126   34.9506 C   0  0  0  0  0  0  0  0  0  0  0  0
   34.9041  -15.5790   35.4682 C   0  0  0  0  0  0  0  0  0  0  0  0
   35.0018  -15.1114   36.7965 N   0  0  0  0  0  0  0  0  0  0  0  0
   35.7820  -15.7140   37.8583 C   0  0  0  0  0  0  0  0  0  0  0  0
   35.6213  -17.2409   37.9199 C   0  0  0  0  0  0  0  0  0  0  0  0
   36.4501  -17.8813   36.8614 C   0  0  0  0  0  0  0  0  0  0  0  0
   34.3527  -13.9241   37.2482 C   0  0  0  0  0  0  0  0  0  0  0  0
   33.2058  -14.0809   38.0015 N   0  0  0  0  0  0  0  0  0  0  0  0
   32.4668  -13.0722   38.4382 C   0  0  0  0  0  0  0  0  0  0  0  0
   32.8673  -11.7951   38.1210 C   0  0  0  0  0  0  0  0  0  0  0  0
   34.0067  -11.6055   37.3737 C   0  0  0  0  0  0  0  0  0  0  0  0
   34.7870  -12.6746   36.9144 C   0  0  0  0  0  0  0  0  0  0  0  0
   36.0208  -12.3883   36.1218 C   0  0  0  0  0  0  0  0  0  0  0  0
   35.9671  -12.8427   34.8406 F   0  0  0  0  0  0  0  0  0  0  0  0
   36.0612  -10.9635   35.9538 F   0  0  0  0  0  0  0  0  0  0  0  0
   37.1850  -12.6427   36.8067 F   0  0  0  0  0  0  0  0  0  0  0  0
   39.0814  -19.7873   34.3907 N   0  0  0  0  0  0  0  0  0  0  0  0
   40.1193  -19.0282   33.7198 C   0  0  0  0  0  0  0  0  0  0  0  0
   40.7700  -19.9516   32.7130 C   0  0  0  0  0  0  0  0  0  0  0  0
   41.3126  -21.0911   33.2725 O   0  0  0  0  0  0  0  0  0  0  0  0
   40.5315  -21.6474   34.2761 C   0  0  0  0  0  0  0  0  0  0  0  0
   39.0797  -21.2105   34.1422 C   0  0  0  0  0  0  0  0  0  0  0  0
   36.5686  -19.6293   38.5092 N   0  0  0  0  0  0  0  0  0  0  0  0
   37.0851  -19.3172   39.3948 H   0  0  0  0  0  0  0  0  0  0  0  0
   33.4816  -22.3416   39.4166 C   0  0  0  0  0  0  0  0  0  0  0  0
   33.3834  -21.5717   38.2846 C   0  0  0  0  0  0  0  0  0  0  0  0
   34.3848  -20.6640   37.9780 C   0  0  0  0  0  0  0  0  0  0  0  0
   35.4943  -20.5048   38.7776 C   0  0  0  0  0  0  0  0  0  0  0  0
   35.5487  -21.2777   39.8710 N   0  0  0  0  0  0  0  0  0  0  0  0
   34.6124  -22.1434   40.1852 C   0  0  0  0  0  0  0  0  0  0  0  0
   32.9746  -24.6093   39.9585 F   0  0  0  0  0  0  0  0  0  0  0  0
   32.4539  -23.3419   39.8306 C   0  0  0  0  0  0  0  0  0  0  0  0
   31.5009  -23.3897   38.8265 F   0  0  0  0  0  0  0  0  0  0  0  0
   31.7743  -22.9447   40.9754 F   0  0  0  0  0  0  0  0  0  0  0  0
 36 37  1  0  0  0
 37 38  1  0  0  0
 37 39  1  0  0  0
 37 30  1  0  0  0
 30 31  2  0  0  0
 31 32  1  0  0  0
 32 33  2  0  0  0
 33 28  1  0  0  0
 28  1  1  0  0  0
  1  2  2  0  0  0
  2  3  1  0  0  0
  3  4  2  0  0  0
  4  5  1  0  0  0
  5  6  1  0  0  0
  6  7  1  0  0  0
  7  8  1  0  0  0
  8  9  1  0  0  0
  9 10  1  0  0  0
 10 11  1  0  0  0
  8 12  1  0  0  0
 12 13  2  0  0  0
 13 14  1  0  0  0
 14 15  2  0  0  0
 15 16  1  0  0  0
 16 17  2  0  0  0
 17 18  1  0  0  0
 18 19  1  0  0  0
 18 20  1  0  0  0
 18 21  1  0  0  0
  3 22  1  0  0  0
 22 23  1  0  0  0
 23 24  1  0  0  0
 24 25  1  0  0  0
 25 26  1  0  0  0
 26 27  1  0  0  0
 33 34  1  0  0  0
 34 35  2  0  0  0
 35 30  1  0  0  0
 11  1  1  0  0  0
 17 12  1  0  0  0
 27 22  1  0  0  0
 11  5  2  0  0  0
 28 29  1  0  0  0
M  END
> <minimizedAffinity>
-4.68790

> <CNNscore>
0.2334739566

> <CNNaffinity>
6.1812810898

> <CNN_VS>
1.4431681633

> <CNNaffinity_variance>
0.3989063203

$$$$
[H]Oc1c([H])c2c(c([H])c1O[H])[C@@]1([H])C([H])([H])C([H])([H])[C@]3(C([H])([H])[H])C(C([H])([H])[H])(C([H])([H])[H])C([H])([H])C([H])([H])[C@@]3([H])[C@]1([H])C([H])([H])C2([H])[H]


 24 27  0  0  0  0  0  0  0  0999 V2000
   36.5410  -20.4513   35.8360 C   0  0  0  0  0  0  0  0  0  0  0  0
   35.9263  -19.1457   36.2042 C   0  0  0  0  0  0  0  0  0  0  0  0
   35.2952  -19.2548   37.5488 C   0  0  0  0  0  0  0  0  0  0  0  0
   34.2077  -20.3316   37.4389 C   0  0  0  0  0  0  0  0  0  0  0  0
   33.1866  -19.8442   36.4674 C   0  0  0  0  0  0  0  0  0  0  0  0
   33.7554  -19.6376   35.0761 C   0  0  0  0  0  0  0  0  0  0  0  0
   32.7116  -19.1189   34.1435 C   0  0  0  0  0  0  0  0  0  0  0  0
   31.3510  -18.9694   34.7546 C   0  0  0  0  0  0  0  0  0  0  0  0
   30.9882  -20.2169   35.5166 C   0  0  0  0  0  0  0  0  0  0  0  0
   29.8085  -20.8715   35.3584 C   0  0  0  0  0  0  0  0  0  0  0  0
   29.5791  -22.0082   36.1090 C   0  0  0  0  0  0  0  0  0  0  0  0
   28.3958  -22.7220   35.9946 O   0  0  0  0  0  0  0  0  0  0  0  0
   30.5461  -22.4610   37.0047 C   0  0  0  0  0  0  0  0  0  0  0  0
   30.2826  -23.5905   37.7304 O   0  0  0  0  0  0  0  0  0  0  0  0
   31.7416  -21.7811   37.1521 C   0  0  0  0  0  0  0  0  0  0  0  0
   31.9647  -20.6537   36.4051 C   0  0  0  0  0  0  0  0  0  0  0  0
   34.8744  -18.6679   35.2289 C   0  0  0  0  0  0  0  0  0  0  0  0
   35.6618  -18.3699   34.0157 C   0  0  0  0  0  0  0  0  0  0  0  0
   36.9969  -17.8816   34.5452 C   0  0  0  0  0  0  0  0  0  0  0  0
   36.9412  -18.0561   36.0658 C   0  0  0  0  0  0  0  0  0  0  0  0
   36.4839  -16.7404   36.6404 C   0  0  0  0  0  0  0  0  0  0  0  0
   38.2847  -18.3826   36.6236 C   0  0  0  0  0  0  0  0  0  0  0  0
   27.7030  -22.3860   35.3442 H   0  0  0  0  0  0  0  0  0  0  0  0
   30.8778  -24.0190   38.3977 H   0  0  0  0  0  0  0  0  0  0  0  0
  2  1  1  0  0  0
  2  3  1  0  0  0
  3  4  1  0  0  0
  4  5  1  0  0  0
  5  6  1  0  0  0
  6  7  1  0  0  0
  7  8  1  0  0  0
  8  9  1  0  0  0
  9 10  2  0  0  0
 10 11  1  0  0  0
 11 12  1  0  0  0
 11 13  2  0  0  0
 13 14  1  0  0  0
 13 15  1  0  0  0
 15 16  2  0  0  0
  6 17  1  0  0  0
 17 18  1  0  0  0
 18 19  1  0  0  0
 19 20  1  0  0  0
 20 21  1  0  0  0
 20 22  1  0  0  0
 17  2  1  0  0  0
 20  2  1  0  0  0
 16  5  1  0  0  0
 16  9  1  0  0  0
 12 23  1  0  0  0
 14 24  1  0  0  0
M  END
> <minimizedAffinity>
-6.33571

> <CNNscore>
0.5998144746

> <CNNaffinity>
4.8115348816

> <CNN_VS>
2.8860282898

> <CNNaffinity_variance>
0.1944828331

$$$$
[H]Oc1c([H])c2c(c([H])c1O[H])[C@@]1([H])C([H])([H])C([H])([H])[C@]3(C([H])([H])[H])C(C([H])([H])[H])(C([H])([H])[H])C([H])([H])C([H])([H])[C@@]3([H])[C@]1([H])C([H])([H])C2([H])[H]


 24 27  0  0  0  0  0  0  0  0999 V2000
   34.7459  -19.8226   33.8916 C   0  0  0  0  0  0  0  0  0  0  0  0
   34.3311  -19.2276   35.1924 C   0  0  0  0  0  0  0  0  0  0  0  0
   34.4121  -20.2621   36.2608 C   0  0  0  0  0  0  0  0  0  0  0  0
   33.4403  -21.3813   35.8649 C   0  0  0  0  0  0  0  0  0  0  0  0
   32.0653  -20.8038   35.8591 C   0  0  0  0  0  0  0  0  0  0  0  0
   31.9038  -19.6892   34.8425 C   0  0  0  0  0  0  0  0  0  0  0  0
   30.5261  -19.1167   34.8913 C   0  0  0  0  0  0  0  0  0  0  0  0
   29.6094  -19.7853   35.8709 C   0  0  0  0  0  0  0  0  0  0  0  0
   29.6930  -21.2814   35.7168 C   0  0  0  0  0  0  0  0  0  0  0  0
   28.6020  -22.0806   35.5903 C   0  0  0  0  0  0  0  0  0  0  0  0
   28.7937  -23.4418   35.4541 C   0  0  0  0  0  0  0  0  0  0  0  0
   27.7223  -24.3119   35.3208 O   0  0  0  0  0  0  0  0  0  0  0  0
   30.0841  -23.9685   35.4484 C   0  0  0  0  0  0  0  0  0  0  0  0
   30.2338  -25.3215   35.3113 O   0  0  0  0  0  0  0  0  0  0  0  0
   31.1831  -23.1387   35.5784 C   0  0  0  0  0  0  0  0  0  0  0  0
   30.9877  -21.7886   35.7133 C   0  0  0  0  0  0  0  0  0  0  0  0
   32.9275  -18.6654   35.1884 C   0  0  0  0  0  0  0  0  0  0  0  0
   33.0394  -17.5080   34.2781 C   0  0  0  0  0  0  0  0  0  0  0  0
   34.4483  -16.9908   34.4999 C   0  0  0  0  0  0  0  0  0  0  0  0
   35.1217  -17.9848   35.4508 C   0  0  0  0  0  0  0  0  0  0  0  0
   34.9426  -17.4449   36.8462 C   0  0  0  0  0  0  0  0  0  0  0  0
   36.5802  -18.1046   35.1659 C   0  0  0  0  0  0  0  0  0  0  0  0
   26.7934  -23.9208   35.3263 H   0  0  0  0  0  0  0  0  0  0  0  0
   31.0881  -25.8246   35.2913 H   0  0  0  0  0  0  0  0  0  0  0  0
  2  1  1  0  0  0
  2  3  1  0  0  0
  3  4  1  0  0  0
  4  5  1  0  0  0
  5  6  1  0  0  0
  6  7  1  0  0  0
  7  8  1  0  0  0
  8  9  1  0  0  0
  9 10  2  0  0  0
 10 11  1  0  0  0
 11 12  1  0  0  0
 11 13  2  0  0  0
 13 14  1  0  0  0
 13 15  1  0  0  0
 15 16  2  0  0  0
  6 17  1  0  0  0
 17 18  1  0  0  0
 18 19  1  0  0  0
 19 20  1  0  0  0
 20 21  1  0  0  0
 20 22  1  0  0  0
 17  2  1  0  0  0
 20  2  1  0  0  0
 16  5  1  0  0  0
 16  9  1  0  0  0
 12 23  1  0  0  0
 14 24  1  0  0  0
M  END
> <minimizedAffinity>
-4.96122

> <CNNscore>
0.5544986725

> <CNNaffinity>
4.7963514328

> <CNN_VS>
2.6595704556

> <CNNaffinity_variance>
0.2053862810

$$$$
[H]Oc1c([H])c2c(c([H])c1O[H])[C@@]1([H])C([H])([H])C([H])([H])[C@]3(C([H])([H])[H])C(C([H])([H])[H])(C([H])([H])[H])C([H])([H])C([H])([H])[C@@]3([H])[C@]1([H])C([H])([H])C2([H])[H]


 24 27  0  0  0  0  0  0  0  0999 V2000
   41.4728  -17.9366   36.2364 C   0  0  0  0  0  0  0  0  0  0  0  0
   42.2815  -19.1581   36.5051 C   0  0  0  0  0  0  0  0  0  0  0  0
   41.5767  -20.3510   35.9589 C   0  0  0  0  0  0  0  0  0  0  0  0
   40.2324  -20.4428   36.6926 C   0  0  0  0  0  0  0  0  0  0  0  0
   40.5216  -20.6757   38.1369 C   0  0  0  0  0  0  0  0  0  0  0  0
   41.3003  -19.5366   38.7681 C   0  0  0  0  0  0  0  0  0  0  0  0
   41.5977  -19.8228   40.2026 C   0  0  0  0  0  0  0  0  0  0  0  0
   41.0314  -21.1151   40.7090 C   0  0  0  0  0  0  0  0  0  0  0  0
   39.5868  -21.2399   40.3012 C   0  0  0  0  0  0  0  0  0  0  0  0
   38.5908  -21.5547   41.1694 C   0  0  0  0  0  0  0  0  0  0  0  0
   37.2991  -21.6425   40.6877 C   0  0  0  0  0  0  0  0  0  0  0  0
   36.2378  -21.9597   41.5218 O   0  0  0  0  0  0  0  0  0  0  0  0
   37.0394  -21.4104   39.3382 C   0  0  0  0  0  0  0  0  0  0  0  0
   35.7475  -21.5065   38.8985 O   0  0  0  0  0  0  0  0  0  0  0  0
   38.0669  -21.0909   38.4690 C   0  0  0  0  0  0  0  0  0  0  0  0
   39.3470  -21.0050   38.9518 C   0  0  0  0  0  0  0  0  0  0  0  0
   42.5512  -19.4029   37.9725 C   0  0  0  0  0  0  0  0  0  0  0  0
   43.4481  -18.2864   38.3328 C   0  0  0  0  0  0  0  0  0  0  0  0
   44.2592  -18.0357   37.0755 C   0  0  0  0  0  0  0  0  0  0  0  0
   43.6753  -18.9583   36.0014 C   0  0  0  0  0  0  0  0  0  0  0  0
   44.4991  -20.2199   36.0138 C   0  0  0  0  0  0  0  0  0  0  0  0
   43.7651  -18.3395   34.6480 C   0  0  0  0  0  0  0  0  0  0  0  0
   36.4364  -22.1257   42.4959 H   0  0  0  0  0  0  0  0  0  0  0  0
   35.4246  -21.3677   37.9713 H   0  0  0  0  0  0  0  0  0  0  0  0
  2  1  1  0  0  0
  2  3  1  0  0  0
  3  4  1  0  0  0
  4  5  1  0  0  0
  5  6  1  0  0  0
  6  7  1  0  0  0
  7  8  1  0  0  0
  8  9  1  0  0  0
  9 10  2  0  0  0
 10 11  1  0  0  0
 11 12  1  0  0  0
 11 13  2  0  0  0
 13 14  1  0  0  0
 13 15  1  0  0  0
 15 16  2  0  0  0
  6 17  1  0  0  0
 17 18  1  0  0  0
 18 19  1  0  0  0
 19 20  1  0  0  0
 20 21  1  0  0  0
 20 22  1  0  0  0
 17  2  1  0  0  0
 20  2  1  0  0  0
 16  5  1  0  0  0
 16  9  1  0  0  0
 12 23  1  0  0  0
 14 24  1  0  0  0
M  END
> <minimizedAffinity>
-4.34075

> <CNNscore>
0.5458374023

> <CNNaffinity>
4.7376761436

> <CNN_VS>
2.5860009193

> <CNNaffinity_variance>
0.3434832692

$$$$
[H]Oc1c([H])c2c(c([H])c1O[H])[C@@]1([H])C([H])([H])C([H])([H])[C@]3(C([H])([H])[H])C(C([H])([H])[H])(C([H])([H])[H])C([H])([H])C([H])([H])[C@@]3([H])[C@]1([H])C([H])([H])C2([H])[H]


 24 27  0  0  0  0  0  0  0  0999 V2000
   40.0913  -21.5135   35.8146 C   0  0  0  0  0  0  0  0  0  0  0  0
   39.9510  -21.0580   37.2256 C   0  0  0  0  0  0  0  0  0  0  0  0
   39.4389  -22.1793   38.0614 C   0  0  0  0  0  0  0  0  0  0  0  0
   38.0640  -22.5581   37.4958 C   0  0  0  0  0  0  0  0  0  0  0  0
   37.1649  -21.3809   37.6688 C   0  0  0  0  0  0  0  0  0  0  0  0
   37.6444  -20.1618   36.9033 C   0  0  0  0  0  0  0  0  0  0  0  0
   36.7372  -18.9981   37.1289 C   0  0  0  0  0  0  0  0  0  0  0  0
   35.5513  -19.2935   37.9969 C   0  0  0  0  0  0  0  0  0  0  0  0
   34.8852  -20.5663   37.5441 C   0  0  0  0  0  0  0  0  0  0  0  0
   33.5509  -20.6683   37.3113 C   0  0  0  0  0  0  0  0  0  0  0  0
   33.0446  -21.8852   36.8978 C   0  0  0  0  0  0  0  0  0  0  0  0
   31.6921  -22.0554   36.6435 O   0  0  0  0  0  0  0  0  0  0  0  0
   33.8966  -22.9750   36.7277 C   0  0  0  0  0  0  0  0  0  0  0  0
   33.3582  -24.1637   36.3169 O   0  0  0  0  0  0  0  0  0  0  0  0
   35.2529  -22.8519   36.9695 C   0  0  0  0  0  0  0  0  0  0  0  0
   35.7506  -21.6423   37.3797 C   0  0  0  0  0  0  0  0  0  0  0  0
   39.0195  -19.8797   37.3986 C   0  0  0  0  0  0  0  0  0  0  0  0
   39.7501  -18.7824   36.7331 C   0  0  0  0  0  0  0  0  0  0  0  0
   41.2123  -19.0961   36.9881 C   0  0  0  0  0  0  0  0  0  0  0  0
   41.2395  -20.4573   37.6897 C   0  0  0  0  0  0  0  0  0  0  0  0
   41.2695  -20.1849   39.1714 C   0  0  0  0  0  0  0  0  0  0  0  0
   42.4571  -21.2338   37.3195 C   0  0  0  0  0  0  0  0  0  0  0  0
   31.0846  -21.2612   36.7698 H   0  0  0  0  0  0  0  0  0  0  0  0
   33.8460  -25.0122   36.1575 H   0  0  0  0  0  0  0  0  0  0  0  0
  2  1  1  0  0  0
  2  3  1  0  0  0
  3  4  1  0  0  0
  4  5  1  0  0  0
  5  6  1  0  0  0
  6  7  1  0  0  0
  7  8  1  0  0  0
  8  9  1  0  0  0
  9 10  2  0  0  0
 10 11  1  0  0  0
 11 12  1  0  0  0
 11 13  2  0  0  0
 13 14  1  0  0  0
 13 15  1  0  0  0
 15 16  2  0  0  0
  6 17  1  0  0  0
 17 18  1  0  0  0
 18 19  1  0  0  0
 19 20  1  0  0  0
 20 21  1  0  0  0
 20 22  1  0  0  0
 17  2  1  0  0  0
 20  2  1  0  0  0
 16  5  1  0  0  0
 16  9  1  0  0  0
 12 23  1  0  0  0
 14 24  1  0  0  0
M  END
> <minimizedAffinity>
-4.37861

> <CNNscore>
0.5119255185

> <CNNaffinity>
4.7403402328

> <CNN_VS>
2.4267010689

> <CNNaffinity_variance>
0.2555086315

$$$$
[H]Oc1c([H])c2c(c([H])c1O[H])[C@@]1([H])C([H])([H])C([H])([H])[C@]3(C([H])([H])[H])C(C([H])([H])[H])(C([H])([H])[H])C([H])([H])C([H])([H])[C@@]3([H])[C@]1([H])C([H])([H])C2([H])[H]


 24 27  0  0  0  0  0  0  0  0999 V2000
   33.8923  -14.2264   37.8369 C   0  0  0  0  0  0  0  0  0  0  0  0
   34.5733  -13.8724   36.5606 C   0  0  0  0  0  0  0  0  0  0  0  0
   33.5817  -13.8797   35.4493 C   0  0  0  0  0  0  0  0  0  0  0  0
   33.0244  -15.3067   35.3655 C   0  0  0  0  0  0  0  0  0  0  0  0
   34.1540  -16.2119   35.0069 C   0  0  0  0  0  0  0  0  0  0  0  0
   35.2518  -16.2199   36.0543 C   0  0  0  0  0  0  0  0  0  0  0  0
   36.3766  -17.1108   35.6430 C   0  0  0  0  0  0  0  0  0  0  0  0
   36.1595  -17.8267   34.3440 C   0  0  0  0  0  0  0  0  0  0  0  0
   34.7879  -18.4489   34.3213 C   0  0  0  0  0  0  0  0  0  0  0  0
   34.5625  -19.7463   33.9881 C   0  0  0  0  0  0  0  0  0  0  0  0
   33.2629  -20.2143   34.0007 C   0  0  0  0  0  0  0  0  0  0  0  0
   32.9656  -21.5280   33.6709 O   0  0  0  0  0  0  0  0  0  0  0  0
   32.2167  -19.3621   34.3497 C   0  0  0  0  0  0  0  0  0  0  0  0
   30.9432  -19.8620   34.3506 O   0  0  0  0  0  0  0  0  0  0  0  0
   32.4659  -18.0438   34.6860 C   0  0  0  0  0  0  0  0  0  0  0  0
   33.7572  -17.5840   34.6721 C   0  0  0  0  0  0  0  0  0  0  0  0
   35.7019  -14.8075   36.1892 C   0  0  0  0  0  0  0  0  0  0  0  0
   36.7131  -14.5319   37.2295 C   0  0  0  0  0  0  0  0  0  0  0  0
   36.5418  -13.0565   37.5381 C   0  0  0  0  0  0  0  0  0  0  0  0
   35.3257  -12.5914   36.7315 C   0  0  0  0  0  0  0  0  0  0  0  0
   35.8497  -12.0313   35.4344 C   0  0  0  0  0  0  0  0  0  0  0  0
   34.5766  -11.5206   37.4490 C   0  0  0  0  0  0  0  0  0  0  0  0
   33.7293  -22.1359   33.4200 H   0  0  0  0  0  0  0  0  0  0  0  0
   30.1129  -19.3695   34.5769 H   0  0  0  0  0  0  0  0  0  0  0  0
  2  1  1  0  0  0
  2  3  1  0  0  0
  3  4  1  0  0  0
  4  5  1  0  0  0
  5  6  1  0  0  0
  6  7  1  0  0  0
  7  8  1  0  0  0
  8  9  1  0  0  0
  9 10  2  0  0  0
 10 11  1  0  0  0
 11 12  1  0  0  0
 11 13  2  0  0  0
 13 14  1  0  0  0
 13 15  1  0  0  0
 15 16  2  0  0  0
  6 17  1  0  0  0
 17 18  1  0  0  0
 18 19  1  0  0  0
 19 20  1  0  0  0
 20 21  1  0  0  0
 20 22  1  0  0  0
 17  2  1  0  0  0
 20  2  1  0  0  0
 16  5  1  0  0  0
 16  9  1  0  0  0
 12 23  1  0  0  0
 14 24  1  0  0  0
M  END
> <minimizedAffinity>
-5.13551

> <CNNscore>
0.4748440683

> <CNNaffinity>
5.2240757942

> <CNN_VS>
2.4806213379

> <CNNaffinity_variance>
0.1009675041

$$$$
[H]Oc1c([H])c2c(c([H])c1O[H])[C@@]1([H])C([H])([H])C([H])([H])[C@]3(C([H])([H])[H])C(C([H])([H])[H])(C([H])([H])[H])C([H])([H])C([H])([H])[C@@]3([H])[C@]1([H])C([H])([H])C2([H])[H]


 24 27  0  0  0  0  0  0  0  0999 V2000
   36.0205  -18.5657   38.1796 C   0  0  0  0  0  0  0  0  0  0  0  0
   36.5924  -18.1008   36.8854 C   0  0  0  0  0  0  0  0  0  0  0  0
   37.3082  -16.8112   37.0928 C   0  0  0  0  0  0  0  0  0  0  0  0
   36.2651  -15.8042   37.5947 C   0  0  0  0  0  0  0  0  0  0  0  0
   35.2549  -15.6239   36.5125 C   0  0  0  0  0  0  0  0  0  0  0  0
   34.5165  -16.9076   36.1826 C   0  0  0  0  0  0  0  0  0  0  0  0
   33.5398  -16.6928   35.0743 C   0  0  0  0  0  0  0  0  0  0  0  0
   33.4644  -15.2805   34.5774 C   0  0  0  0  0  0  0  0  0  0  0  0
   33.3561  -14.3297   35.7406 C   0  0  0  0  0  0  0  0  0  0  0  0
   32.4157  -13.3529   35.8209 C   0  0  0  0  0  0  0  0  0  0  0  0
   32.4067  -12.5359   36.9347 C   0  0  0  0  0  0  0  0  0  0  0  0
   31.4733  -11.5205   37.0776 O   0  0  0  0  0  0  0  0  0  0  0  0
   33.3483  -12.7221   37.9454 C   0  0  0  0  0  0  0  0  0  0  0  0
   33.3076  -11.8931   39.0330 O   0  0  0  0  0  0  0  0  0  0  0  0
   34.2984  -13.7223   37.8459 C   0  0  0  0  0  0  0  0  0  0  0  0
   34.3032  -14.5305   36.7387 C   0  0  0  0  0  0  0  0  0  0  0  0
   35.5611  -17.8961   35.7989 C   0  0  0  0  0  0  0  0  0  0  0  0
   35.1001  -19.2710   35.5198 C   0  0  0  0  0  0  0  0  0  0  0  0
   36.3290  -20.1319   35.7445 C   0  0  0  0  0  0  0  0  0  0  0  0
   37.4146  -19.1927   36.2788 C   0  0  0  0  0  0  0  0  0  0  0  0
   38.2232  -18.7389   35.0910 C   0  0  0  0  0  0  0  0  0  0  0  0
   38.3176  -19.8959   37.2341 C   0  0  0  0  0  0  0  0  0  0  0  0
   30.7970  -11.3942   36.3410 H   0  0  0  0  0  0  0  0  0  0  0  0
   33.9129  -11.9146   39.8181 H   0  0  0  0  0  0  0  0  0  0  0  0
  2  1  1  0  0  0
  2  3  1  0  0  0
  3  4  1  0  0  0
  4  5  1  0  0  0
  5  6  1  0  0  0
  6  7  1  0  0  0
  7  8  1  0  0  0
  8  9  1  0  0  0
  9 10  2  0  0  0
 10 11  1  0  0  0
 11 12  1  0  0  0
 11 13  2  0  0  0
 13 14  1  0  0  0
 13 15  1  0  0  0
 15 16  2  0  0  0
  6 17  1  0  0  0
 17 18  1  0  0  0
 18 19  1  0  0  0
 19 20  1  0  0  0
 20 21  1  0  0  0
 20 22  1  0  0  0
 17  2  1  0  0  0
 20  2  1  0  0  0
 16  5  1  0  0  0
 16  9  1  0  0  0
 12 23  1  0  0  0
 14 24  1  0  0  0
M  END
> <minimizedAffinity>
-5.27684

> <CNNscore>
0.4555181861

> <CNNaffinity>
5.0486540794

> <CNN_VS>
2.2997536659

> <CNNaffinity_variance>
0.0299090352

$$$$
[H]Oc1c([H])c2c(c([H])c1O[H])[C@@]1([H])C([H])([H])C([H])([H])[C@]3(C([H])([H])[H])C(C([H])([H])[H])(C([H])([H])[H])C([H])([H])C([H])([H])[C@@]3([H])[C@]1([H])C([H])([H])C2([H])[H]


 24 27  0  0  0  0  0  0  0  0999 V2000
   34.5226  -17.4549   35.3213 C   0  0  0  0  0  0  0  0  0  0  0  0
   35.2857  -18.7164   35.1109 C   0  0  0  0  0  0  0  0  0  0  0  0
   34.6449  -19.5100   34.0256 C   0  0  0  0  0  0  0  0  0  0  0  0
   33.2214  -19.8333   34.4979 C   0  0  0  0  0  0  0  0  0  0  0  0
   33.3330  -20.6874   35.7153 C   0  0  0  0  0  0  0  0  0  0  0  0
   34.0366  -19.9835   36.8606 C   0  0  0  0  0  0  0  0  0  0  0  0
   34.1572  -20.8817   38.0467 C   0  0  0  0  0  0  0  0  0  0  0  0
   33.5264  -22.2302   37.8719 C   0  0  0  0  0  0  0  0  0  0  0  0
   32.1408  -22.0811   37.3004 C   0  0  0  0  0  0  0  0  0  0  0  0
   31.0455  -22.6835   37.8318 C   0  0  0  0  0  0  0  0  0  0  0  0
   29.8208  -22.4778   37.2267 C   0  0  0  0  0  0  0  0  0  0  0  0
   28.6648  -23.0639   37.7196 O   0  0  0  0  0  0  0  0  0  0  0  0
   29.7271  -21.6675   36.0967 C   0  0  0  0  0  0  0  0  0  0  0  0
   28.4970  -21.4875   35.5255 O   0  0  0  0  0  0  0  0  0  0  0  0
   30.8537  -21.0622   35.5699 C   0  0  0  0  0  0  0  0  0  0  0  0
   32.0667  -21.2693   36.1737 C   0  0  0  0  0  0  0  0  0  0  0  0
   35.3751  -19.5901   36.3416 C   0  0  0  0  0  0  0  0  0  0  0  0
   36.2285  -18.7956   37.2477 C   0  0  0  0  0  0  0  0  0  0  0  0
   37.1868  -18.0708   36.3214 C   0  0  0  0  0  0  0  0  0  0  0  0
   36.7312  -18.3989   34.8964 C   0  0  0  0  0  0  0  0  0  0  0  0
   37.5400  -19.5860   34.4412 C   0  0  0  0  0  0  0  0  0  0  0  0
   36.9873  -17.2596   33.9696 C   0  0  0  0  0  0  0  0  0  0  0  0
   28.7435  -23.6481   38.5371 H   0  0  0  0  0  0  0  0  0  0  0  0
   28.2892  -20.9408   34.7247 H   0  0  0  0  0  0  0  0  0  0  0  0
  2  1  1  0  0  0
  2  3  1  0  0  0
  3  4  1  0  0  0
  4  5  1  0  0  0
  5  6  1  0  0  0
  6  7  1  0  0  0
  7  8  1  0  0  0
  8  9  1  0  0  0
  9 10  2  0  0  0
 10 11  1  0  0  0
 11 12  1  0  0  0
 11 13  2  0  0  0
 13 14  1  0  0  0
 13 15  1  0  0  0
 15 16  2  0  0  0
  6 17  1  0  0  0
 17 18  1  0  0  0
 18 19  1  0  0  0
 19 20  1  0  0  0
 20 21  1  0  0  0
 20 22  1  0  0  0
 17  2  1  0  0  0
 20  2  1  0  0  0
 16  5  1  0  0  0
 16  9  1  0  0  0
 12 23  1  0  0  0
 14 24  1  0  0  0
M  END
> <minimizedAffinity>
-5.50426

> <CNNscore>
0.4416738451

> <CNNaffinity>
4.6383371353

> <CNN_VS>
2.0486321449

> <CNNaffinity_variance>
0.0916712359

$$$$
[H]Oc1c([H])c2c(c([H])c1O[H])[C@@]1([H])C([H])([H])C([H])([H])[C@]3(C([H])([H])[H])C(C([H])([H])[H])(C([H])([H])[H])C([H])([H])C([H])([H])[C@@]3([H])[C@]1([H])C([H])([H])C2([H])[H]


 24 27  0  0  0  0  0  0  0  0999 V2000
   42.8869  -20.0135   37.8678 C   0  0  0  0  0  0  0  0  0  0  0  0
   42.2607  -21.3384   37.6024 C   0  0  0  0  0  0  0  0  0  0  0  0
   41.7580  -21.3790   36.2010 C   0  0  0  0  0  0  0  0  0  0  0  0
   40.7051  -20.2698   36.0784 C   0  0  0  0  0  0  0  0  0  0  0  0
   39.5833  -20.6086   37.0009 C   0  0  0  0  0  0  0  0  0  0  0  0
   40.0162  -20.6574   38.4543 C   0  0  0  0  0  0  0  0  0  0  0  0
   38.8743  -21.0313   39.3400 C   0  0  0  0  0  0  0  0  0  0  0  0
   37.5699  -21.2202   38.6260 C   0  0  0  0  0  0  0  0  0  0  0  0
   37.3231  -20.0667   37.6893 C   0  0  0  0  0  0  0  0  0  0  0  0
   36.1586  -19.3681   37.6564 C   0  0  0  0  0  0  0  0  0  0  0  0
   36.0395  -18.3265   36.7569 C   0  0  0  0  0  0  0  0  0  0  0  0
   34.8775  -17.5745   36.6733 O   0  0  0  0  0  0  0  0  0  0  0  0
   37.0993  -18.0115   35.9084 C   0  0  0  0  0  0  0  0  0  0  0  0
   36.9437  -16.9732   35.0312 O   0  0  0  0  0  0  0  0  0  0  0  0
   38.2776  -18.7343   35.9565 C   0  0  0  0  0  0  0  0  0  0  0  0
   38.3911  -19.7669   36.8508 C   0  0  0  0  0  0  0  0  0  0  0  0
   41.1083  -21.6664   38.5246 C   0  0  0  0  0  0  0  0  0  0  0  0
   41.7716  -21.8332   39.8334 C   0  0  0  0  0  0  0  0  0  0  0  0
   43.1304  -22.4163   39.4940 C   0  0  0  0  0  0  0  0  0  0  0  0
   43.2186  -22.4281   37.9650 C   0  0  0  0  0  0  0  0  0  0  0  0
   42.7673  -23.7924   37.5115 C   0  0  0  0  0  0  0  0  0  0  0  0
   44.6180  -22.2064   37.5010 C   0  0  0  0  0  0  0  0  0  0  0  0
   34.1171  -17.8106   37.2912 H   0  0  0  0  0  0  0  0  0  0  0  0
   37.6120  -16.6448   34.3764 H   0  0  0  0  0  0  0  0  0  0  0  0
  2  1  1  0  0  0
  2  3  1  0  0  0
  3  4  1  0  0  0
  4  5  1  0  0  0
  5  6  1  0  0  0
  6  7  1  0  0  0
  7  8  1  0  0  0
  8  9  1  0  0  0
  9 10  2  0  0  0
 10 11  1  0  0  0
 11 12  1  0  0  0
 11 13  2  0  0  0
 13 14  1  0  0  0
 13 15  1  0  0  0
 15 16  2  0  0  0
  6 17  1  0  0  0
 17 18  1  0  0  0
 18 19  1  0  0  0
 19 20  1  0  0  0
 20 21  1  0  0  0
 20 22  1  0  0  0
 17  2  1  0  0  0
 20  2  1  0  0  0
 16  5  1  0  0  0
 16  9  1  0  0  0
 12 23  1  0  0  0
 14 24  1  0  0  0
M  END
> <minimizedAffinity>
-4.31433

> <CNNscore>
0.4005693793

> <CNNaffinity>
4.5449180603

> <CNN_VS>
1.8205549717

> <CNNaffinity_variance>
0.0836965218

$$$$
[H]Oc1c([H])c2c(c([H])c1O[H])[C@@]1([H])C([H])([H])C([H])([H])[C@]3(C([H])([H])[H])C(C([H])([H])[H])(C([H])([H])[H])C([H])([H])C([H])([H])[C@@]3([H])[C@]1([H])C([H])([H])C2([H])[H]


 24 27  0  0  0  0  0  0  0  0999 V2000
   36.1831  -19.9046   35.2450 C   0  0  0  0  0  0  0  0  0  0  0  0
   36.8364  -18.8457   36.0635 C   0  0  0  0  0  0  0  0  0  0  0  0
   37.8631  -18.1455   35.2427 C   0  0  0  0  0  0  0  0  0  0  0  0
   38.8973  -19.2028   34.8349 C   0  0  0  0  0  0  0  0  0  0  0  0
   39.5419  -19.7079   36.0812 C   0  0  0  0  0  0  0  0  0  0  0  0
   38.5561  -20.3823   37.0170 C   0  0  0  0  0  0  0  0  0  0  0  0
   39.2333  -20.8434   38.2648 C   0  0  0  0  0  0  0  0  0  0  0  0
   40.7111  -20.5944   38.2984 C   0  0  0  0  0  0  0  0  0  0  0  0
   41.3394  -21.0458   37.0060 C   0  0  0  0  0  0  0  0  0  0  0  0
   42.4310  -21.8521   36.9485 C   0  0  0  0  0  0  0  0  0  0  0  0
   42.9254  -22.2057   35.7080 C   0  0  0  0  0  0  0  0  0  0  0  0
   44.0363  -23.0257   35.5807 O   0  0  0  0  0  0  0  0  0  0  0  0
   42.3069  -21.7374   34.5501 C   0  0  0  0  0  0  0  0  0  0  0  0
   42.8255  -22.1092   33.3399 O   0  0  0  0  0  0  0  0  0  0  0  0
   41.1961  -20.9171   34.6286 C   0  0  0  0  0  0  0  0  0  0  0  0
   40.7092  -20.5690   35.8618 C   0  0  0  0  0  0  0  0  0  0  0  0
   37.5093  -19.3664   37.3134 C   0  0  0  0  0  0  0  0  0  0  0  0
   36.3693  -19.8127   38.1391 C   0  0  0  0  0  0  0  0  0  0  0  0
   35.2533  -18.8452   37.7927 C   0  0  0  0  0  0  0  0  0  0  0  0
   35.7922  -17.9601   36.6648 C   0  0  0  0  0  0  0  0  0  0  0  0
   36.3611  -16.7244   37.3128 C   0  0  0  0  0  0  0  0  0  0  0  0
   34.7058  -17.5542   35.7281 C   0  0  0  0  0  0  0  0  0  0  0  0
   44.4761  -23.3587   36.4242 H   0  0  0  0  0  0  0  0  0  0  0  0
   42.4867  -21.8501   32.4447 H   0  0  0  0  0  0  0  0  0  0  0  0
  2  1  1  0  0  0
  2  3  1  0  0  0
  3  4  1  0  0  0
  4  5  1  0  0  0
  5  6  1  0  0  0
  6  7  1  0  0  0
  7  8  1  0  0  0
  8  9  1  0  0  0
  9 10  2  0  0  0
 10 11  1  0  0  0
 11 12  1  0  0  0
 11 13  2  0  0  0
 13 14  1  0  0  0
 13 15  1  0  0  0
 15 16  2  0  0  0
  6 17  1  0  0  0
 17 18  1  0  0  0
 18 19  1  0  0  0
 19 20  1  0  0  0
 20 21  1  0  0  0
 20 22  1  0  0  0
 17  2  1  0  0  0
 20  2  1  0  0  0
 16  5  1  0  0  0
 16  9  1  0  0  0
 12 23  1  0  0  0
 14 24  1  0  0  0
M  END
> <minimizedAffinity>
-4.69396

> <CNNscore>
0.3992597163

> <CNNaffinity>
4.6122875214

> <CNN_VS>
1.8415006399

> <CNNaffinity_variance>
0.1073891521

$$$$
[H]OC(=O)C([H])([H])[C@@]([H])(C(=O)N([H])[C@]([H])(C(=O)N([H])[C@]([H])(C(=O)O[H])C([H])([H])O[H])C([H])(C([H])([H])[H])C([H])([H])[H])N([H])C(=O)[C@@]([H])(N([H])C(=O)[C@@]([H])(N([H])C(=O)[C@@]([H])(N([H])C(=O)C([H])([H])[H])C([H])([H])O[H])C([H])(C([H])([H])[H])C([H])([H])[H])C([H])(C([H])([H])[H])C([H])([H])[H]


 55 54  0  0  0  0  0  0  0  0999 V2000
   33.4150  -12.2817   37.3634 C   0  0  0  0  0  0  0  0  0  0  0  0
   33.6040  -12.9926   38.4159 O   0  0  0  0  0  0  0  0  0  0  0  0
   34.2331  -12.6221   36.2613 N   0  0  0  0  0  0  0  0  0  0  0  0
   34.1974  -12.1484   35.3379 H   0  0  0  0  0  0  0  0  0  0  0  0
   35.2158  -13.7092   36.3508 C   0  0  0  0  0  0  0  0  0  0  0  0
   34.5804  -15.0167   36.0741 C   0  0  0  0  0  0  0  0  0  0  0  0
   33.3651  -15.1449   35.7653 O   0  0  0  0  0  0  0  0  0  0  0  0
   35.3608  -16.1771   36.1585 N   0  0  0  0  0  0  0  0  0  0  0  0
   36.3715  -16.1855   36.4053 H   0  0  0  0  0  0  0  0  0  0  0  0
   34.7895  -17.5287   35.8929 C   0  0  0  0  0  0  0  0  0  0  0  0
   35.3095  -18.4737   36.8926 C   0  0  0  0  0  0  0  0  0  0  0  0
   36.3401  -18.1302   37.5635 O   0  0  0  0  0  0  0  0  0  0  0  0
   34.7369  -19.7291   37.1547 N   0  0  0  0  0  0  0  0  0  0  0  0
   33.8941  -20.0438   36.6352 H   0  0  0  0  0  0  0  0  0  0  0  0
   35.3019  -20.6095   38.1666 C   0  0  0  0  0  0  0  0  0  0  0  0
   35.9695  -21.7490   37.5193 C   0  0  0  0  0  0  0  0  0  0  0  0
   35.2366  -22.7031   36.8239 O   0  0  0  0  0  0  0  0  0  0  0  0
   37.2114  -21.9273   37.5522 O   0  0  0  0  0  0  0  0  0  0  0  0
   35.3956  -22.9316   35.8629 H   0  0  0  0  0  0  0  0  0  0  0  0
   34.2413  -21.1104   39.1290 C   0  0  0  0  0  0  0  0  0  0  0  0
   33.0210  -21.3069   38.4784 O   0  0  0  0  0  0  0  0  0  0  0  0
   32.6039  -20.4671   38.2117 H   0  0  0  0  0  0  0  0  0  0  0  0
   35.1390  -17.8260   34.4710 C   0  0  0  0  0  0  0  0  0  0  0  0
   34.5440  -19.0663   33.8977 C   0  0  0  0  0  0  0  0  0  0  0  0
   36.6441  -17.7792   34.2936 C   0  0  0  0  0  0  0  0  0  0  0  0
   35.9418  -13.7294   37.6594 C   0  0  0  0  0  0  0  0  0  0  0  0
   37.3773  -14.0060   37.5521 C   0  0  0  0  0  0  0  0  0  0  0  0
   37.7425  -15.3447   37.3656 O   0  0  0  0  0  0  0  0  0  0  0  0
   38.2676  -13.1493   37.6147 O   0  0  0  0  0  0  0  0  0  0  0  0
   38.4542  -15.5406   36.6618 H   0  0  0  0  0  0  0  0  0  0  0  0
   32.4161  -11.2047   37.3370 C   0  0  0  0  0  0  0  0  0  0  0  0
   30.0087  -11.4616   38.1180 C   0  0  0  0  0  0  0  0  0  0  0  0
   29.7107  -11.0894   36.9119 O   0  0  0  0  0  0  0  0  0  0  0  0
   31.3830  -11.5317   38.3619 N   0  0  0  0  0  0  0  0  0  0  0  0
   31.7562  -11.8031   39.2753 H   0  0  0  0  0  0  0  0  0  0  0  0
   28.9342  -11.7576   39.0777 C   0  0  0  0  0  0  0  0  0  0  0  0
   28.5868  -14.0298   40.1019 C   0  0  0  0  0  0  0  0  0  0  0  0
   27.4435  -14.0164   39.4939 O   0  0  0  0  0  0  0  0  0  0  0  0
   29.3820  -12.9214   39.9230 N   0  0  0  0  0  0  0  0  0  0  0  0
   30.3197  -12.8492   40.3617 H   0  0  0  0  0  0  0  0  0  0  0  0
   28.8487  -15.2326   40.8853 C   0  0  0  0  0  0  0  0  0  0  0  0
   28.9807  -14.0879   44.5923 C   0  0  0  0  0  0  0  0  0  0  0  0
   29.3784  -14.2803   43.1841 C   0  0  0  0  0  0  0  0  0  0  0  0
   30.4647  -13.8093   42.7883 O   0  0  0  0  0  0  0  0  0  0  0  0
   28.5389  -14.9868   42.3040 N   0  0  0  0  0  0  0  0  0  0  0  0
   27.6428  -15.3695   42.6471 H   0  0  0  0  0  0  0  0  0  0  0  0
   28.1381  -16.4509   40.4139 C   0  0  0  0  0  0  0  0  0  0  0  0
   28.0839  -16.5813   39.0364 O   0  0  0  0  0  0  0  0  0  0  0  0
   27.3597  -17.1921   38.8025 H   0  0  0  0  0  0  0  0  0  0  0  0
   28.5313  -10.6555   39.9775 C   0  0  0  0  0  0  0  0  0  0  0  0
   27.0925  -10.6995   40.3984 C   0  0  0  0  0  0  0  0  0  0  0  0
   28.7623   -9.2807   39.3759 C   0  0  0  0  0  0  0  0  0  0  0  0
   32.9760   -9.8363   37.6717 C   0  0  0  0  0  0  0  0  0  0  0  0
   34.3723   -9.6591   37.1378 C   0  0  0  0  0  0  0  0  0  0  0  0
   32.0174   -8.7555   37.3085 C   0  0  0  0  0  0  0  0  0  0  0  0
 42 43  1  0  0  0
 43 44  2  0  0  0
 43 45  1  0  0  0
 45 41  1  0  0  0
 41 47  1  0  0  0
 47 48  1  0  0  0
 41 37  1  0  0  0
 37 38  2  0  0  0
 37 39  1  0  0  0
 39 36  1  0  0  0
 36 50  1  0  0  0
 50 51  1  0  0  0
 50 52  1  0  0  0
 36 32  1  0  0  0
 32 33  2  0  0  0
 32 34  1  0  0  0
 34 31  1  0  0  0
 31 53  1  0  0  0
 53 54  1  0  0  0
 53 55  1  0  0  0
 31  1  1  0  0  0
  1  2  2  0  0  0
  1  3  1  0  0  0
  3  5  1  0  0  0
  5 26  1  0  0  0
 26 27  1  0  0  0
 27 28  1  0  0  0
 27 29  2  0  0  0
  5  6  1  0  0  0
  6  7  2  0  0  0
  6  8  1  0  0  0
  8 10  1  0  0  0
 10 23  1  0  0  0
 23 24  1  0  0  0
 23 25  1  0  0  0
 10 11  1  0  0  0
 11 12  2  0  0  0
 11 13  1  0  0  0
 13 15  1  0  0  0
 15 20  1  0  0  0
 20 21  1  0  0  0
 15 16  1  0  0  0
 16 17  1  0  0  0
 16 18  2  0  0  0
 45 46  1  0  0  0
 48 49  1  0  0  0
 39 40  1  0  0  0
 34 35  1  0  0  0
  3  4  1  0  0  0
 28 30  1  0  0  0
  8  9  1  0  0  0
 13 14  1  0  0  0
 21 22  1  0  0  0
 17 19  1  0  0  0
M  END
> <minimizedAffinity>
-8.27741

> <CNNscore>
0.4248831868

> <CNNaffinity>
6.7753129005

> <CNN_VS>
2.8787164688

> <CNNaffinity_variance>
0.0314819738

$$$$
[H]OC(=O)C([H])([H])[C@@]([H])(C(=O)N([H])[C@]([H])(C(=O)N([H])[C@]([H])(C(=O)O[H])C([H])([H])O[H])C([H])(C([H])([H])[H])C([H])([H])[H])N([H])C(=O)[C@@]([H])(N([H])C(=O)[C@@]([H])(N([H])C(=O)[C@@]([H])(N([H])C(=O)C([H])([H])[H])C([H])([H])O[H])C([H])(C([H])([H])[H])C([H])([H])[H])C([H])(C([H])([H])[H])C([H])([H])[H]


 55 54  0  0  0  0  0  0  0  0999 V2000
   31.5621  -11.6177   37.8121 C   0  0  0  0  0  0  0  0  0  0  0  0
   31.1339  -12.1156   36.7085 O   0  0  0  0  0  0  0  0  0  0  0  0
   30.7318  -11.8532   38.9322 N   0  0  0  0  0  0  0  0  0  0  0  0
   30.9406  -11.5239   39.8947 H   0  0  0  0  0  0  0  0  0  0  0  0
   29.4803  -12.6103   38.8054 C   0  0  0  0  0  0  0  0  0  0  0  0
   28.3471  -11.7067   38.5065 C   0  0  0  0  0  0  0  0  0  0  0  0
   28.0204  -11.3684   37.3371 O   0  0  0  0  0  0  0  0  0  0  0  0
   27.5936  -11.1950   39.5710 N   0  0  0  0  0  0  0  0  0  0  0  0
   27.7765  -11.4086   40.5727 H   0  0  0  0  0  0  0  0  0  0  0  0
   26.4379  -10.2798   39.3466 C   0  0  0  0  0  0  0  0  0  0  0  0
   26.6131   -9.0751   40.1718 C   0  0  0  0  0  0  0  0  0  0  0  0
   27.5526   -8.2678   39.8623 O   0  0  0  0  0  0  0  0  0  0  0  0
   25.8060   -8.7596   41.2770 N   0  0  0  0  0  0  0  0  0  0  0  0
   25.0271   -9.3869   41.5581 H   0  0  0  0  0  0  0  0  0  0  0  0
   26.0334   -7.5432   42.0431 C   0  0  0  0  0  0  0  0  0  0  0  0
   26.8512   -7.8457   43.2275 C   0  0  0  0  0  0  0  0  0  0  0  0
   28.1771   -8.2404   43.0960 O   0  0  0  0  0  0  0  0  0  0  0  0
   26.4154   -7.7678   44.4019 O   0  0  0  0  0  0  0  0  0  0  0  0
   28.9431   -7.7601   43.5243 H   0  0  0  0  0  0  0  0  0  0  0  0
   24.7283   -6.8961   42.4675 C   0  0  0  0  0  0  0  0  0  0  0  0
   24.9456   -5.6245   43.0031 O   0  0  0  0  0  0  0  0  0  0  0  0
   25.3905   -5.6587   43.8698 H   0  0  0  0  0  0  0  0  0  0  0  0
   25.2268  -11.1029   39.6435 C   0  0  0  0  0  0  0  0  0  0  0  0
   25.4553  -12.3324   40.4541 C   0  0  0  0  0  0  0  0  0  0  0  0
   24.4802  -11.3970   38.3570 C   0  0  0  0  0  0  0  0  0  0  0  0
   29.1909  -13.4588   40.0037 C   0  0  0  0  0  0  0  0  0  0  0  0
   29.7527  -12.9488   41.2578 C   0  0  0  0  0  0  0  0  0  0  0  0
   28.9001  -12.1751   42.0543 O   0  0  0  0  0  0  0  0  0  0  0  0
   30.9083  -13.1546   41.6485 O   0  0  0  0  0  0  0  0  0  0  0  0
   28.8918  -12.3701   43.0554 H   0  0  0  0  0  0  0  0  0  0  0  0
   32.8234  -10.8669   37.8740 C   0  0  0  0  0  0  0  0  0  0  0  0
   34.0891  -13.0732   37.9201 C   0  0  0  0  0  0  0  0  0  0  0  0
   33.2206  -13.4074   38.8235 O   0  0  0  0  0  0  0  0  0  0  0  0
   33.9083  -11.7823   37.4160 N   0  0  0  0  0  0  0  0  0  0  0  0
   34.5294  -11.3886   36.7045 H   0  0  0  0  0  0  0  0  0  0  0  0
   35.1377  -14.0265   37.5268 C   0  0  0  0  0  0  0  0  0  0  0  0
   34.9221  -16.2491   36.3666 C   0  0  0  0  0  0  0  0  0  0  0  0
   35.7647  -16.6777   37.2519 O   0  0  0  0  0  0  0  0  0  0  0  0
   34.5653  -14.9237   36.4605 N   0  0  0  0  0  0  0  0  0  0  0  0
   33.8870  -14.4959   35.8019 H   0  0  0  0  0  0  0  0  0  0  0  0
   34.4826  -17.2537   35.4041 C   0  0  0  0  0  0  0  0  0  0  0  0
   37.4436  -19.5811   34.4631 C   0  0  0  0  0  0  0  0  0  0  0  0
   36.5227  -18.4280   34.4392 C   0  0  0  0  0  0  0  0  0  0  0  0
   36.7054  -17.5199   33.6022 O   0  0  0  0  0  0  0  0  0  0  0  0
   35.4540  -18.3594   35.3512 N   0  0  0  0  0  0  0  0  0  0  0  0
   35.3171  -19.1188   36.0382 H   0  0  0  0  0  0  0  0  0  0  0  0
   33.1158  -17.7894   35.6419 C   0  0  0  0  0  0  0  0  0  0  0  0
   32.3250  -17.8559   34.5072 O   0  0  0  0  0  0  0  0  0  0  0  0
   31.3875  -17.9012   34.7745 H   0  0  0  0  0  0  0  0  0  0  0  0
   36.4000  -13.4466   37.0199 C   0  0  0  0  0  0  0  0  0  0  0  0
   36.6605  -13.7141   35.5674 C   0  0  0  0  0  0  0  0  0  0  0  0
   37.6245  -13.9339   37.7739 C   0  0  0  0  0  0  0  0  0  0  0  0
   32.8544   -9.6394   36.9850 C   0  0  0  0  0  0  0  0  0  0  0  0
   31.7711   -8.6597   37.3488 C   0  0  0  0  0  0  0  0  0  0  0  0
   34.2263   -9.0649   36.9030 C   0  0  0  0  0  0  0  0  0  0  0  0
 42 43  1  0  0  0
 43 44  2  0  0  0
 43 45  1  0  0  0
 45 41  1  0  0  0
 41 47  1  0  0  0
 47 48  1  0  0  0
 41 37  1  0  0  0
 37 38  2  0  0  0
 37 39  1  0  0  0
 39 36  1  0  0  0
 36 50  1  0  0  0
 50 51  1  0  0  0
 50 52  1  0  0  0
 36 32  1  0  0  0
 32 33  2  0  0  0
 32 34  1  0  0  0
 34 31  1  0  0  0
 31 53  1  0  0  0
 53 54  1  0  0  0
 53 55  1  0  0  0
 31  1  1  0  0  0
  1  2  2  0  0  0
  1  3  1  0  0  0
  3  5  1  0  0  0
  5 26  1  0  0  0
 26 27  1  0  0  0
 27 28  1  0  0  0
 27 29  2  0  0  0
  5  6  1  0  0  0
  6  7  2  0  0  0
  6  8  1  0  0  0
  8 10  1  0  0  0
 10 23  1  0  0  0
 23 24  1  0  0  0
 23 25  1  0  0  0
 10 11  1  0  0  0
 11 12  2  0  0  0
 11 13  1  0  0  0
 13 15  1  0  0  0
 15 20  1  0  0  0
 20 21  1  0  0  0
 15 16  1  0  0  0
 16 17  1  0  0  0
 16 18  2  0  0  0
 45 46  1  0  0  0
 48 49  1  0  0  0
 39 40  1  0  0  0
 34 35  1  0  0  0
  3  4  1  0  0  0
 28 30  1  0  0  0
  8  9  1  0  0  0
 13 14  1  0  0  0
 21 22  1  0  0  0
 17 19  1  0  0  0
M  END
> <minimizedAffinity>
-8.05013

> <CNNscore>
0.3997033536

> <CNNaffinity>
6.7606077194

> <CNN_VS>
2.7022376060

> <CNNaffinity_variance>
0.1191568524

$$$$
[H]OC(=O)C([H])([H])[C@@]([H])(C(=O)N([H])[C@]([H])(C(=O)N([H])[C@]([H])(C(=O)O[H])C([H])([H])O[H])C([H])(C([H])([H])[H])C([H])([H])[H])N([H])C(=O)[C@@]([H])(N([H])C(=O)[C@@]([H])(N([H])C(=O)[C@@]([H])(N([H])C(=O)C([H])([H])[H])C([H])([H])O[H])C([H])(C([H])([H])[H])C([H])([H])[H])C([H])(C([H])([H])[H])C([H])([H])[H]


 55 54  0  0  0  0  0  0  0  0999 V2000
   34.0913  -14.3096   37.4055 C   0  0  0  0  0  0  0  0  0  0  0  0
   33.2821  -14.6581   36.4714 O   0  0  0  0  0  0  0  0  0  0  0  0
   33.4954  -13.6024   38.4752 N   0  0  0  0  0  0  0  0  0  0  0  0
   34.0110  -13.2582   39.3083 H   0  0  0  0  0  0  0  0  0  0  0  0
   32.0579  -13.3036   38.4821 C   0  0  0  0  0  0  0  0  0  0  0  0
   31.7401  -12.2266   37.5182 C   0  0  0  0  0  0  0  0  0  0  0  0
   31.5229  -12.4341   36.2941 O   0  0  0  0  0  0  0  0  0  0  0  0
   31.6765  -10.9055   37.9801 N   0  0  0  0  0  0  0  0  0  0  0  0
   31.8389  -10.6229   38.9681 H   0  0  0  0  0  0  0  0  0  0  0  0
   31.3613   -9.7689   37.0675 C   0  0  0  0  0  0  0  0  0  0  0  0
   32.5420   -8.8988   36.9602 C   0  0  0  0  0  0  0  0  0  0  0  0
   33.3690   -8.8874   37.9329 O   0  0  0  0  0  0  0  0  0  0  0  0
   32.8146   -8.0832   35.8498 N   0  0  0  0  0  0  0  0  0  0  0  0
   32.1702   -8.0680   35.0350 H   0  0  0  0  0  0  0  0  0  0  0  0
   34.0094   -7.2531   35.8098 C   0  0  0  0  0  0  0  0  0  0  0  0
   33.9868   -6.4043   34.6090 C   0  0  0  0  0  0  0  0  0  0  0  0
   34.5519   -6.8409   33.4170 O   0  0  0  0  0  0  0  0  0  0  0  0
   33.4684   -5.2615   34.5847 O   0  0  0  0  0  0  0  0  0  0  0  0
   34.0465   -6.9078   32.5561 H   0  0  0  0  0  0  0  0  0  0  0  0
   35.2744   -8.0907   35.8271 C   0  0  0  0  0  0  0  0  0  0  0  0
   35.1865   -9.1573   34.9296 O   0  0  0  0  0  0  0  0  0  0  0  0
   34.5484   -9.8345   35.2204 H   0  0  0  0  0  0  0  0  0  0  0  0
   30.1357   -9.1369   37.6427 C   0  0  0  0  0  0  0  0  0  0  0  0
   30.3655   -8.0130   38.5941 C   0  0  0  0  0  0  0  0  0  0  0  0
   29.2353  -10.2069   38.2286 C   0  0  0  0  0  0  0  0  0  0  0  0
   31.5396  -12.9750   39.8471 C   0  0  0  0  0  0  0  0  0  0  0  0
   30.1681  -13.4261   40.0997 C   0  0  0  0  0  0  0  0  0  0  0  0
   29.8572  -14.7316   39.7005 O   0  0  0  0  0  0  0  0  0  0  0  0
   29.2866  -12.7407   40.6322 O   0  0  0  0  0  0  0  0  0  0  0  0
   29.3276  -15.3064   40.3558 H   0  0  0  0  0  0  0  0  0  0  0  0
   35.5220  -14.6370   37.3396 C   0  0  0  0  0  0  0  0  0  0  0  0
   35.9402  -16.8378   36.1342 C   0  0  0  0  0  0  0  0  0  0  0  0
   35.9249  -17.3482   37.3265 O   0  0  0  0  0  0  0  0  0  0  0  0
   35.7344  -15.4557   36.1112 N   0  0  0  0  0  0  0  0  0  0  0  0
   35.7317  -14.9248   35.2364 H   0  0  0  0  0  0  0  0  0  0  0  0
   36.1659  -17.7078   34.9700 C   0  0  0  0  0  0  0  0  0  0  0  0
   38.3910  -18.7764   34.4806 C   0  0  0  0  0  0  0  0  0  0  0  0
   38.3891  -18.0496   33.4087 O   0  0  0  0  0  0  0  0  0  0  0  0
   37.2997  -18.6405   35.3074 N   0  0  0  0  0  0  0  0  0  0  0  0
   37.2205  -19.1738   36.1942 H   0  0  0  0  0  0  0  0  0  0  0  0
   39.5642  -19.6292   34.6391 C   0  0  0  0  0  0  0  0  0  0  0  0
   42.9093  -17.6597   34.6685 C   0  0  0  0  0  0  0  0  0  0  0  0
   41.7844  -18.4775   34.1744 C   0  0  0  0  0  0  0  0  0  0  0  0
   41.7860  -18.8608   32.9863 O   0  0  0  0  0  0  0  0  0  0  0  0
   40.7267  -18.8173   35.0371 N   0  0  0  0  0  0  0  0  0  0  0  0
   40.7401  -18.4915   36.0174 H   0  0  0  0  0  0  0  0  0  0  0  0
   39.3881  -20.7626   35.5857 C   0  0  0  0  0  0  0  0  0  0  0  0
   38.2338  -21.5000   35.3825 O   0  0  0  0  0  0  0  0  0  0  0  0
   38.0248  -21.9953   36.1969 H   0  0  0  0  0  0  0  0  0  0  0  0
   35.0140  -18.5181   34.5189 C   0  0  0  0  0  0  0  0  0  0  0  0
   33.7169  -17.7673   34.4655 C   0  0  0  0  0  0  0  0  0  0  0  0
   34.7691  -19.7399   35.3865 C   0  0  0  0  0  0  0  0  0  0  0  0
   36.4280  -13.4252   37.2445 C   0  0  0  0  0  0  0  0  0  0  0  0
   37.8772  -13.7980   37.4076 C   0  0  0  0  0  0  0  0  0  0  0  0
   36.1160  -12.6095   36.0378 C   0  0  0  0  0  0  0  0  0  0  0  0
 42 43  1  0  0  0
 43 44  2  0  0  0
 43 45  1  0  0  0
 45 41  1  0  0  0
 41 47  1  0  0  0
 47 48  1  0  0  0
 41 37  1  0  0  0
 37 38  2  0  0  0
 37 39  1  0  0  0
 39 36  1  0  0  0
 36 50  1  0  0  0
 50 51  1  0  0  0
 50 52  1  0  0  0
 36 32  1  0  0  0
 32 33  2  0  0  0
 32 34  1  0  0  0
 34 31  1  0  0  0
 31 53  1  0  0  0
 53 54  1  0  0  0
 53 55  1  0  0  0
 31  1  1  0  0  0
  1  2  2  0  0  0
  1  3  1  0  0  0
  3  5  1  0  0  0
  5 26  1  0  0  0
 26 27  1  0  0  0
 27 28  1  0  0  0
 27 29  2  0  0  0
  5  6  1  0  0  0
  6  7  2  0  0  0
  6  8  1  0  0  0
  8 10  1  0  0  0
 10 23  1  0  0  0
 23 24  1  0  0  0
 23 25  1  0  0  0
 10 11  1  0  0  0
 11 12  2  0  0  0
 11 13  1  0  0  0
 13 15  1  0  0  0
 15 20  1  0  0  0
 20 21  1  0  0  0
 15 16  1  0  0  0
 16 17  1  0  0  0
 16 18  2  0  0  0
 45 46  1  0  0  0
 48 49  1  0  0  0
 39 40  1  0  0  0
 34 35  1  0  0  0
  3  4  1  0  0  0
 28 30  1  0  0  0
  8  9  1  0  0  0
 13 14  1  0  0  0
 21 22  1  0  0  0
 17 19  1  0  0  0
M  END
> <minimizedAffinity>
-7.01220

> <CNNscore>
0.3515365124

> <CNNaffinity>
6.8839402199

> <CNN_VS>
2.4199564457

> <CNNaffinity_variance>
0.0536799058

$$$$
[H]OC(=O)C([H])([H])[C@@]([H])(C(=O)N([H])[C@]([H])(C(=O)N([H])[C@]([H])(C(=O)O[H])C([H])([H])O[H])C([H])(C([H])([H])[H])C([H])([H])[H])N([H])C(=O)[C@@]([H])(N([H])C(=O)[C@@]([H])(N([H])C(=O)[C@@]([H])(N([H])C(=O)C([H])([H])[H])C([H])([H])O[H])C([H])(C([H])([H])[H])C([H])([H])[H])C([H])(C([H])([H])[H])C([H])([H])[H]


 55 54  0  0  0  0  0  0  0  0999 V2000
   33.5228  -12.4469   37.1697 C   0  0  0  0  0  0  0  0  0  0  0  0
   34.6947  -11.9220   37.1642 O   0  0  0  0  0  0  0  0  0  0  0  0
   33.4874  -13.8257   36.8580 N   0  0  0  0  0  0  0  0  0  0  0  0
   32.6205  -14.3965   36.8277 H   0  0  0  0  0  0  0  0  0  0  0  0
   34.7167  -14.5681   36.5527 C   0  0  0  0  0  0  0  0  0  0  0  0
   34.4233  -15.7454   35.7055 C   0  0  0  0  0  0  0  0  0  0  0  0
   33.3791  -15.8543   35.0081 O   0  0  0  0  0  0  0  0  0  0  0  0
   35.3467  -16.7985   35.6712 N   0  0  0  0  0  0  0  0  0  0  0  0
   36.2384  -16.8120   36.2071 H   0  0  0  0  0  0  0  0  0  0  0  0
   35.1190  -18.0159   34.8406 C   0  0  0  0  0  0  0  0  0  0  0  0
   33.9495  -18.7396   35.3615 C   0  0  0  0  0  0  0  0  0  0  0  0
   33.9445  -19.0605   36.5973 O   0  0  0  0  0  0  0  0  0  0  0  0
   32.8376  -19.0948   34.5806 N   0  0  0  0  0  0  0  0  0  0  0  0
   32.7997  -18.8469   33.5724 H   0  0  0  0  0  0  0  0  0  0  0  0
   31.7105  -19.8045   35.1674 C   0  0  0  0  0  0  0  0  0  0  0  0
   31.7840  -21.2314   34.8191 C   0  0  0  0  0  0  0  0  0  0  0  0
   32.6807  -21.6855   33.8595 O   0  0  0  0  0  0  0  0  0  0  0  0
   31.0609  -22.1074   35.3530 O   0  0  0  0  0  0  0  0  0  0  0  0
   33.3734  -22.3856   34.0359 H   0  0  0  0  0  0  0  0  0  0  0  0
   30.3845  -19.2277   34.7079 C   0  0  0  0  0  0  0  0  0  0  0  0
   29.8079  -18.4329   35.7012 O   0  0  0  0  0  0  0  0  0  0  0  0
   29.4936  -18.9582   36.4599 H   0  0  0  0  0  0  0  0  0  0  0  0
   36.4148  -18.7590   34.8765 C   0  0  0  0  0  0  0  0  0  0  0  0
   37.0084  -18.9721   36.2268 C   0  0  0  0  0  0  0  0  0  0  0  0
   37.3974  -18.1204   33.9144 C   0  0  0  0  0  0  0  0  0  0  0  0
   35.4762  -14.9636   37.7801 C   0  0  0  0  0  0  0  0  0  0  0  0
   36.9212  -14.7309   37.7003 C   0  0  0  0  0  0  0  0  0  0  0  0
   37.6826  -15.7370   37.0934 O   0  0  0  0  0  0  0  0  0  0  0  0
   37.4981  -13.7229   38.1262 O   0  0  0  0  0  0  0  0  0  0  0  0
   38.3953  -15.4441   36.4252 H   0  0  0  0  0  0  0  0  0  0  0  0
   32.3290  -11.6493   37.4817 C   0  0  0  0  0  0  0  0  0  0  0  0
   30.3121  -12.4798   38.7908 C   0  0  0  0  0  0  0  0  0  0  0  0
   29.6396  -12.1078   37.7461 O   0  0  0  0  0  0  0  0  0  0  0  0
   31.6880  -12.2598   38.6820 N   0  0  0  0  0  0  0  0  0  0  0  0
   32.3345  -12.4988   39.4383 H   0  0  0  0  0  0  0  0  0  0  0  0
   29.6086  -13.0653   39.9421 C   0  0  0  0  0  0  0  0  0  0  0  0
   28.3744  -11.7597   41.7041 C   0  0  0  0  0  0  0  0  0  0  0  0
   29.1763  -12.3322   42.5446 O   0  0  0  0  0  0  0  0  0  0  0  0
   28.5504  -12.0862   40.3793 N   0  0  0  0  0  0  0  0  0  0  0  0
   27.9621  -11.6674   39.6339 H   0  0  0  0  0  0  0  0  0  0  0  0
   27.4051  -10.8502   42.3061 C   0  0  0  0  0  0  0  0  0  0  0  0
   25.0912   -9.5620   39.4677 C   0  0  0  0  0  0  0  0  0  0  0  0
   26.2763   -9.7025   40.3362 C   0  0  0  0  0  0  0  0  0  0  0  0
   27.2741   -8.9823   40.1261 O   0  0  0  0  0  0  0  0  0  0  0  0
   26.2746  -10.6385   41.3862 N   0  0  0  0  0  0  0  0  0  0  0  0
   25.4412  -11.2275   41.5463 H   0  0  0  0  0  0  0  0  0  0  0  0
   26.9020  -11.2696   43.6412 C   0  0  0  0  0  0  0  0  0  0  0  0
   26.3414  -12.5354   43.6666 O   0  0  0  0  0  0  0  0  0  0  0  0
   25.7656  -12.6131   44.4506 H   0  0  0  0  0  0  0  0  0  0  0  0
   28.9666  -14.3794   39.7242 C   0  0  0  0  0  0  0  0  0  0  0  0
   27.4752  -14.3190   39.5783 C   0  0  0  0  0  0  0  0  0  0  0  0
   29.2506  -15.3730   40.8367 C   0  0  0  0  0  0  0  0  0  0  0  0
   32.6248  -10.1989   37.8085 C   0  0  0  0  0  0  0  0  0  0  0  0
   33.9459   -9.7568   37.2383 C   0  0  0  0  0  0  0  0  0  0  0  0
   31.4670   -9.3223   37.4770 C   0  0  0  0  0  0  0  0  0  0  0  0
 42 43  1  0  0  0
 43 44  2  0  0  0
 43 45  1  0  0  0
 45 41  1  0  0  0
 41 47  1  0  0  0
 47 48  1  0  0  0
 41 37  1  0  0  0
 37 38  2  0  0  0
 37 39  1  0  0  0
 39 36  1  0  0  0
 36 50  1  0  0  0
 50 51  1  0  0  0
 50 52  1  0  0  0
 36 32  1  0  0  0
 32 33  2  0  0  0
 32 34  1  0  0  0
 34 31  1  0  0  0
 31 53  1  0  0  0
 53 54  1  0  0  0
 53 55  1  0  0  0
 31  1  1  0  0  0
  1  2  2  0  0  0
  1  3  1  0  0  0
  3  5  1  0  0  0
  5 26  1  0  0  0
 26 27  1  0  0  0
 27 28  1  0  0  0
 27 29  2  0  0  0
  5  6  1  0  0  0
  6  7  2  0  0  0
  6  8  1  0  0  0
  8 10  1  0  0  0
 10 23  1  0  0  0
 23 24  1  0  0  0
 23 25  1  0  0  0
 10 11  1  0  0  0
 11 12  2  0  0  0
 11 13  1  0  0  0
 13 15  1  0  0  0
 15 20  1  0  0  0
 20 21  1  0  0  0
 15 16  1  0  0  0
 16 17  1  0  0  0
 16 18  2  0  0  0
 45 46  1  0  0  0
 48 49  1  0  0  0
 39 40  1  0  0  0
 34 35  1  0  0  0
  3  4  1  0  0  0
 28 30  1  0  0  0
  8  9  1  0  0  0
 13 14  1  0  0  0
 21 22  1  0  0  0
 17 19  1  0  0  0
M  END
> <minimizedAffinity>
-7.60791

> <CNNscore>
0.3342705071

> <CNNaffinity>
6.5710630417

> <CNN_VS>
2.1965124607

> <CNNaffinity_variance>
0.0236882549

$$$$
[H]OC(=O)C([H])([H])[C@@]([H])(C(=O)N([H])[C@]([H])(C(=O)N([H])[C@]([H])(C(=O)O[H])C([H])([H])O[H])C([H])(C([H])([H])[H])C([H])([H])[H])N([H])C(=O)[C@@]([H])(N([H])C(=O)[C@@]([H])(N([H])C(=O)[C@@]([H])(N([H])C(=O)C([H])([H])[H])C([H])([H])O[H])C([H])(C([H])([H])[H])C([H])([H])[H])C([H])(C([H])([H])[H])C([H])([H])[H]


 55 54  0  0  0  0  0  0  0  0999 V2000
   34.6882  -15.2450   36.0293 C   0  0  0  0  0  0  0  0  0  0  0  0
   33.4934  -15.3667   36.4839 O   0  0  0  0  0  0  0  0  0  0  0  0
   35.2251  -16.4168   35.4477 N   0  0  0  0  0  0  0  0  0  0  0  0
   36.1735  -16.4806   35.0295 H   0  0  0  0  0  0  0  0  0  0  0  0
   34.4483  -17.6612   35.3888 C   0  0  0  0  0  0  0  0  0  0  0  0
   35.3439  -18.8379   35.3322 C   0  0  0  0  0  0  0  0  0  0  0  0
   35.6183  -19.4492   34.2647 O   0  0  0  0  0  0  0  0  0  0  0  0
   35.9198  -19.3048   36.5210 N   0  0  0  0  0  0  0  0  0  0  0  0
   35.7607  -18.8762   37.4556 H   0  0  0  0  0  0  0  0  0  0  0  0
   36.8321  -20.4843   36.5414 C   0  0  0  0  0  0  0  0  0  0  0  0
   36.5124  -21.3174   37.7103 C   0  0  0  0  0  0  0  0  0  0  0  0
   36.4070  -22.5780   37.5375 O   0  0  0  0  0  0  0  0  0  0  0  0
   36.3201  -20.8081   39.0050 N   0  0  0  0  0  0  0  0  0  0  0  0
   36.4031  -19.7891   39.1892 H   0  0  0  0  0  0  0  0  0  0  0  0
   36.0141  -21.6954   40.1173 C   0  0  0  0  0  0  0  0  0  0  0  0
   34.7060  -21.3438   40.6903 C   0  0  0  0  0  0  0  0  0  0  0  0
   33.9413  -22.2938   41.3564 O   0  0  0  0  0  0  0  0  0  0  0  0
   34.2103  -20.1931   40.6167 O   0  0  0  0  0  0  0  0  0  0  0  0
   33.6273  -22.1892   42.3006 H   0  0  0  0  0  0  0  0  0  0  0  0
   37.0827  -21.6349   41.1927 C   0  0  0  0  0  0  0  0  0  0  0  0
   36.8859  -22.6262   42.1569 O   0  0  0  0  0  0  0  0  0  0  0  0
   36.1009  -22.4553   42.7090 H   0  0  0  0  0  0  0  0  0  0  0  0
   38.2110  -19.9098   36.5075 C   0  0  0  0  0  0  0  0  0  0  0  0
   38.3077  -18.4328   36.6808 C   0  0  0  0  0  0  0  0  0  0  0  0
   38.9339  -20.3881   35.2635 C   0  0  0  0  0  0  0  0  0  0  0  0
   33.4643  -17.6786   34.2614 C   0  0  0  0  0  0  0  0  0  0  0  0
   32.3220  -18.5738   34.4673 C   0  0  0  0  0  0  0  0  0  0  0  0
   31.5857  -18.3854   35.6432 O   0  0  0  0  0  0  0  0  0  0  0  0
   31.9748  -19.4663   33.6842 O   0  0  0  0  0  0  0  0  0  0  0  0
   30.5690  -18.3924   35.5635 H   0  0  0  0  0  0  0  0  0  0  0  0
   35.4151  -13.9715   36.1201 C   0  0  0  0  0  0  0  0  0  0  0  0
   33.7082  -12.4773   37.2714 C   0  0  0  0  0  0  0  0  0  0  0  0
   34.0353  -13.1395   38.3375 O   0  0  0  0  0  0  0  0  0  0  0  0
   34.3993  -12.8794   36.1251 N   0  0  0  0  0  0  0  0  0  0  0  0
   34.2310  -12.4463   35.2134 H   0  0  0  0  0  0  0  0  0  0  0  0
   32.6893  -11.4197   37.3522 C   0  0  0  0  0  0  0  0  0  0  0  0
   30.2963  -11.7628   38.0508 C   0  0  0  0  0  0  0  0  0  0  0  0
   29.9943  -11.2674   36.8929 O   0  0  0  0  0  0  0  0  0  0  0  0
   31.6385  -11.8692   38.3336 N   0  0  0  0  0  0  0  0  0  0  0  0
   31.9745  -12.2655   39.2319 H   0  0  0  0  0  0  0  0  0  0  0  0
   29.1508  -12.1329   38.8751 C   0  0  0  0  0  0  0  0  0  0  0  0
   30.0456  -13.5413   42.3802 C   0  0  0  0  0  0  0  0  0  0  0  0
   29.6166  -13.5013   40.9686 C   0  0  0  0  0  0  0  0  0  0  0  0
   29.3003  -14.5656   40.3979 O   0  0  0  0  0  0  0  0  0  0  0  0
   29.5670  -12.2754   40.2807 N   0  0  0  0  0  0  0  0  0  0  0  0
   29.8328  -11.4037   40.7672 H   0  0  0  0  0  0  0  0  0  0  0  0
   27.9895  -11.2087   38.7804 C   0  0  0  0  0  0  0  0  0  0  0  0
   27.0536  -11.5665   37.8247 O   0  0  0  0  0  0  0  0  0  0  0  0
   26.5152  -10.7849   37.5979 H   0  0  0  0  0  0  0  0  0  0  0  0
   33.1618  -10.0781   37.7568 C   0  0  0  0  0  0  0  0  0  0  0  0
   32.2112   -8.9658   37.4275 C   0  0  0  0  0  0  0  0  0  0  0  0
   34.4953   -9.7035   37.1347 C   0  0  0  0  0  0  0  0  0  0  0  0
   36.2496  -13.8263   37.3773 C   0  0  0  0  0  0  0  0  0  0  0  0
   36.5853  -15.1635   37.9815 C   0  0  0  0  0  0  0  0  0  0  0  0
   37.4125  -12.9226   37.1537 C   0  0  0  0  0  0  0  0  0  0  0  0
 42 43  1  0  0  0
 43 44  2  0  0  0
 43 45  1  0  0  0
 45 41  1  0  0  0
 41 47  1  0  0  0
 47 48  1  0  0  0
 41 37  1  0  0  0
 37 38  2  0  0  0
 37 39  1  0  0  0
 39 36  1  0  0  0
 36 50  1  0  0  0
 50 51  1  0  0  0
 50 52  1  0  0  0
 36 32  1  0  0  0
 32 33  2  0  0  0
 32 34  1  0  0  0
 34 31  1  0  0  0
 31 53  1  0  0  0
 53 54  1  0  0  0
 53 55  1  0  0  0
 31  1  1  0  0  0
  1  2  2  0  0  0
  1  3  1  0  0  0
  3  5  1  0  0  0
  5 26  1  0  0  0
 26 27  1  0  0  0
 27 28  1  0  0  0
 27 29  2  0  0  0
  5  6  1  0  0  0
  6  7  2  0  0  0
  6  8  1  0  0  0
  8 10  1  0  0  0
 10 23  1  0  0  0
 23 24  1  0  0  0
 23 25  1  0  0  0
 10 11  1  0  0  0
 11 12  2  0  0  0
 11 13  1  0  0  0
 13 15  1  0  0  0
 15 20  1  0  0  0
 20 21  1  0  0  0
 15 16  1  0  0  0
 16 17  1  0  0  0
 16 18  2  0  0  0
 45 46  1  0  0  0
 48 49  1  0  0  0
 39 40  1  0  0  0
 34 35  1  0  0  0
  3  4  1  0  0  0
 28 30  1  0  0  0
  8  9  1  0  0  0
 13 14  1  0  0  0
 21 22  1  0  0  0
 17 19  1  0  0  0
M  END
> <minimizedAffinity>
-7.43570

> <CNNscore>
0.3225155771

> <CNNaffinity>
6.6202645302

> <CNN_VS>
2.1351385117

> <CNNaffinity_variance>
0.0177915376

$$$$
[H]OC(=O)C([H])([H])[C@@]([H])(C(=O)N([H])[C@]([H])(C(=O)N([H])[C@]([H])(C(=O)O[H])C([H])([H])O[H])C([H])(C([H])([H])[H])C([H])([H])[H])N([H])C(=O)[C@@]([H])(N([H])C(=O)[C@@]([H])(N([H])C(=O)[C@@]([H])(N([H])C(=O)C([H])([H])[H])C([H])([H])O[H])C([H])(C([H])([H])[H])C([H])([H])[H])C([H])(C([H])([H])[H])C([H])([H])[H]


 55 54  0  0  0  0  0  0  0  0999 V2000
   34.8938  -15.2728   35.8780 C   0  0  0  0  0  0  0  0  0  0  0  0
   33.6138  -15.3688   35.9140 O   0  0  0  0  0  0  0  0  0  0  0  0
   35.5729  -16.4808   35.5968 N   0  0  0  0  0  0  0  0  0  0  0  0
   36.6052  -16.5687   35.5260 H   0  0  0  0  0  0  0  0  0  0  0  0
   34.8381  -17.7318   35.3721 C   0  0  0  0  0  0  0  0  0  0  0  0
   35.0803  -18.6892   36.4742 C   0  0  0  0  0  0  0  0  0  0  0  0
   35.4566  -18.3399   37.6253 O   0  0  0  0  0  0  0  0  0  0  0  0
   34.8854  -20.0558   36.2353 N   0  0  0  0  0  0  0  0  0  0  0  0
   34.5772  -20.4521   35.3240 H   0  0  0  0  0  0  0  0  0  0  0  0
   35.1092  -21.0784   37.2974 C   0  0  0  0  0  0  0  0  0  0  0  0
   36.5298  -21.4589   37.3046 C   0  0  0  0  0  0  0  0  0  0  0  0
   37.1127  -21.5790   38.4342 O   0  0  0  0  0  0  0  0  0  0  0  0
   37.2808  -21.7013   36.1427 N   0  0  0  0  0  0  0  0  0  0  0  0
   36.8424  -21.6205   35.2044 H   0  0  0  0  0  0  0  0  0  0  0  0
   38.6826  -22.0831   36.2273 C   0  0  0  0  0  0  0  0  0  0  0  0
   39.5240  -20.8787   36.2949 C   0  0  0  0  0  0  0  0  0  0  0  0
   40.0328  -20.4321   37.5086 O   0  0  0  0  0  0  0  0  0  0  0  0
   39.8290  -20.1958   35.2871 O   0  0  0  0  0  0  0  0  0  0  0  0
   41.0089  -20.3033   37.6863 H   0  0  0  0  0  0  0  0  0  0  0  0
   39.1018  -22.9411   35.0483 C   0  0  0  0  0  0  0  0  0  0  0  0
   38.7294  -22.3527   33.8375 O   0  0  0  0  0  0  0  0  0  0  0  0
   37.7642  -22.3639   33.7016 H   0  0  0  0  0  0  0  0  0  0  0  0
   34.1419  -22.1753   36.9910 C   0  0  0  0  0  0  0  0  0  0  0  0
   33.0071  -21.8140   36.0951 C   0  0  0  0  0  0  0  0  0  0  0  0
   33.6700  -22.8162   38.2815 C   0  0  0  0  0  0  0  0  0  0  0  0
   35.1398  -18.3519   34.0439 C   0  0  0  0  0  0  0  0  0  0  0  0
   36.5679  -18.5409   33.7733 C   0  0  0  0  0  0  0  0  0  0  0  0
   37.0469  -19.8548   33.8390 O   0  0  0  0  0  0  0  0  0  0  0  0
   37.3599  -17.6318   33.4962 O   0  0  0  0  0  0  0  0  0  0  0  0
   37.6711  -20.1620   33.0932 H   0  0  0  0  0  0  0  0  0  0  0  0
   35.5715  -13.9908   36.1138 C   0  0  0  0  0  0  0  0  0  0  0  0
   33.8328  -12.6592   37.4082 C   0  0  0  0  0  0  0  0  0  0  0  0
   34.2060  -13.3893   38.4132 O   0  0  0  0  0  0  0  0  0  0  0  0
   34.5153  -12.9432   36.2222 N   0  0  0  0  0  0  0  0  0  0  0  0
   34.3125  -12.4471   35.3505 H   0  0  0  0  0  0  0  0  0  0  0  0
   32.7764  -11.6520   37.5894 C   0  0  0  0  0  0  0  0  0  0  0  0
   30.6146  -12.2112   38.7497 C   0  0  0  0  0  0  0  0  0  0  0  0
   30.0651  -12.0342   37.5904 O   0  0  0  0  0  0  0  0  0  0  0  0
   31.9782  -12.0385   38.8072 N   0  0  0  0  0  0  0  0  0  0  0  0
   32.5056  -12.1712   39.6911 H   0  0  0  0  0  0  0  0  0  0  0  0
   29.6873  -12.5705   39.8174 C   0  0  0  0  0  0  0  0  0  0  0  0
   27.9299  -10.0078   42.1441 C   0  0  0  0  0  0  0  0  0  0  0  0
   28.5321  -11.2707   41.6742 C   0  0  0  0  0  0  0  0  0  0  0  0
   28.5575  -12.2555   42.4410 O   0  0  0  0  0  0  0  0  0  0  0  0
   29.0690  -11.3566   40.3769 N   0  0  0  0  0  0  0  0  0  0  0  0
   29.0408  -10.5321   39.7551 H   0  0  0  0  0  0  0  0  0  0  0  0
   28.6329  -13.5437   39.4265 C   0  0  0  0  0  0  0  0  0  0  0  0
   29.0162  -14.8703   39.5293 O   0  0  0  0  0  0  0  0  0  0  0  0
   28.4268  -15.4160   38.9751 H   0  0  0  0  0  0  0  0  0  0  0  0
   33.2213  -10.2508   37.7490 C   0  0  0  0  0  0  0  0  0  0  0  0
   32.1923   -9.2307   37.3623 C   0  0  0  0  0  0  0  0  0  0  0  0
   34.4703   -9.9276   36.9483 C   0  0  0  0  0  0  0  0  0  0  0  0
   36.3885  -13.9510   37.3901 C   0  0  0  0  0  0  0  0  0  0  0  0
   36.6085  -15.3289   37.9548 C   0  0  0  0  0  0  0  0  0  0  0  0
   37.6214  -13.1328   37.2184 C   0  0  0  0  0  0  0  0  0  0  0  0
 42 43  1  0  0  0
 43 44  2  0  0  0
 43 45  1  0  0  0
 45 41  1  0  0  0
 41 47  1  0  0  0
 47 48  1  0  0  0
 41 37  1  0  0  0
 37 38  2  0  0  0
 37 39  1  0  0  0
 39 36  1  0  0  0
 36 50  1  0  0  0
 50 51  1  0  0  0
 50 52  1  0  0  0
 36 32  1  0  0  0
 32 33  2  0  0  0
 32 34  1  0  0  0
 34 31  1  0  0  0
 31 53  1  0  0  0
 53 54  1  0  0  0
 53 55  1  0  0  0
 31  1  1  0  0  0
  1  2  2  0  0  0
  1  3  1  0  0  0
  3  5  1  0  0  0
  5 26  1  0  0  0
 26 27  1  0  0  0
 27 28  1  0  0  0
 27 29  2  0  0  0
  5  6  1  0  0  0
  6  7  2  0  0  0
  6  8  1  0  0  0
  8 10  1  0  0  0
 10 23  1  0  0  0
 23 24  1  0  0  0
 23 25  1  0  0  0
 10 11  1  0  0  0
 11 12  2  0  0  0
 11 13  1  0  0  0
 13 15  1  0  0  0
 15 20  1  0  0  0
 20 21  1  0  0  0
 15 16  1  0  0  0
 16 17  1  0  0  0
 16 18  2  0  0  0
 45 46  1  0  0  0
 48 49  1  0  0  0
 39 40  1  0  0  0
 34 35  1  0  0  0
  3  4  1  0  0  0
 28 30  1  0  0  0
  8  9  1  0  0  0
 13 14  1  0  0  0
 21 22  1  0  0  0
 17 19  1  0  0  0
M  END
> <minimizedAffinity>
-7.57954

> <CNNscore>
0.2900884151

> <CNNaffinity>
6.6457643509

> <CNN_VS>
1.9278593063

> <CNNaffinity_variance>
0.2163107842

$$$$
[H]OC(=O)C([H])([H])[C@@]([H])(C(=O)N([H])[C@]([H])(C(=O)N([H])[C@]([H])(C(=O)O[H])C([H])([H])O[H])C([H])(C([H])([H])[H])C([H])([H])[H])N([H])C(=O)[C@@]([H])(N([H])C(=O)[C@@]([H])(N([H])C(=O)[C@@]([H])(N([H])C(=O)C([H])([H])[H])C([H])([H])O[H])C([H])(C([H])([H])[H])C([H])([H])[H])C([H])(C([H])([H])[H])C([H])([H])[H]


 55 54  0  0  0  0  0  0  0  0999 V2000
   35.2607  -16.4092   36.5782 C   0  0  0  0  0  0  0  0  0  0  0  0
   36.2951  -16.5127   37.3320 O   0  0  0  0  0  0  0  0  0  0  0  0
   34.6441  -15.1367   36.5863 N   0  0  0  0  0  0  0  0  0  0  0  0
   33.8049  -14.8897   36.0268 H   0  0  0  0  0  0  0  0  0  0  0  0
   35.1717  -14.0413   37.4093 C   0  0  0  0  0  0  0  0  0  0  0  0
   34.0766  -13.1685   37.8878 C   0  0  0  0  0  0  0  0  0  0  0  0
   33.2395  -13.5228   38.7610 O   0  0  0  0  0  0  0  0  0  0  0  0
   33.9550  -11.8816   37.3477 N   0  0  0  0  0  0  0  0  0  0  0  0
   34.5899  -11.4891   36.6230 H   0  0  0  0  0  0  0  0  0  0  0  0
   32.8772  -10.9466   37.7814 C   0  0  0  0  0  0  0  0  0  0  0  0
   31.5773  -11.6231   37.6577 C   0  0  0  0  0  0  0  0  0  0  0  0
   31.2699  -12.1291   36.5265 O   0  0  0  0  0  0  0  0  0  0  0  0
   30.6570  -11.7481   38.7112 N   0  0  0  0  0  0  0  0  0  0  0  0
   30.8715  -11.3557   39.6489 H   0  0  0  0  0  0  0  0  0  0  0  0
   29.3912  -12.4397   38.5172 C   0  0  0  0  0  0  0  0  0  0  0  0
   28.3149  -11.4598   38.3066 C   0  0  0  0  0  0  0  0  0  0  0  0
   27.1623  -11.8057   37.6115 O   0  0  0  0  0  0  0  0  0  0  0  0
   28.3669  -10.2797   38.7307 O   0  0  0  0  0  0  0  0  0  0  0  0
   26.2408  -11.7272   37.9931 H   0  0  0  0  0  0  0  0  0  0  0  0
   29.0540  -13.3325   39.6967 C   0  0  0  0  0  0  0  0  0  0  0  0
   27.8443  -14.0011   39.4948 O   0  0  0  0  0  0  0  0  0  0  0  0
   27.0781  -13.3996   39.5318 H   0  0  0  0  0  0  0  0  0  0  0  0
   33.0597   -9.7258   36.9394 C   0  0  0  0  0  0  0  0  0  0  0  0
   34.4345   -9.1513   36.9112 C   0  0  0  0  0  0  0  0  0  0  0  0
   32.0148   -8.6903   37.3067 C   0  0  0  0  0  0  0  0  0  0  0  0
   36.2278  -13.2452   36.7087 C   0  0  0  0  0  0  0  0  0  0  0  0
   37.5537  -13.3182   37.3293 C   0  0  0  0  0  0  0  0  0  0  0  0
   38.5544  -12.5227   36.7583 O   0  0  0  0  0  0  0  0  0  0  0  0
   37.8383  -14.0234   38.3050 O   0  0  0  0  0  0  0  0  0  0  0  0
   39.1535  -11.9977   37.3952 H   0  0  0  0  0  0  0  0  0  0  0  0
   34.7801  -17.5444   35.7790 C   0  0  0  0  0  0  0  0  0  0  0  0
   35.7027  -19.8173   36.4528 C   0  0  0  0  0  0  0  0  0  0  0  0
   36.4912  -19.6580   35.4354 O   0  0  0  0  0  0  0  0  0  0  0  0
   34.8205  -18.7521   36.6532 N   0  0  0  0  0  0  0  0  0  0  0  0
   34.1374  -18.7528   37.4151 H   0  0  0  0  0  0  0  0  0  0  0  0
   35.7943  -21.0412   37.2634 C   0  0  0  0  0  0  0  0  0  0  0  0
   33.4439  -21.9028   37.5192 C   0  0  0  0  0  0  0  0  0  0  0  0
   33.3426  -21.0434   38.4826 O   0  0  0  0  0  0  0  0  0  0  0  0
   34.6537  -21.9413   36.8654 N   0  0  0  0  0  0  0  0  0  0  0  0
   34.8225  -22.5898   36.0729 H   0  0  0  0  0  0  0  0  0  0  0  0
   32.2441  -22.6981   37.2806 C   0  0  0  0  0  0  0  0  0  0  0  0
   29.3653  -20.8171   35.4794 C   0  0  0  0  0  0  0  0  0  0  0  0
   30.1458  -21.4543   36.5578 C   0  0  0  0  0  0  0  0  0  0  0  0
   29.6841  -21.4676   37.7176 O   0  0  0  0  0  0  0  0  0  0  0  0
   31.3941  -22.0379   36.2752 N   0  0  0  0  0  0  0  0  0  0  0  0
   31.7625  -22.0178   35.3103 H   0  0  0  0  0  0  0  0  0  0  0  0
   32.4993  -24.1082   36.8830 C   0  0  0  0  0  0  0  0  0  0  0  0
   33.3971  -24.2517   35.8386 O   0  0  0  0  0  0  0  0  0  0  0  0
   33.2744  -25.1300   35.4315 H   0  0  0  0  0  0  0  0  0  0  0  0
   37.0533  -21.8096   37.1580 C   0  0  0  0  0  0  0  0  0  0  0  0
   36.9018  -23.2781   37.4216 C   0  0  0  0  0  0  0  0  0  0  0  0
   38.1354  -21.3122   38.1000 C   0  0  0  0  0  0  0  0  0  0  0  0
   33.3574  -17.3882   35.2795 C   0  0  0  0  0  0  0  0  0  0  0  0
   33.3114  -17.1372   33.7960 C   0  0  0  0  0  0  0  0  0  0  0  0
   32.4895  -18.4990   35.7610 C   0  0  0  0  0  0  0  0  0  0  0  0
 42 43  1  0  0  0
 43 44  2  0  0  0
 43 45  1  0  0  0
 45 41  1  0  0  0
 41 47  1  0  0  0
 47 48  1  0  0  0
 41 37  1  0  0  0
 37 38  2  0  0  0
 37 39  1  0  0  0
 39 36  1  0  0  0
 36 50  1  0  0  0
 50 51  1  0  0  0
 50 52  1  0  0  0
 36 32  1  0  0  0
 32 33  2  0  0  0
 32 34  1  0  0  0
 34 31  1  0  0  0
 31 53  1  0  0  0
 53 54  1  0  0  0
 53 55  1  0  0  0
 31  1  1  0  0  0
  1  2  2  0  0  0
  1  3  1  0  0  0
  3  5  1  0  0  0
  5 26  1  0  0  0
 26 27  1  0  0  0
 27 28  1  0  0  0
 27 29  2  0  0  0
  5  6  1  0  0  0
  6  7  2  0  0  0
  6  8  1  0  0  0
  8 10  1  0  0  0
 10 23  1  0  0  0
 23 24  1  0  0  0
 23 25  1  0  0  0
 10 11  1  0  0  0
 11 12  2  0  0  0
 11 13  1  0  0  0
 13 15  1  0  0  0
 15 20  1  0  0  0
 20 21  1  0  0  0
 15 16  1  0  0  0
 16 17  1  0  0  0
 16 18  2  0  0  0
 45 46  1  0  0  0
 48 49  1  0  0  0
 39 40  1  0  0  0
 34 35  1  0  0  0
  3  4  1  0  0  0
 28 30  1  0  0  0
  8  9  1  0  0  0
 13 14  1  0  0  0
 21 22  1  0  0  0
 17 19  1  0  0  0
M  END
> <minimizedAffinity>
-7.44532

> <CNNscore>
0.2078415900

> <CNNaffinity>
6.1869058609

> <CNN_VS>
1.2858963013

> <CNNaffinity_variance>
0.1160057187

$$$$
[H]OC(=O)C([H])([H])[C@@]([H])(C(=O)N([H])[C@]([H])(C(=O)N([H])[C@]([H])(C(=O)O[H])C([H])([H])O[H])C([H])(C([H])([H])[H])C([H])([H])[H])N([H])C(=O)[C@@]([H])(N([H])C(=O)[C@@]([H])(N([H])C(=O)[C@@]([H])(N([H])C(=O)C([H])([H])[H])C([H])([H])O[H])C([H])(C([H])([H])[H])C([H])([H])[H])C([H])(C([H])([H])[H])C([H])([H])[H]


 55 54  0  0  0  0  0  0  0  0999 V2000
   34.9097  -15.2284   36.0121 C   0  0  0  0  0  0  0  0  0  0  0  0
   33.6298  -15.3000   35.9378 O   0  0  0  0  0  0  0  0  0  0  0  0
   35.5771  -16.4749   35.9917 N   0  0  0  0  0  0  0  0  0  0  0  0
   36.6085  -16.5871   36.0366 H   0  0  0  0  0  0  0  0  0  0  0  0
   34.8308  -17.7356   35.8957 C   0  0  0  0  0  0  0  0  0  0  0  0
   35.4097  -18.7591   36.7942 C   0  0  0  0  0  0  0  0  0  0  0  0
   35.5242  -18.6029   38.0396 O   0  0  0  0  0  0  0  0  0  0  0  0
   35.8574  -19.9661   36.2414 N   0  0  0  0  0  0  0  0  0  0  0  0
   35.8108  -20.1982   35.2284 H   0  0  0  0  0  0  0  0  0  0  0  0
   36.4512  -21.0434   37.0844 C   0  0  0  0  0  0  0  0  0  0  0  0
   37.8291  -21.2971   36.6375 C   0  0  0  0  0  0  0  0  0  0  0  0
   38.7554  -21.2907   37.5162 O   0  0  0  0  0  0  0  0  0  0  0  0
   38.1847  -21.5495   35.3024 N   0  0  0  0  0  0  0  0  0  0  0  0
   37.4603  -21.5695   34.5580 H   0  0  0  0  0  0  0  0  0  0  0  0
   39.5702  -21.8009   34.9347 C   0  0  0  0  0  0  0  0  0  0  0  0
   40.0026  -20.8246   33.9233 C   0  0  0  0  0  0  0  0  0  0  0  0
   40.7216  -21.2284   32.8048 O   0  0  0  0  0  0  0  0  0  0  0  0
   39.7555  -19.5967   34.0033 O   0  0  0  0  0  0  0  0  0  0  0  0
   40.4249  -21.0586   31.8645 H   0  0  0  0  0  0  0  0  0  0  0  0
   39.7631  -23.2107   34.4081 C   0  0  0  0  0  0  0  0  0  0  0  0
   38.8014  -23.5266   33.4456 O   0  0  0  0  0  0  0  0  0  0  0  0
   37.9111  -23.6255   33.8302 H   0  0  0  0  0  0  0  0  0  0  0  0
   35.5055  -22.1943   36.9676 C   0  0  0  0  0  0  0  0  0  0  0  0
   34.0989  -21.9285   37.3823 C   0  0  0  0  0  0  0  0  0  0  0  0
   36.0877  -23.4077   37.6657 C   0  0  0  0  0  0  0  0  0  0  0  0
   34.7304  -18.2456   34.4923 C   0  0  0  0  0  0  0  0  0  0  0  0
   33.5269  -19.0365   34.2193 C   0  0  0  0  0  0  0  0  0  0  0  0
   33.7233  -20.3932   33.9344 O   0  0  0  0  0  0  0  0  0  0  0  0
   32.3731  -18.5904   34.2246 O   0  0  0  0  0  0  0  0  0  0  0  0
   33.1018  -21.0607   34.3909 H   0  0  0  0  0  0  0  0  0  0  0  0
   35.5991  -13.9346   36.1085 C   0  0  0  0  0  0  0  0  0  0  0  0
   33.8222  -12.5360   37.2741 C   0  0  0  0  0  0  0  0  0  0  0  0
   34.1442  -13.2292   38.3219 O   0  0  0  0  0  0  0  0  0  0  0  0
   34.5512  -12.8734   36.1305 N   0  0  0  0  0  0  0  0  0  0  0  0
   34.3912  -12.4104   35.2321 H   0  0  0  0  0  0  0  0  0  0  0  0
   32.7706  -11.5123   37.3703 C   0  0  0  0  0  0  0  0  0  0  0  0
   30.4239  -11.9895   38.1435 C   0  0  0  0  0  0  0  0  0  0  0  0
   30.0644  -11.5988   36.9623 O   0  0  0  0  0  0  0  0  0  0  0  0
   31.7750  -11.9731   38.4027 N   0  0  0  0  0  0  0  0  0  0  0  0
   32.1562  -12.2804   39.3177 H   0  0  0  0  0  0  0  0  0  0  0  0
   29.3250  -12.3893   39.0161 C   0  0  0  0  0  0  0  0  0  0  0  0
   29.2279  -15.8647   40.7430 C   0  0  0  0  0  0  0  0  0  0  0  0
   28.7772  -14.6675   40.0067 C   0  0  0  0  0  0  0  0  0  0  0  0
   27.5900  -14.5972   39.6271 O   0  0  0  0  0  0  0  0  0  0  0  0
   29.6796  -13.6222   39.7396 N   0  0  0  0  0  0  0  0  0  0  0  0
   30.6589  -13.6962   40.0599 H   0  0  0  0  0  0  0  0  0  0  0  0
   28.8811  -11.3457   39.9781 C   0  0  0  0  0  0  0  0  0  0  0  0
   29.2662  -10.0592   39.6404 O   0  0  0  0  0  0  0  0  0  0  0  0
   29.2308   -9.4967   40.4370 H   0  0  0  0  0  0  0  0  0  0  0  0
   33.2108  -10.1457   37.7244 C   0  0  0  0  0  0  0  0  0  0  0  0
   32.1827   -9.0834   37.4723 C   0  0  0  0  0  0  0  0  0  0  0  0
   34.4658   -9.7142   36.9867 C   0  0  0  0  0  0  0  0  0  0  0  0
   36.4384  -13.7751   37.3608 C   0  0  0  0  0  0  0  0  0  0  0  0
   36.7629  -15.1045   37.9878 C   0  0  0  0  0  0  0  0  0  0  0  0
   37.6093  -12.8868   37.1181 C   0  0  0  0  0  0  0  0  0  0  0  0
 42 43  1  0  0  0
 43 44  2  0  0  0
 43 45  1  0  0  0
 45 41  1  0  0  0
 41 47  1  0  0  0
 47 48  1  0  0  0
 41 37  1  0  0  0
 37 38  2  0  0  0
 37 39  1  0  0  0
 39 36  1  0  0  0
 36 50  1  0  0  0
 50 51  1  0  0  0
 50 52  1  0  0  0
 36 32  1  0  0  0
 32 33  2  0  0  0
 32 34  1  0  0  0
 34 31  1  0  0  0
 31 53  1  0  0  0
 53 54  1  0  0  0
 53 55  1  0  0  0
 31  1  1  0  0  0
  1  2  2  0  0  0
  1  3  1  0  0  0
  3  5  1  0  0  0
  5 26  1  0  0  0
 26 27  1  0  0  0
 27 28  1  0  0  0
 27 29  2  0  0  0
  5  6  1  0  0  0
  6  7  2  0  0  0
  6  8  1  0  0  0
  8 10  1  0  0  0
 10 23  1  0  0  0
 23 24  1  0  0  0
 23 25  1  0  0  0
 10 11  1  0  0  0
 11 12  2  0  0  0
 11 13  1  0  0  0
 13 15  1  0  0  0
 15 20  1  0  0  0
 20 21  1  0  0  0
 15 16  1  0  0  0
 16 17  1  0  0  0
 16 18  2  0  0  0
 45 46  1  0  0  0
 48 49  1  0  0  0
 39 40  1  0  0  0
 34 35  1  0  0  0
  3  4  1  0  0  0
 28 30  1  0  0  0
  8  9  1  0  0  0
 13 14  1  0  0  0
 21 22  1  0  0  0
 17 19  1  0  0  0
M  END
> <minimizedAffinity>
-7.70067

> <CNNscore>
0.1989369243

> <CNNaffinity>
6.6252579689

> <CNN_VS>
1.3180084229

> <CNNaffinity_variance>
0.1759233028

$$$$
[H]OC(=O)C([H])([H])[C@@]([H])(C(=O)N([H])[C@]([H])(C(=O)N([H])[C@]([H])(C(=O)O[H])C([H])([H])O[H])C([H])(C([H])([H])[H])C([H])([H])[H])N([H])C(=O)[C@@]([H])(N([H])C(=O)[C@@]([H])(N([H])C(=O)[C@@]([H])(N([H])C(=O)C([H])([H])[H])C([H])([H])O[H])C([H])(C([H])([H])[H])C([H])([H])[H])C([H])(C([H])([H])[H])C([H])([H])[H]


 55 54  0  0  0  0  0  0  0  0999 V2000
   33.9043  -13.1629   37.8241 C   0  0  0  0  0  0  0  0  0  0  0  0
   33.9427  -11.9468   37.4134 O   0  0  0  0  0  0  0  0  0  0  0  0
   32.7106  -13.5288   38.4880 N   0  0  0  0  0  0  0  0  0  0  0  0
   32.5213  -14.4748   38.8721 H   0  0  0  0  0  0  0  0  0  0  0  0
   31.6202  -12.5643   38.6787 C   0  0  0  0  0  0  0  0  0  0  0  0
   30.5953  -13.1046   39.5994 C   0  0  0  0  0  0  0  0  0  0  0  0
   30.3281  -14.3326   39.6951 O   0  0  0  0  0  0  0  0  0  0  0  0
   29.8793  -12.2133   40.4092 N   0  0  0  0  0  0  0  0  0  0  0  0
   30.0190  -11.1824   40.4099 H   0  0  0  0  0  0  0  0  0  0  0  0
   28.8324  -12.6847   41.3609 C   0  0  0  0  0  0  0  0  0  0  0  0
   29.3826  -13.7786   42.1753 C   0  0  0  0  0  0  0  0  0  0  0  0
   30.3655  -13.5161   42.9468 O   0  0  0  0  0  0  0  0  0  0  0  0
   28.8881  -15.0930   42.1567 N   0  0  0  0  0  0  0  0  0  0  0  0
   28.0856  -15.3466   41.5476 H   0  0  0  0  0  0  0  0  0  0  0  0
   29.4784  -16.1236   42.9979 C   0  0  0  0  0  0  0  0  0  0  0  0
   29.4014  -17.4259   42.3189 C   0  0  0  0  0  0  0  0  0  0  0  0
   30.1260  -18.5164   42.7847 O   0  0  0  0  0  0  0  0  0  0  0  0
   28.6942  -17.6304   41.3024 O   0  0  0  0  0  0  0  0  0  0  0  0
   29.7092  -19.3874   43.0468 H   0  0  0  0  0  0  0  0  0  0  0  0
   28.7937  -16.2040   44.3495 C   0  0  0  0  0  0  0  0  0  0  0  0
   29.3782  -15.3259   45.2650 O   0  0  0  0  0  0  0  0  0  0  0  0
   30.2737  -15.6072   45.5282 H   0  0  0  0  0  0  0  0  0  0  0  0
   27.6587  -13.0354   40.5053 C   0  0  0  0  0  0  0  0  0  0  0  0
   27.3547  -12.0899   39.3942 C   0  0  0  0  0  0  0  0  0  0  0  0
   26.4484  -13.2979   41.3799 C   0  0  0  0  0  0  0  0  0  0  0  0
   31.0050  -12.1207   37.3886 C   0  0  0  0  0  0  0  0  0  0  0  0
   30.6669  -10.6955   37.3365 C   0  0  0  0  0  0  0  0  0  0  0  0
   31.6310   -9.8453   36.7816 O   0  0  0  0  0  0  0  0  0  0  0  0
   29.6057  -10.2067   37.7433 O   0  0  0  0  0  0  0  0  0  0  0  0
   31.3060   -9.1388   36.1217 H   0  0  0  0  0  0  0  0  0  0  0  0
   35.0305  -14.0803   37.6042 C   0  0  0  0  0  0  0  0  0  0  0  0
   35.0793  -16.3585   36.4732 C   0  0  0  0  0  0  0  0  0  0  0  0
   35.8948  -16.6757   37.4305 O   0  0  0  0  0  0  0  0  0  0  0  0
   34.6203  -15.0401   36.5388 N   0  0  0  0  0  0  0  0  0  0  0  0
   33.9788  -14.6563   35.8400 H   0  0  0  0  0  0  0  0  0  0  0  0
   34.7288  -17.3566   35.4514 C   0  0  0  0  0  0  0  0  0  0  0  0
   36.8516  -18.4384   34.6418 C   0  0  0  0  0  0  0  0  0  0  0  0
   36.9221  -17.4445   33.8147 O   0  0  0  0  0  0  0  0  0  0  0  0
   35.7718  -18.4427   35.4943 N   0  0  0  0  0  0  0  0  0  0  0  0
   35.6392  -19.1929   36.1991 H   0  0  0  0  0  0  0  0  0  0  0  0
   37.9422  -19.4018   34.5345 C   0  0  0  0  0  0  0  0  0  0  0  0
   41.5856  -18.3087   33.7594 C   0  0  0  0  0  0  0  0  0  0  0  0
   40.3272  -19.0783   33.7104 C   0  0  0  0  0  0  0  0  0  0  0  0
   40.2469  -20.0665   32.9517 O   0  0  0  0  0  0  0  0  0  0  0  0
   39.2356  -18.6976   34.5115 N   0  0  0  0  0  0  0  0  0  0  0  0
   39.3180  -17.8768   35.1334 H   0  0  0  0  0  0  0  0  0  0  0  0
   37.9537  -20.4509   35.5885 C   0  0  0  0  0  0  0  0  0  0  0  0
   38.6883  -20.1190   36.7143 O   0  0  0  0  0  0  0  0  0  0  0  0
   38.9157  -20.9352   37.1983 H   0  0  0  0  0  0  0  0  0  0  0  0
   33.3958  -17.9852   35.5731 C   0  0  0  0  0  0  0  0  0  0  0  0
   33.4000  -19.3029   36.2890 C   0  0  0  0  0  0  0  0  0  0  0  0
   32.7260  -18.2258   34.2318 C   0  0  0  0  0  0  0  0  0  0  0  0
   36.3012  -13.3963   37.1397 C   0  0  0  0  0  0  0  0  0  0  0  0
   37.5023  -13.8633   37.9174 C   0  0  0  0  0  0  0  0  0  0  0  0
   36.4412  -13.4627   35.6581 C   0  0  0  0  0  0  0  0  0  0  0  0
 42 43  1  0  0  0
 43 44  2  0  0  0
 43 45  1  0  0  0
 45 41  1  0  0  0
 41 47  1  0  0  0
 47 48  1  0  0  0
 41 37  1  0  0  0
 37 38  2  0  0  0
 37 39  1  0  0  0
 39 36  1  0  0  0
 36 50  1  0  0  0
 50 51  1  0  0  0
 50 52  1  0  0  0
 36 32  1  0  0  0
 32 33  2  0  0  0
 32 34  1  0  0  0
 34 31  1  0  0  0
 31 53  1  0  0  0
 53 54  1  0  0  0
 53 55  1  0  0  0
 31  1  1  0  0  0
  1  2  2  0  0  0
  1  3  1  0  0  0
  3  5  1  0  0  0
  5 26  1  0  0  0
 26 27  1  0  0  0
 27 28  1  0  0  0
 27 29  2  0  0  0
  5  6  1  0  0  0
  6  7  2  0  0  0
  6  8  1  0  0  0
  8 10  1  0  0  0
 10 23  1  0  0  0
 23 24  1  0  0  0
 23 25  1  0  0  0
 10 11  1  0  0  0
 11 12  2  0  0  0
 11 13  1  0  0  0
 13 15  1  0  0  0
 15 20  1  0  0  0
 20 21  1  0  0  0
 15 16  1  0  0  0
 16 17  1  0  0  0
 16 18  2  0  0  0
 45 46  1  0  0  0
 48 49  1  0  0  0
 39 40  1  0  0  0
 34 35  1  0  0  0
  3  4  1  0  0  0
 28 30  1  0  0  0
  8  9  1  0  0  0
 13 14  1  0  0  0
 21 22  1  0  0  0
 17 19  1  0  0  0
M  END
> <minimizedAffinity>
-7.09754

> <CNNscore>
0.1914878190

> <CNNaffinity>
6.2139768600

> <CNN_VS>
1.1899008751

> <CNNaffinity_variance>
0.0856440216

$$$$
[H]c1sc(N([H])C2([H])C([H])([H])C([H])([H])N(C(=O)c3c([H])c(OC([H])([H])[H])c(OC([H])([H])[H])c(OC([H])([H])[H])c3[H])C([H])([H])C2([H])[H])nc1-c1c([H])c([H])c(F)c(OC([H])([H])[H])c1[H]


 36 39  0  0  0  0  0  0  0  0999 V2000
   34.2792  -17.2841   35.6034 C   0  0  0  0  0  0  0  0  0  0  0  0
   33.0574  -17.6188   35.1668 O   0  0  0  0  0  0  0  0  0  0  0  0
   35.1659  -18.3136   35.7331 N   0  0  0  0  0  0  0  0  0  0  0  0
   34.6944  -19.7343   35.4660 C   0  0  0  0  0  0  0  0  0  0  0  0
   34.9996  -20.5621   36.6702 C   0  0  0  0  0  0  0  0  0  0  0  0
   36.3809  -20.4068   37.2328 C   0  0  0  0  0  0  0  0  0  0  0  0
   36.7176  -18.9404   37.3886 C   0  0  0  0  0  0  0  0  0  0  0  0
   36.5563  -18.2913   36.0308 C   0  0  0  0  0  0  0  0  0  0  0  0
   33.6855  -13.6214   36.3128 C   0  0  0  0  0  0  0  0  0  0  0  0
   33.4597  -14.9600   35.9888 C   0  0  0  0  0  0  0  0  0  0  0  0
   34.4481  -15.8818   35.8600 C   0  0  0  0  0  0  0  0  0  0  0  0
   35.7540  -15.3749   36.0795 C   0  0  0  0  0  0  0  0  0  0  0  0
   36.0031  -14.0678   36.3971 C   0  0  0  0  0  0  0  0  0  0  0  0
   34.9560  -13.1821   36.5154 C   0  0  0  0  0  0  0  0  0  0  0  0
   31.9465  -12.4335   37.5951 C   0  0  0  0  0  0  0  0  0  0  0  0
   32.6011  -12.7914   36.4155 O   0  0  0  0  0  0  0  0  0  0  0  0
   37.3303  -13.6394   36.6003 O   0  0  0  0  0  0  0  0  0  0  0  0
   37.8894  -13.8426   37.8784 C   0  0  0  0  0  0  0  0  0  0  0  0
   35.2447  -11.8509   36.8430 O   0  0  0  0  0  0  0  0  0  0  0  0
   35.4679  -10.8631   35.8661 C   0  0  0  0  0  0  0  0  0  0  0  0
   37.3996  -21.0102   36.4282 N   0  0  0  0  0  0  0  0  0  0  0  0
   37.2022  -21.4266   35.5171 H   0  0  0  0  0  0  0  0  0  0  0  0
   38.7608  -21.0295   36.8999 C   0  0  0  0  0  0  0  0  0  0  0  0
   39.2754  -20.5489   38.0069 N   0  0  0  0  0  0  0  0  0  0  0  0
   40.5437  -20.6608   38.2692 C   0  0  0  0  0  0  0  0  0  0  0  0
   41.3093  -21.3083   37.3240 C   0  0  0  0  0  0  0  0  0  0  0  0
   40.1508  -21.7039   36.1374 S   0  0  0  0  0  0  0  0  0  0  0  0
   41.1297  -20.1185   39.5193 C   0  0  0  0  0  0  0  0  0  0  0  0
   42.2690  -19.3718   39.4346 C   0  0  0  0  0  0  0  0  0  0  0  0
   42.8321  -18.8542   40.6053 C   0  0  0  0  0  0  0  0  0  0  0  0
   42.2387  -19.0999   41.8178 C   0  0  0  0  0  0  0  0  0  0  0  0
   42.7979  -18.5909   42.9401 F   0  0  0  0  0  0  0  0  0  0  0  0
   41.0971  -19.8456   41.9234 C   0  0  0  0  0  0  0  0  0  0  0  0
   40.5510  -20.3532   40.7427 C   0  0  0  0  0  0  0  0  0  0  0  0
   40.5305  -20.0695   43.1680 O   0  0  0  0  0  0  0  0  0  0  0  0
   39.1058  -20.1258   43.3039 C   0  0  0  0  0  0  0  0  0  0  0  0
 15 16  1  0  0  0
 16  9  1  0  0  0
  9 10  2  0  0  0
 10 11  1  0  0  0
 11 12  2  0  0  0
 12 13  1  0  0  0
 13 17  1  0  0  0
 17 18  1  0  0  0
 13 14  2  0  0  0
 14 19  1  0  0  0
 19 20  1  0  0  0
 11  1  1  0  0  0
  1  2  2  0  0  0
  1  3  1  0  0  0
  3  4  1  0  0  0
  4  5  1  0  0  0
  5  6  1  0  0  0
  6  7  1  0  0  0
  7  8  1  0  0  0
  6 21  1  0  0  0
 21 23  1  0  0  0
 23 24  2  0  0  0
 24 25  1  0  0  0
 25 26  2  0  0  0
 26 27  1  0  0  0
 25 28  1  0  0  0
 28 29  2  0  0  0
 29 30  1  0  0  0
 30 31  2  0  0  0
 31 32  1  0  0  0
 31 33  1  0  0  0
 33 35  1  0  0  0
 35 36  1  0  0  0
 33 34  2  0  0  0
 14  9  1  0  0  0
  8  3  1  0  0  0
 27 23  1  0  0  0
 34 28  1  0  0  0
 21 22  1  0  0  0
M  END
> <minimizedAffinity>
-6.83102

> <CNNscore>
0.4607267082

> <CNNaffinity>
6.0976419449

> <CNN_VS>
2.8093464375

> <CNNaffinity_variance>
0.1271745265

$$$$
[H]c1sc(N([H])C2([H])C([H])([H])C([H])([H])N(C(=O)c3c([H])c(OC([H])([H])[H])c(OC([H])([H])[H])c(OC([H])([H])[H])c3[H])C([H])([H])C2([H])[H])nc1-c1c([H])c([H])c(F)c(OC([H])([H])[H])c1[H]


 36 39  0  0  0  0  0  0  0  0999 V2000
   34.2912  -16.7608   35.5997 C   0  0  0  0  0  0  0  0  0  0  0  0
   33.0377  -17.0260   35.2078 O   0  0  0  0  0  0  0  0  0  0  0  0
   35.1740  -17.7978   35.5073 N   0  0  0  0  0  0  0  0  0  0  0  0
   34.6694  -19.1617   35.0635 C   0  0  0  0  0  0  0  0  0  0  0  0
   35.0518  -20.1624   36.1032 C   0  0  0  0  0  0  0  0  0  0  0  0
   36.4715  -20.0936   36.5807 C   0  0  0  0  0  0  0  0  0  0  0  0
   36.8342  -18.6676   36.9315 C   0  0  0  0  0  0  0  0  0  0  0  0
   36.5824  -17.8203   35.7029 C   0  0  0  0  0  0  0  0  0  0  0  0
   35.8215  -13.4880   36.7034 C   0  0  0  0  0  0  0  0  0  0  0  0
   35.6843  -14.8279   36.3378 C   0  0  0  0  0  0  0  0  0  0  0  0
   34.4931  -15.4136   36.0524 C   0  0  0  0  0  0  0  0  0  0  0  0
   33.3748  -14.5484   36.1584 C   0  0  0  0  0  0  0  0  0  0  0  0
   33.4813  -13.2322   36.5156 C   0  0  0  0  0  0  0  0  0  0  0  0
   34.7193  -12.6969   36.7904 C   0  0  0  0  0  0  0  0  0  0  0  0
   38.0563  -13.6540   37.7317 C   0  0  0  0  0  0  0  0  0  0  0  0
   37.0807  -13.0167   36.9636 O   0  0  0  0  0  0  0  0  0  0  0  0
   32.3217  -12.4355   36.5993 O   0  0  0  0  0  0  0  0  0  0  0  0
   31.6747  -12.3602   37.8495 C   0  0  0  0  0  0  0  0  0  0  0  0
   34.7943  -11.3455   37.1520 O   0  0  0  0  0  0  0  0  0  0  0  0
   35.0806  -10.3288   36.2223 C   0  0  0  0  0  0  0  0  0  0  0  0
   37.4231  -20.5676   35.6221 N   0  0  0  0  0  0  0  0  0  0  0  0
   37.1652  -21.1958   34.8597 H   0  0  0  0  0  0  0  0  0  0  0  0
   38.7972  -20.1440   35.7138 C   0  0  0  0  0  0  0  0  0  0  0  0
   39.5521  -19.9570   36.7704 N   0  0  0  0  0  0  0  0  0  0  0  0
   40.7876  -19.5682   36.6605 C   0  0  0  0  0  0  0  0  0  0  0  0
   41.2538  -19.3656   35.3796 C   0  0  0  0  0  0  0  0  0  0  0  0
   39.8852  -19.7485   34.4378 S   0  0  0  0  0  0  0  0  0  0  0  0
   41.6444  -19.3551   37.8524 C   0  0  0  0  0  0  0  0  0  0  0  0
   42.7514  -18.5668   37.7267 C   0  0  0  0  0  0  0  0  0  0  0  0
   43.5680  -18.3572   38.8425 C   0  0  0  0  0  0  0  0  0  0  0  0
   43.2511  -18.9413   40.0429 C   0  0  0  0  0  0  0  0  0  0  0  0
   44.0530  -18.7273   41.1117 F   0  0  0  0  0  0  0  0  0  0  0  0
   42.1464  -19.7344   40.1889 C   0  0  0  0  0  0  0  0  0  0  0  0
   41.3445  -19.9310   39.0628 C   0  0  0  0  0  0  0  0  0  0  0  0
   41.8631  -20.3050   41.4196 O   0  0  0  0  0  0  0  0  0  0  0  0
   40.8454  -19.7370   42.2521 C   0  0  0  0  0  0  0  0  0  0  0  0
 15 16  1  0  0  0
 16  9  1  0  0  0
  9 10  2  0  0  0
 10 11  1  0  0  0
 11 12  2  0  0  0
 12 13  1  0  0  0
 13 17  1  0  0  0
 17 18  1  0  0  0
 13 14  2  0  0  0
 14 19  1  0  0  0
 19 20  1  0  0  0
 11  1  1  0  0  0
  1  2  2  0  0  0
  1  3  1  0  0  0
  3  4  1  0  0  0
  4  5  1  0  0  0
  5  6  1  0  0  0
  6  7  1  0  0  0
  7  8  1  0  0  0
  6 21  1  0  0  0
 21 23  1  0  0  0
 23 24  2  0  0  0
 24 25  1  0  0  0
 25 26  2  0  0  0
 26 27  1  0  0  0
 25 28  1  0  0  0
 28 29  2  0  0  0
 29 30  1  0  0  0
 30 31  2  0  0  0
 31 32  1  0  0  0
 31 33  1  0  0  0
 33 35  1  0  0  0
 35 36  1  0  0  0
 33 34  2  0  0  0
 14  9  1  0  0  0
  8  3  1  0  0  0
 27 23  1  0  0  0
 34 28  1  0  0  0
 21 22  1  0  0  0
M  END
> <minimizedAffinity>
-6.81996

> <CNNscore>
0.4282292128

> <CNNaffinity>
6.2767581940

> <CNN_VS>
2.6878912449

> <CNNaffinity_variance>
0.1860680431

$$$$
[H]c1sc(N([H])C2([H])C([H])([H])C([H])([H])N(C(=O)c3c([H])c(OC([H])([H])[H])c(OC([H])([H])[H])c(OC([H])([H])[H])c3[H])C([H])([H])C2([H])[H])nc1-c1c([H])c([H])c(F)c(OC([H])([H])[H])c1[H]


 36 39  0  0  0  0  0  0  0  0999 V2000
   39.9737  -20.1015   36.1876 C   0  0  0  0  0  0  0  0  0  0  0  0
   41.1094  -20.0761   35.4770 O   0  0  0  0  0  0  0  0  0  0  0  0
   38.8221  -19.9427   35.4724 N   0  0  0  0  0  0  0  0  0  0  0  0
   38.9103  -19.6688   33.9793 C   0  0  0  0  0  0  0  0  0  0  0  0
   38.1530  -18.4156   33.6887 C   0  0  0  0  0  0  0  0  0  0  0  0
   36.7920  -18.3194   34.3105 C   0  0  0  0  0  0  0  0  0  0  0  0
   36.8650  -18.6713   35.7798 C   0  0  0  0  0  0  0  0  0  0  0  0
   37.4660  -20.0565   35.8850 C   0  0  0  0  0  0  0  0  0  0  0  0
   39.7478  -21.3383   39.7500 C   0  0  0  0  0  0  0  0  0  0  0  0
   39.4632  -21.1373   38.3986 C   0  0  0  0  0  0  0  0  0  0  0  0
   40.1662  -20.2969   37.5967 C   0  0  0  0  0  0  0  0  0  0  0  0
   41.2305  -19.6214   38.2461 C   0  0  0  0  0  0  0  0  0  0  0  0
   41.5300  -19.7993   39.5690 C   0  0  0  0  0  0  0  0  0  0  0  0
   40.7798  -20.6683   40.3284 C   0  0  0  0  0  0  0  0  0  0  0  0
   38.3145  -23.3365   39.9291 C   0  0  0  0  0  0  0  0  0  0  0  0
   38.9638  -22.2162   40.4500 O   0  0  0  0  0  0  0  0  0  0  0  0
   42.6046  -19.0907   40.1428 O   0  0  0  0  0  0  0  0  0  0  0  0
   43.4422  -18.3646   39.2719 C   0  0  0  0  0  0  0  0  0  0  0  0
   41.1132  -20.8290   41.6795 O   0  0  0  0  0  0  0  0  0  0  0  0
   41.9391  -21.8730   42.1356 C   0  0  0  0  0  0  0  0  0  0  0  0
   35.8201  -19.1747   33.6999 N   0  0  0  0  0  0  0  0  0  0  0  0
   36.0568  -19.8206   32.9454 H   0  0  0  0  0  0  0  0  0  0  0  0
   34.4557  -19.1452   34.1617 C   0  0  0  0  0  0  0  0  0  0  0  0
   33.6120  -20.1304   34.3593 N   0  0  0  0  0  0  0  0  0  0  0  0
   32.4035  -19.9125   34.7858 C   0  0  0  0  0  0  0  0  0  0  0  0
   32.0636  -18.5971   35.0163 C   0  0  0  0  0  0  0  0  0  0  0  0
   33.5019  -17.7801   34.6034 S   0  0  0  0  0  0  0  0  0  0  0  0
   31.4464  -21.0233   35.0102 C   0  0  0  0  0  0  0  0  0  0  0  0
   30.2071  -20.7268   35.4991 C   0  0  0  0  0  0  0  0  0  0  0  0
   29.2946  -21.7643   35.7151 C   0  0  0  0  0  0  0  0  0  0  0  0
   29.6511  -23.0596   35.4358 C   0  0  0  0  0  0  0  0  0  0  0  0
   28.7550  -24.0505   35.6513 F   0  0  0  0  0  0  0  0  0  0  0  0
   30.8878  -23.3768   34.9456 C   0  0  0  0  0  0  0  0  0  0  0  0
   31.7840  -22.3264   34.7370 C   0  0  0  0  0  0  0  0  0  0  0  0
   31.2067  -24.6983   34.6770 O   0  0  0  0  0  0  0  0  0  0  0  0
   31.9511  -25.4615   35.6335 C   0  0  0  0  0  0  0  0  0  0  0  0
 15 16  1  0  0  0
 16  9  1  0  0  0
  9 10  2  0  0  0
 10 11  1  0  0  0
 11 12  2  0  0  0
 12 13  1  0  0  0
 13 17  1  0  0  0
 17 18  1  0  0  0
 13 14  2  0  0  0
 14 19  1  0  0  0
 19 20  1  0  0  0
 11  1  1  0  0  0
  1  2  2  0  0  0
  1  3  1  0  0  0
  3  4  1  0  0  0
  4  5  1  0  0  0
  5  6  1  0  0  0
  6  7  1  0  0  0
  7  8  1  0  0  0
  6 21  1  0  0  0
 21 23  1  0  0  0
 23 24  2  0  0  0
 24 25  1  0  0  0
 25 26  2  0  0  0
 26 27  1  0  0  0
 25 28  1  0  0  0
 28 29  2  0  0  0
 29 30  1  0  0  0
 30 31  2  0  0  0
 31 32  1  0  0  0
 31 33  1  0  0  0
 33 35  1  0  0  0
 35 36  1  0  0  0
 33 34  2  0  0  0
 14  9  1  0  0  0
  8  3  1  0  0  0
 27 23  1  0  0  0
 34 28  1  0  0  0
 21 22  1  0  0  0
M  END
> <minimizedAffinity>
-5.90989

> <CNNscore>
0.4178581834

> <CNNaffinity>
5.5212659836

> <CNN_VS>
2.3071062565

> <CNNaffinity_variance>
0.1691927016

$$$$
[H]c1sc(N([H])C2([H])C([H])([H])C([H])([H])N(C(=O)c3c([H])c(OC([H])([H])[H])c(OC([H])([H])[H])c(OC([H])([H])[H])c3[H])C([H])([H])C2([H])[H])nc1-c1c([H])c([H])c(F)c(OC([H])([H])[H])c1[H]


 36 39  0  0  0  0  0  0  0  0999 V2000
   40.2177  -19.6277   35.8055 C   0  0  0  0  0  0  0  0  0  0  0  0
   41.2638  -19.4246   34.9933 O   0  0  0  0  0  0  0  0  0  0  0  0
   38.9900  -19.6032   35.2097 N   0  0  0  0  0  0  0  0  0  0  0  0
   38.8925  -19.2704   33.7293 C   0  0  0  0  0  0  0  0  0  0  0  0
   37.9513  -18.1228   33.5693 C   0  0  0  0  0  0  0  0  0  0  0  0
   36.6580  -18.2332   34.3200 C   0  0  0  0  0  0  0  0  0  0  0  0
   36.9224  -18.6206   35.7581 C   0  0  0  0  0  0  0  0  0  0  0  0
   37.7085  -19.9140   35.7422 C   0  0  0  0  0  0  0  0  0  0  0  0
   41.8030  -19.4037   39.2272 C   0  0  0  0  0  0  0  0  0  0  0  0
   41.5542  -19.2039   37.8685 C   0  0  0  0  0  0  0  0  0  0  0  0
   40.5733  -19.8418   37.1798 C   0  0  0  0  0  0  0  0  0  0  0  0
   39.8063  -20.7472   37.9560 C   0  0  0  0  0  0  0  0  0  0  0  0
   40.0299  -20.9624   39.2883 C   0  0  0  0  0  0  0  0  0  0  0  0
   41.0396  -20.2819   39.9302 C   0  0  0  0  0  0  0  0  0  0  0  0
   44.0662  -19.2030   40.1850 C   0  0  0  0  0  0  0  0  0  0  0  0
   42.8222  -18.6958   39.8066 O   0  0  0  0  0  0  0  0  0  0  0  0
   39.2239  -21.8796   39.9922 O   0  0  0  0  0  0  0  0  0  0  0  0
   37.8413  -21.6123   40.0569 C   0  0  0  0  0  0  0  0  0  0  0  0
   41.2417  -20.5239   41.2952 O   0  0  0  0  0  0  0  0  0  0  0  0
   40.6500  -19.7347   42.2988 C   0  0  0  0  0  0  0  0  0  0  0  0
   35.7518  -19.1920   33.7645 N   0  0  0  0  0  0  0  0  0  0  0  0
   36.0481  -19.8968   33.0878 H   0  0  0  0  0  0  0  0  0  0  0  0
   34.3698  -19.1847   34.1720 C   0  0  0  0  0  0  0  0  0  0  0  0
   33.5473  -20.1858   34.3779 N   0  0  0  0  0  0  0  0  0  0  0  0
   32.3172  -19.9871   34.7484 C   0  0  0  0  0  0  0  0  0  0  0  0
   31.9314  -18.6742   34.9108 C   0  0  0  0  0  0  0  0  0  0  0  0
   33.3612  -17.8319   34.5198 S   0  0  0  0  0  0  0  0  0  0  0  0
   31.3838  -21.1160   34.9819 C   0  0  0  0  0  0  0  0  0  0  0  0
   30.1536  -20.8463   35.5080 C   0  0  0  0  0  0  0  0  0  0  0  0
   29.2635  -21.9011   35.7330 C   0  0  0  0  0  0  0  0  0  0  0  0
   29.6323  -23.1864   35.4253 C   0  0  0  0  0  0  0  0  0  0  0  0
   28.7578  -24.1944   35.6500 F   0  0  0  0  0  0  0  0  0  0  0  0
   30.8602  -23.4769   34.8977 C   0  0  0  0  0  0  0  0  0  0  0  0
   31.7340  -22.4096   34.6807 C   0  0  0  0  0  0  0  0  0  0  0  0
   31.1921  -24.7893   34.6013 O   0  0  0  0  0  0  0  0  0  0  0  0
   31.9336  -25.5688   35.5469 C   0  0  0  0  0  0  0  0  0  0  0  0
 15 16  1  0  0  0
 16  9  1  0  0  0
  9 10  2  0  0  0
 10 11  1  0  0  0
 11 12  2  0  0  0
 12 13  1  0  0  0
 13 17  1  0  0  0
 17 18  1  0  0  0
 13 14  2  0  0  0
 14 19  1  0  0  0
 19 20  1  0  0  0
 11  1  1  0  0  0
  1  2  2  0  0  0
  1  3  1  0  0  0
  3  4  1  0  0  0
  4  5  1  0  0  0
  5  6  1  0  0  0
  6  7  1  0  0  0
  7  8  1  0  0  0
  6 21  1  0  0  0
 21 23  1  0  0  0
 23 24  2  0  0  0
 24 25  1  0  0  0
 25 26  2  0  0  0
 26 27  1  0  0  0
 25 28  1  0  0  0
 28 29  2  0  0  0
 29 30  1  0  0  0
 30 31  2  0  0  0
 31 32  1  0  0  0
 31 33  1  0  0  0
 33 35  1  0  0  0
 35 36  1  0  0  0
 33 34  2  0  0  0
 14  9  1  0  0  0
  8  3  1  0  0  0
 27 23  1  0  0  0
 34 28  1  0  0  0
 21 22  1  0  0  0
M  END
> <minimizedAffinity>
-6.34687

> <CNNscore>
0.3953507245

> <CNNaffinity>
5.4881429672

> <CNN_VS>
2.1697413921

> <CNNaffinity_variance>
0.2273747623

$$$$
[H]c1sc(N([H])C2([H])C([H])([H])C([H])([H])N(C(=O)c3c([H])c(OC([H])([H])[H])c(OC([H])([H])[H])c(OC([H])([H])[H])c3[H])C([H])([H])C2([H])[H])nc1-c1c([H])c([H])c(F)c(OC([H])([H])[H])c1[H]


 36 39  0  0  0  0  0  0  0  0999 V2000
   40.6805  -21.5725   36.2620 C   0  0  0  0  0  0  0  0  0  0  0  0
   41.5476  -22.2587   35.5054 O   0  0  0  0  0  0  0  0  0  0  0  0
   39.5959  -21.0632   35.6084 N   0  0  0  0  0  0  0  0  0  0  0  0
   39.4956  -21.2295   34.1003 C   0  0  0  0  0  0  0  0  0  0  0  0
   39.3176  -19.8779   33.4920 C   0  0  0  0  0  0  0  0  0  0  0  0
   38.2877  -19.0030   34.1418 C   0  0  0  0  0  0  0  0  0  0  0  0
   38.4909  -18.9849   35.6406 C   0  0  0  0  0  0  0  0  0  0  0  0
   38.4373  -20.4187   36.1228 C   0  0  0  0  0  0  0  0  0  0  0  0
   41.7376  -20.3542   39.6780 C   0  0  0  0  0  0  0  0  0  0  0  0
   41.4689  -20.3849   38.3089 C   0  0  0  0  0  0  0  0  0  0  0  0
   41.0448  -21.4927   37.6483 C   0  0  0  0  0  0  0  0  0  0  0  0
   40.8949  -22.6411   38.4664 C   0  0  0  0  0  0  0  0  0  0  0  0
   41.1524  -22.6385   39.8099 C   0  0  0  0  0  0  0  0  0  0  0  0
   41.5780  -21.4811   40.4216 C   0  0  0  0  0  0  0  0  0  0  0  0
   43.2587  -18.4185   39.8151 C   0  0  0  0  0  0  0  0  0  0  0  0
   42.1577  -19.1715   40.2260 O   0  0  0  0  0  0  0  0  0  0  0  0
   40.9797  -23.8215   40.5561 O   0  0  0  0  0  0  0  0  0  0  0  0
   42.0513  -24.7372   40.5784 C   0  0  0  0  0  0  0  0  0  0  0  0
   41.8317  -21.5114   41.7991 O   0  0  0  0  0  0  0  0  0  0  0  0
   43.1350  -21.5665   42.3268 C   0  0  0  0  0  0  0  0  0  0  0  0
   36.9407  -19.4135   33.8843 N   0  0  0  0  0  0  0  0  0  0  0  0
   36.7177  -20.2484   33.3405 H   0  0  0  0  0  0  0  0  0  0  0  0
   35.8471  -18.6392   34.4136 C   0  0  0  0  0  0  0  0  0  0  0  0
   35.8329  -17.4153   34.8860 N   0  0  0  0  0  0  0  0  0  0  0  0
   34.7373  -16.8715   35.3265 C   0  0  0  0  0  0  0  0  0  0  0  0
   33.6015  -17.6497   35.2686 C   0  0  0  0  0  0  0  0  0  0  0  0
   34.1950  -19.0959   34.5882 S   0  0  0  0  0  0  0  0  0  0  0  0
   34.7168  -15.4883   35.8618 C   0  0  0  0  0  0  0  0  0  0  0  0
   33.5236  -14.8280   35.9155 C   0  0  0  0  0  0  0  0  0  0  0  0
   33.4897  -13.5234   36.4181 C   0  0  0  0  0  0  0  0  0  0  0  0
   34.6468  -12.9248   36.8490 C   0  0  0  0  0  0  0  0  0  0  0  0
   34.5947  -11.6619   37.3322 F   0  0  0  0  0  0  0  0  0  0  0  0
   35.8519  -13.5699   36.8033 C   0  0  0  0  0  0  0  0  0  0  0  0
   35.8640  -14.8715   36.2980 C   0  0  0  0  0  0  0  0  0  0  0  0
   36.9965  -12.9283   37.2488 O   0  0  0  0  0  0  0  0  0  0  0  0
   38.1264  -13.6985   37.6749 C   0  0  0  0  0  0  0  0  0  0  0  0
 15 16  1  0  0  0
 16  9  1  0  0  0
  9 10  2  0  0  0
 10 11  1  0  0  0
 11 12  2  0  0  0
 12 13  1  0  0  0
 13 17  1  0  0  0
 17 18  1  0  0  0
 13 14  2  0  0  0
 14 19  1  0  0  0
 19 20  1  0  0  0
 11  1  1  0  0  0
  1  2  2  0  0  0
  1  3  1  0  0  0
  3  4  1  0  0  0
  4  5  1  0  0  0
  5  6  1  0  0  0
  6  7  1  0  0  0
  7  8  1  0  0  0
  6 21  1  0  0  0
 21 23  1  0  0  0
 23 24  2  0  0  0
 24 25  1  0  0  0
 25 26  2  0  0  0
 26 27  1  0  0  0
 25 28  1  0  0  0
 28 29  2  0  0  0
 29 30  1  0  0  0
 30 31  2  0  0  0
 31 32  1  0  0  0
 31 33  1  0  0  0
 33 35  1  0  0  0
 35 36  1  0  0  0
 33 34  2  0  0  0
 14  9  1  0  0  0
  8  3  1  0  0  0
 27 23  1  0  0  0
 34 28  1  0  0  0
 21 22  1  0  0  0
M  END
> <minimizedAffinity>
-6.61198

> <CNNscore>
0.3907702863

> <CNNaffinity>
6.0704321861

> <CNN_VS>
2.3721444607

> <CNNaffinity_variance>
0.1917532384

$$$$
[H]c1sc(N([H])C2([H])C([H])([H])C([H])([H])N(C(=O)c3c([H])c(OC([H])([H])[H])c(OC([H])([H])[H])c(OC([H])([H])[H])c3[H])C([H])([H])C2([H])[H])nc1-c1c([H])c([H])c(F)c(OC([H])([H])[H])c1[H]


 36 39  0  0  0  0  0  0  0  0999 V2000
   39.5981  -23.0681   39.4547 C   0  0  0  0  0  0  0  0  0  0  0  0
   39.7290  -24.3868   39.2567 O   0  0  0  0  0  0  0  0  0  0  0  0
   38.5680  -22.4674   38.7907 N   0  0  0  0  0  0  0  0  0  0  0  0
   37.7221  -23.2937   37.8347 C   0  0  0  0  0  0  0  0  0  0  0  0
   37.7317  -22.6212   36.5020 C   0  0  0  0  0  0  0  0  0  0  0  0
   37.4788  -21.1434   36.5176 C   0  0  0  0  0  0  0  0  0  0  0  0
   38.3562  -20.4761   37.5534 C   0  0  0  0  0  0  0  0  0  0  0  0
   38.0707  -21.1384   38.8841 C   0  0  0  0  0  0  0  0  0  0  0  0
   42.2970  -20.9294   41.0081 C   0  0  0  0  0  0  0  0  0  0  0  0
   41.4189  -21.4794   40.0731 C   0  0  0  0  0  0  0  0  0  0  0  0
   40.5748  -22.5075   40.3450 C   0  0  0  0  0  0  0  0  0  0  0  0
   40.6541  -22.9946   41.6743 C   0  0  0  0  0  0  0  0  0  0  0  0
   41.5063  -22.4745   42.6096 C   0  0  0  0  0  0  0  0  0  0  0  0
   42.3362  -21.4296   42.2716 C   0  0  0  0  0  0  0  0  0  0  0  0
   42.6741  -18.7277   39.9641 C   0  0  0  0  0  0  0  0  0  0  0  0
   43.0962  -19.8914   40.6089 O   0  0  0  0  0  0  0  0  0  0  0  0
   41.5269  -23.0136   43.9116 O   0  0  0  0  0  0  0  0  0  0  0  0
   42.3884  -24.1038   44.1492 C   0  0  0  0  0  0  0  0  0  0  0  0
   43.1959  -20.9190   43.2528 O   0  0  0  0  0  0  0  0  0  0  0  0
   42.8379  -19.8433   44.0863 C   0  0  0  0  0  0  0  0  0  0  0  0
   36.1193  -20.7966   36.8017 N   0  0  0  0  0  0  0  0  0  0  0  0
   35.5391  -21.3386   37.4436 H   0  0  0  0  0  0  0  0  0  0  0  0
   35.5352  -19.6369   36.1773 C   0  0  0  0  0  0  0  0  0  0  0  0
   35.5415  -18.3818   36.5593 N   0  0  0  0  0  0  0  0  0  0  0  0
   34.9543  -17.4572   35.8590 C   0  0  0  0  0  0  0  0  0  0  0  0
   34.3303  -17.8696   34.7017 C   0  0  0  0  0  0  0  0  0  0  0  0
   34.6352  -19.5470   34.7110 S   0  0  0  0  0  0  0  0  0  0  0  0
   34.9586  -16.0371   36.2875 C   0  0  0  0  0  0  0  0  0  0  0  0
   33.8760  -15.2625   35.9865 C   0  0  0  0  0  0  0  0  0  0  0  0
   33.8667  -13.9219   36.3846 C   0  0  0  0  0  0  0  0  0  0  0  0
   34.9370  -13.4026   37.0683 C   0  0  0  0  0  0  0  0  0  0  0  0
   34.9103  -12.1033   37.4454 F   0  0  0  0  0  0  0  0  0  0  0  0
   36.0308  -14.1626   37.3791 C   0  0  0  0  0  0  0  0  0  0  0  0
   36.0203  -15.4984   36.9725 C   0  0  0  0  0  0  0  0  0  0  0  0
   37.0905  -13.5982   38.0710 O   0  0  0  0  0  0  0  0  0  0  0  0
   38.3202  -13.3211   37.3910 C   0  0  0  0  0  0  0  0  0  0  0  0
 15 16  1  0  0  0
 16  9  1  0  0  0
  9 10  2  0  0  0
 10 11  1  0  0  0
 11 12  2  0  0  0
 12 13  1  0  0  0
 13 17  1  0  0  0
 17 18  1  0  0  0
 13 14  2  0  0  0
 14 19  1  0  0  0
 19 20  1  0  0  0
 11  1  1  0  0  0
  1  2  2  0  0  0
  1  3  1  0  0  0
  3  4  1  0  0  0
  4  5  1  0  0  0
  5  6  1  0  0  0
  6  7  1  0  0  0
  7  8  1  0  0  0
  6 21  1  0  0  0
 21 23  1  0  0  0
 23 24  2  0  0  0
 24 25  1  0  0  0
 25 26  2  0  0  0
 26 27  1  0  0  0
 25 28  1  0  0  0
 28 29  2  0  0  0
 29 30  1  0  0  0
 30 31  2  0  0  0
 31 32  1  0  0  0
 31 33  1  0  0  0
 33 35  1  0  0  0
 35 36  1  0  0  0
 33 34  2  0  0  0
 14  9  1  0  0  0
  8  3  1  0  0  0
 27 23  1  0  0  0
 34 28  1  0  0  0
 21 22  1  0  0  0
M  END
> <minimizedAffinity>
-5.51634

> <CNNscore>
0.3380714953

> <CNNaffinity>
5.5731325150

> <CNN_VS>
1.8841172457

> <CNNaffinity_variance>
0.1532477438

$$$$
[H]c1sc(N([H])C2([H])C([H])([H])C([H])([H])N(C(=O)c3c([H])c(OC([H])([H])[H])c(OC([H])([H])[H])c(OC([H])([H])[H])c3[H])C([H])([H])C2([H])[H])nc1-c1c([H])c([H])c(F)c(OC([H])([H])[H])c1[H]


 36 39  0  0  0  0  0  0  0  0999 V2000
   34.5596  -17.2582   35.6240 C   0  0  0  0  0  0  0  0  0  0  0  0
   33.6465  -17.4090   34.6550 O   0  0  0  0  0  0  0  0  0  0  0  0
   35.1168  -18.4100   36.0991 N   0  0  0  0  0  0  0  0  0  0  0  0
   34.6149  -19.7460   35.5744 C   0  0  0  0  0  0  0  0  0  0  0  0
   34.1956  -20.5782   36.7406 C   0  0  0  0  0  0  0  0  0  0  0  0
   35.1620  -20.6261   37.8861 C   0  0  0  0  0  0  0  0  0  0  0  0
   35.6050  -19.2269   38.2521 C   0  0  0  0  0  0  0  0  0  0  0  0
   36.1943  -18.5978   37.0079 C   0  0  0  0  0  0  0  0  0  0  0  0
   36.1808  -13.9525   36.4696 C   0  0  0  0  0  0  0  0  0  0  0  0
   36.0109  -15.3066   36.1776 C   0  0  0  0  0  0  0  0  0  0  0  0
   34.7997  -15.8932   35.9982 C   0  0  0  0  0  0  0  0  0  0  0  0
   33.6965  -15.0130   36.1353 C   0  0  0  0  0  0  0  0  0  0  0  0
   33.8350  -13.6826   36.4220 C   0  0  0  0  0  0  0  0  0  0  0  0
   35.0920  -13.1473   36.5902 C   0  0  0  0  0  0  0  0  0  0  0  0
   38.2086  -13.5112   37.8009 C   0  0  0  0  0  0  0  0  0  0  0  0
   37.4574  -13.4819   36.6250 O   0  0  0  0  0  0  0  0  0  0  0  0
   32.6888  -12.8715   36.5427 O   0  0  0  0  0  0  0  0  0  0  0  0
   32.1441  -12.7053   37.8322 C   0  0  0  0  0  0  0  0  0  0  0  0
   35.1996  -11.7812   36.8816 O   0  0  0  0  0  0  0  0  0  0  0  0
   35.4563  -10.8148   35.8916 C   0  0  0  0  0  0  0  0  0  0  0  0
   36.3334  -21.4034   37.6168 N   0  0  0  0  0  0  0  0  0  0  0  0
   36.5106  -21.8281   36.7054 H   0  0  0  0  0  0  0  0  0  0  0  0
   37.3150  -21.5943   38.6540 C   0  0  0  0  0  0  0  0  0  0  0  0
   38.4703  -21.0008   38.8398 N   0  0  0  0  0  0  0  0  0  0  0  0
   39.2347  -21.3054   39.8462 C   0  0  0  0  0  0  0  0  0  0  0  0
   38.7642  -22.2801   40.6991 C   0  0  0  0  0  0  0  0  0  0  0  0
   37.2661  -22.6805   39.9905 S   0  0  0  0  0  0  0  0  0  0  0  0
   40.5417  -20.6373   40.0596 C   0  0  0  0  0  0  0  0  0  0  0  0
   41.0925  -19.9377   39.0252 C   0  0  0  0  0  0  0  0  0  0  0  0
   42.3243  -19.3026   39.2127 C   0  0  0  0  0  0  0  0  0  0  0  0
   42.9619  -19.3882   40.4247 C   0  0  0  0  0  0  0  0  0  0  0  0
   44.1531  -18.7672   40.5877 F   0  0  0  0  0  0  0  0  0  0  0  0
   42.4263  -20.0843   41.4731 C   0  0  0  0  0  0  0  0  0  0  0  0
   41.1959  -20.7111   41.2651 C   0  0  0  0  0  0  0  0  0  0  0  0
   43.1038  -20.1452   42.6804 O   0  0  0  0  0  0  0  0  0  0  0  0
   42.6906  -19.3166   43.7732 C   0  0  0  0  0  0  0  0  0  0  0  0
 15 16  1  0  0  0
 16  9  1  0  0  0
  9 10  2  0  0  0
 10 11  1  0  0  0
 11 12  2  0  0  0
 12 13  1  0  0  0
 13 17  1  0  0  0
 17 18  1  0  0  0
 13 14  2  0  0  0
 14 19  1  0  0  0
 19 20  1  0  0  0
 11  1  1  0  0  0
  1  2  2  0  0  0
  1  3  1  0  0  0
  3  4  1  0  0  0
  4  5  1  0  0  0
  5  6  1  0  0  0
  6  7  1  0  0  0
  7  8  1  0  0  0
  6 21  1  0  0  0
 21 23  1  0  0  0
 23 24  2  0  0  0
 24 25  1  0  0  0
 25 26  2  0  0  0
 26 27  1  0  0  0
 25 28  1  0  0  0
 28 29  2  0  0  0
 29 30  1  0  0  0
 30 31  2  0  0  0
 31 32  1  0  0  0
 31 33  1  0  0  0
 33 35  1  0  0  0
 35 36  1  0  0  0
 33 34  2  0  0  0
 14  9  1  0  0  0
  8  3  1  0  0  0
 27 23  1  0  0  0
 34 28  1  0  0  0
 21 22  1  0  0  0
M  END
> <minimizedAffinity>
-6.61648

> <CNNscore>
0.3352217376

> <CNNaffinity>
5.9193129539

> <CNN_VS>
1.9842823744

> <CNNaffinity_variance>
0.0812569633

$$$$
[H]c1sc(N([H])C2([H])C([H])([H])C([H])([H])N(C(=O)c3c([H])c(OC([H])([H])[H])c(OC([H])([H])[H])c(OC([H])([H])[H])c3[H])C([H])([H])C2([H])[H])nc1-c1c([H])c([H])c(F)c(OC([H])([H])[H])c1[H]


 36 39  0  0  0  0  0  0  0  0999 V2000
   40.3783  -19.4307   35.0682 C   0  0  0  0  0  0  0  0  0  0  0  0
   41.0791  -18.6135   34.2705 O   0  0  0  0  0  0  0  0  0  0  0  0
   39.0382  -19.4990   34.8181 N   0  0  0  0  0  0  0  0  0  0  0  0
   38.4396  -18.6051   33.7436 C   0  0  0  0  0  0  0  0  0  0  0  0
   37.3305  -17.8161   34.3567 C   0  0  0  0  0  0  0  0  0  0  0  0
   36.3644  -18.5968   35.1967 C   0  0  0  0  0  0  0  0  0  0  0  0
   37.1151  -19.4725   36.1753 C   0  0  0  0  0  0  0  0  0  0  0  0
   38.0467  -20.3546   35.3722 C   0  0  0  0  0  0  0  0  0  0  0  0
   43.0387  -21.4375   36.8474 C   0  0  0  0  0  0  0  0  0  0  0  0
   42.2680  -20.8681   35.8328 C   0  0  0  0  0  0  0  0  0  0  0  0
   41.1683  -20.1046   36.0594 C   0  0  0  0  0  0  0  0  0  0  0  0
   40.8509  -19.9269   37.4298 C   0  0  0  0  0  0  0  0  0  0  0  0
   41.5885  -20.4746   38.4434 C   0  0  0  0  0  0  0  0  0  0  0  0
   42.6952  -21.2378   38.1476 C   0  0  0  0  0  0  0  0  0  0  0  0
   44.1739  -23.5775   36.3878 C   0  0  0  0  0  0  0  0  0  0  0  0
   44.1273  -22.1861   36.4868 O   0  0  0  0  0  0  0  0  0  0  0  0
   41.2085  -20.2523   39.7822 O   0  0  0  0  0  0  0  0  0  0  0  0
   41.7671  -19.1369   40.4389 C   0  0  0  0  0  0  0  0  0  0  0  0
   43.4299  -21.7833   39.2084 O   0  0  0  0  0  0  0  0  0  0  0  0
   44.6220  -21.2030   39.6797 C   0  0  0  0  0  0  0  0  0  0  0  0
   35.4895  -19.4358   34.4353 N   0  0  0  0  0  0  0  0  0  0  0  0
   35.8341  -20.0873   33.7287 H   0  0  0  0  0  0  0  0  0  0  0  0
   34.0689  -19.3810   34.6691 C   0  0  0  0  0  0  0  0  0  0  0  0
   33.2022  -20.3542   34.8205 N   0  0  0  0  0  0  0  0  0  0  0  0
   31.9415  -20.1131   35.0269 C   0  0  0  0  0  0  0  0  0  0  0  0
   31.5724  -18.7864   35.0770 C   0  0  0  0  0  0  0  0  0  0  0  0
   33.0601  -17.9930   34.8244 S   0  0  0  0  0  0  0  0  0  0  0  0
   30.9582  -21.2103   35.1982 C   0  0  0  0  0  0  0  0  0  0  0  0
   29.7324  -20.9114   35.7186 C   0  0  0  0  0  0  0  0  0  0  0  0
   28.7955  -21.9362   35.8852 C   0  0  0  0  0  0  0  0  0  0  0  0
   29.1150  -23.2216   35.5270 C   0  0  0  0  0  0  0  0  0  0  0  0
   28.1957  -24.2003   35.6956 F   0  0  0  0  0  0  0  0  0  0  0  0
   30.3377  -23.5411   35.0041 C   0  0  0  0  0  0  0  0  0  0  0  0
   31.2587  -22.5035   34.8459 C   0  0  0  0  0  0  0  0  0  0  0  0
   30.6191  -24.8524   34.6555 O   0  0  0  0  0  0  0  0  0  0  0  0
   31.1217  -25.1511   33.3480 C   0  0  0  0  0  0  0  0  0  0  0  0
 15 16  1  0  0  0
 16  9  1  0  0  0
  9 10  2  0  0  0
 10 11  1  0  0  0
 11 12  2  0  0  0
 12 13  1  0  0  0
 13 17  1  0  0  0
 17 18  1  0  0  0
 13 14  2  0  0  0
 14 19  1  0  0  0
 19 20  1  0  0  0
 11  1  1  0  0  0
  1  2  2  0  0  0
  1  3  1  0  0  0
  3  4  1  0  0  0
  4  5  1  0  0  0
  5  6  1  0  0  0
  6  7  1  0  0  0
  7  8  1  0  0  0
  6 21  1  0  0  0
 21 23  1  0  0  0
 23 24  2  0  0  0
 24 25  1  0  0  0
 25 26  2  0  0  0
 26 27  1  0  0  0
 25 28  1  0  0  0
 28 29  2  0  0  0
 29 30  1  0  0  0
 30 31  2  0  0  0
 31 32  1  0  0  0
 31 33  1  0  0  0
 33 35  1  0  0  0
 35 36  1  0  0  0
 33 34  2  0  0  0
 14  9  1  0  0  0
  8  3  1  0  0  0
 27 23  1  0  0  0
 34 28  1  0  0  0
 21 22  1  0  0  0
M  END
> <minimizedAffinity>
-5.54322

> <CNNscore>
0.3209581375

> <CNNaffinity>
5.3833465576

> <CNN_VS>
1.7278288603

> <CNNaffinity_variance>
0.1026342660

$$$$
[H]c1sc(N([H])C2([H])C([H])([H])C([H])([H])N(C(=O)c3c([H])c(OC([H])([H])[H])c(OC([H])([H])[H])c(OC([H])([H])[H])c3[H])C([H])([H])C2([H])[H])nc1-c1c([H])c([H])c(F)c(OC([H])([H])[H])c1[H]


 36 39  0  0  0  0  0  0  0  0999 V2000
   40.0160  -21.3564   37.5316 C   0  0  0  0  0  0  0  0  0  0  0  0
   40.8446  -22.3294   37.1290 O   0  0  0  0  0  0  0  0  0  0  0  0
   39.0802  -20.9589   36.6210 N   0  0  0  0  0  0  0  0  0  0  0  0
   39.0990  -21.5668   35.2274 C   0  0  0  0  0  0  0  0  0  0  0  0
   39.1714  -20.4552   34.2337 C   0  0  0  0  0  0  0  0  0  0  0  0
   38.2191  -19.3190   34.4586 C   0  0  0  0  0  0  0  0  0  0  0  0
   38.2816  -18.8652   35.9002 C   0  0  0  0  0  0  0  0  0  0  0  0
   37.9812  -20.0684   36.7679 C   0  0  0  0  0  0  0  0  0  0  0  0
   39.8946  -20.8251   41.2698 C   0  0  0  0  0  0  0  0  0  0  0  0
   39.5644  -21.2510   39.9825 C   0  0  0  0  0  0  0  0  0  0  0  0
   40.2565  -20.8957   38.8698 C   0  0  0  0  0  0  0  0  0  0  0  0
   41.3601  -20.0397   39.1149 C   0  0  0  0  0  0  0  0  0  0  0  0
   41.7047  -19.6068   40.3660 C   0  0  0  0  0  0  0  0  0  0  0  0
   40.9631  -20.0052   41.4551 C   0  0  0  0  0  0  0  0  0  0  0  0
   38.0602  -22.1652   42.2282 C   0  0  0  0  0  0  0  0  0  0  0  0
   39.1169  -21.2571   42.3109 O   0  0  0  0  0  0  0  0  0  0  0  0
   42.8166  -18.7562   40.5287 O   0  0  0  0  0  0  0  0  0  0  0  0
   44.0855  -19.2773   40.2038 C   0  0  0  0  0  0  0  0  0  0  0  0
   41.3431  -19.5453   42.7227 O   0  0  0  0  0  0  0  0  0  0  0  0
   42.2257  -20.2603   43.5532 C   0  0  0  0  0  0  0  0  0  0  0  0
   36.8578  -19.6427   34.1568 N   0  0  0  0  0  0  0  0  0  0  0  0
   36.5993  -20.4648   33.6092 H   0  0  0  0  0  0  0  0  0  0  0  0
   35.7996  -18.7956   34.6452 C   0  0  0  0  0  0  0  0  0  0  0  0
   35.8384  -17.5483   35.0502 N   0  0  0  0  0  0  0  0  0  0  0  0
   34.7684  -16.9359   35.4625 C   0  0  0  0  0  0  0  0  0  0  0  0
   33.6009  -17.6678   35.4492 C   0  0  0  0  0  0  0  0  0  0  0  0
   34.1307  -19.1725   34.8477 S   0  0  0  0  0  0  0  0  0  0  0  0
   34.8079  -15.5260   35.9216 C   0  0  0  0  0  0  0  0  0  0  0  0
   36.0225  -14.9182   36.0556 C   0  0  0  0  0  0  0  0  0  0  0  0
   36.0744  -13.5890   36.4874 C   0  0  0  0  0  0  0  0  0  0  0  0
   34.9134  -12.9144   36.7697 C   0  0  0  0  0  0  0  0  0  0  0  0
   34.9832  -11.6288   37.1864 F   0  0  0  0  0  0  0  0  0  0  0  0
   33.6870  -13.5060   36.6417 C   0  0  0  0  0  0  0  0  0  0  0  0
   33.6571  -14.8335   36.2094 C   0  0  0  0  0  0  0  0  0  0  0  0
   32.5391  -12.7882   36.9374 O   0  0  0  0  0  0  0  0  0  0  0  0
   32.0612  -12.7305   38.2864 C   0  0  0  0  0  0  0  0  0  0  0  0
 15 16  1  0  0  0
 16  9  1  0  0  0
  9 10  2  0  0  0
 10 11  1  0  0  0
 11 12  2  0  0  0
 12 13  1  0  0  0
 13 17  1  0  0  0
 17 18  1  0  0  0
 13 14  2  0  0  0
 14 19  1  0  0  0
 19 20  1  0  0  0
 11  1  1  0  0  0
  1  2  2  0  0  0
  1  3  1  0  0  0
  3  4  1  0  0  0
  4  5  1  0  0  0
  5  6  1  0  0  0
  6  7  1  0  0  0
  7  8  1  0  0  0
  6 21  1  0  0  0
 21 23  1  0  0  0
 23 24  2  0  0  0
 24 25  1  0  0  0
 25 26  2  0  0  0
 26 27  1  0  0  0
 25 28  1  0  0  0
 28 29  2  0  0  0
 29 30  1  0  0  0
 30 31  2  0  0  0
 31 32  1  0  0  0
 31 33  1  0  0  0
 33 35  1  0  0  0
 35 36  1  0  0  0
 33 34  2  0  0  0
 14  9  1  0  0  0
  8  3  1  0  0  0
 27 23  1  0  0  0
 34 28  1  0  0  0
 21 22  1  0  0  0
M  END
> <minimizedAffinity>
-7.13834

> <CNNscore>
0.2802422941

> <CNNaffinity>
5.9487271309

> <CNN_VS>
1.6670849323

> <CNNaffinity_variance>
0.3026588559

$$$$
[H]c1c(N([H])C(=O)[C@@]2([H])N(C(=O)c3c([H])c([H])c(F)c([H])c3[H])C([H])([H])c3c([H])c([H])c([H])c([H])c3C2([H])[H])noc1C(C([H])([H])[H])(C([H])([H])[H])C([H])([H])[H]


 32 35  0  0  0  0  0  0  0  0999 V2000
   33.4808  -13.2379   36.1596 C   0  0  0  0  0  0  0  0  0  0  0  0
   34.7685  -12.5923   35.7184 C   0  0  0  0  0  0  0  0  0  0  0  0
   35.9281  -12.9948   36.5457 C   0  0  0  0  0  0  0  0  0  0  0  0
   37.2102  -12.6212   36.1297 C   0  0  0  0  0  0  0  0  0  0  0  0
   38.3458  -12.9445   36.8324 C   0  0  0  0  0  0  0  0  0  0  0  0
   38.1902  -13.6688   37.9932 C   0  0  0  0  0  0  0  0  0  0  0  0
   36.9425  -14.0498   38.4262 C   0  0  0  0  0  0  0  0  0  0  0  0
   35.8025  -13.7125   37.6991 C   0  0  0  0  0  0  0  0  0  0  0  0
   34.4975  -14.1641   38.1950 C   0  0  0  0  0  0  0  0  0  0  0  0
   33.3901  -13.3991   37.5869 N   0  0  0  0  0  0  0  0  0  0  0  0
   32.3964  -12.9543   38.4809 C   0  0  0  0  0  0  0  0  0  0  0  0
   32.6209  -13.1976   39.7553 O   0  0  0  0  0  0  0  0  0  0  0  0
   31.1603  -12.2634   38.2619 C   0  0  0  0  0  0  0  0  0  0  0  0
   30.9370  -11.1327   37.5278 C   0  0  0  0  0  0  0  0  0  0  0  0
   29.7080  -10.4505   37.4889 C   0  0  0  0  0  0  0  0  0  0  0  0
   28.6387  -10.9106   38.2131 C   0  0  0  0  0  0  0  0  0  0  0  0
   27.4398  -10.2557   38.1845 F   0  0  0  0  0  0  0  0  0  0  0  0
   28.8268  -12.0452   38.9568 C   0  0  0  0  0  0  0  0  0  0  0  0
   30.0249  -12.7072   38.9930 C   0  0  0  0  0  0  0  0  0  0  0  0
   33.7804  -15.7416   36.1669 N   0  0  0  0  0  0  0  0  0  0  0  0
   33.3195  -14.5649   35.5578 C   0  0  0  0  0  0  0  0  0  0  0  0
   32.7296  -14.6540   34.4283 O   0  0  0  0  0  0  0  0  0  0  0  0
   34.2607  -15.7805   37.0834 H   0  0  0  0  0  0  0  0  0  0  0  0
   32.8319  -19.0285   34.9172 C   0  0  0  0  0  0  0  0  0  0  0  0
   32.6254  -17.9495   35.7715 C   0  0  0  0  0  0  0  0  0  0  0  0
   33.6090  -17.0081   35.5003 C   0  0  0  0  0  0  0  0  0  0  0  0
   34.3547  -17.5443   34.5173 N   0  0  0  0  0  0  0  0  0  0  0  0
   33.8720  -18.7234   34.2017 O   0  0  0  0  0  0  0  0  0  0  0  0
   32.5027  -21.2026   33.9057 C   0  0  0  0  0  0  0  0  0  0  0  0
   31.9636  -20.2451   34.9071 C   0  0  0  0  0  0  0  0  0  0  0  0
   30.5489  -19.8357   34.5381 C   0  0  0  0  0  0  0  0  0  0  0  0
   31.9254  -20.8279   36.3113 C   0  0  0  0  0  0  0  0  0  0  0  0
 29 30  1  0  0  0
 30 31  1  0  0  0
 30 32  1  0  0  0
 30 24  1  0  0  0
 24 25  2  0  0  0
 25 26  1  0  0  0
 26 20  1  0  0  0
 20 21  1  0  0  0
 21 22  2  0  0  0
 21  1  1  0  0  0
  1  2  1  0  0  0
  2  3  1  0  0  0
  3  4  2  0  0  0
  4  5  1  0  0  0
  5  6  2  0  0  0
  6  7  1  0  0  0
  7  8  2  0  0  0
  8  9  1  0  0  0
  9 10  1  0  0  0
 10 11  1  0  0  0
 11 12  2  0  0  0
 11 13  1  0  0  0
 13 14  2  0  0  0
 14 15  1  0  0  0
 15 16  2  0  0  0
 16 17  1  0  0  0
 16 18  1  0  0  0
 18 19  2  0  0  0
 26 27  2  0  0  0
 27 28  1  0  0  0
 28 24  1  0  0  0
 10  1  1  0  0  0
 19 13  1  0  0  0
  8  3  1  0  0  0
 20 23  1  0  0  0
M  END
> <minimizedAffinity>
-4.99093

> <CNNscore>
0.5018819571

> <CNNaffinity>
6.0937428474

> <CNN_VS>
3.0583395958

> <CNNaffinity_variance>
0.2427781075

$$$$
[H]c1c(N([H])C(=O)[C@@]2([H])N(C(=O)c3c([H])c([H])c(F)c([H])c3[H])C([H])([H])c3c([H])c([H])c([H])c([H])c3C2([H])[H])noc1C(C([H])([H])[H])(C([H])([H])[H])C([H])([H])[H]


 32 35  0  0  0  0  0  0  0  0999 V2000
   39.3448  -22.0057   38.5997 C   0  0  0  0  0  0  0  0  0  0  0  0
   39.3544  -23.5064   38.7307 C   0  0  0  0  0  0  0  0  0  0  0  0
   38.7247  -23.9796   39.9841 C   0  0  0  0  0  0  0  0  0  0  0  0
   38.4956  -25.3503   40.1431 C   0  0  0  0  0  0  0  0  0  0  0  0
   37.9210  -25.8840   41.2713 C   0  0  0  0  0  0  0  0  0  0  0  0
   37.5627  -25.0123   42.2752 C   0  0  0  0  0  0  0  0  0  0  0  0
   37.7756  -23.6605   42.1464 C   0  0  0  0  0  0  0  0  0  0  0  0
   38.3595  -23.1382   40.9939 C   0  0  0  0  0  0  0  0  0  0  0  0
   38.5431  -21.6855   40.8995 C   0  0  0  0  0  0  0  0  0  0  0  0
   39.5257  -21.3280   39.8564 N   0  0  0  0  0  0  0  0  0  0  0  0
   40.4842  -20.3653   40.2293 C   0  0  0  0  0  0  0  0  0  0  0  0
   40.4413  -19.9692   41.4844 O   0  0  0  0  0  0  0  0  0  0  0  0
   41.5280  -19.7246   39.4856 C   0  0  0  0  0  0  0  0  0  0  0  0
   42.6962  -19.1884   39.9494 C   0  0  0  0  0  0  0  0  0  0  0  0
   43.5945  -18.4542   39.1547 C   0  0  0  0  0  0  0  0  0  0  0  0
   43.3263  -18.2385   37.8277 C   0  0  0  0  0  0  0  0  0  0  0  0
   44.1907  -17.5255   37.0456 F   0  0  0  0  0  0  0  0  0  0  0  0
   42.1652  -18.7664   37.3288 C   0  0  0  0  0  0  0  0  0  0  0  0
   41.2923  -19.4807   38.1051 C   0  0  0  0  0  0  0  0  0  0  0  0
   37.6419  -20.2044   38.1371 N   0  0  0  0  0  0  0  0  0  0  0  0
   38.0826  -21.5315   38.0241 C   0  0  0  0  0  0  0  0  0  0  0  0
   37.3522  -22.3644   37.3882 O   0  0  0  0  0  0  0  0  0  0  0  0
   38.1615  -19.4511   38.6213 H   0  0  0  0  0  0  0  0  0  0  0  0
   34.8097  -19.0646   36.1511 C   0  0  0  0  0  0  0  0  0  0  0  0
   36.1697  -19.3268   36.2857 C   0  0  0  0  0  0  0  0  0  0  0  0
   36.3751  -19.8193   37.5673 C   0  0  0  0  0  0  0  0  0  0  0  0
   35.1594  -19.8327   38.1434 N   0  0  0  0  0  0  0  0  0  0  0  0
   34.2699  -19.3862   37.2878 O   0  0  0  0  0  0  0  0  0  0  0  0
   33.0923  -19.4288   34.4848 C   0  0  0  0  0  0  0  0  0  0  0  0
   34.1980  -18.5250   34.8985 C   0  0  0  0  0  0  0  0  0  0  0  0
   35.2630  -18.4647   33.8182 C   0  0  0  0  0  0  0  0  0  0  0  0
   33.7239  -17.1041   35.1609 C   0  0  0  0  0  0  0  0  0  0  0  0
 29 30  1  0  0  0
 30 31  1  0  0  0
 30 32  1  0  0  0
 30 24  1  0  0  0
 24 25  2  0  0  0
 25 26  1  0  0  0
 26 20  1  0  0  0
 20 21  1  0  0  0
 21 22  2  0  0  0
 21  1  1  0  0  0
  1  2  1  0  0  0
  2  3  1  0  0  0
  3  4  2  0  0  0
  4  5  1  0  0  0
  5  6  2  0  0  0
  6  7  1  0  0  0
  7  8  2  0  0  0
  8  9  1  0  0  0
  9 10  1  0  0  0
 10 11  1  0  0  0
 11 12  2  0  0  0
 11 13  1  0  0  0
 13 14  2  0  0  0
 14 15  1  0  0  0
 15 16  2  0  0  0
 16 17  1  0  0  0
 16 18  1  0  0  0
 18 19  2  0  0  0
 26 27  2  0  0  0
 27 28  1  0  0  0
 28 24  1  0  0  0
 10  1  1  0  0  0
 19 13  1  0  0  0
  8  3  1  0  0  0
 20 23  1  0  0  0
M  END
> <minimizedAffinity>
-4.91038

> <CNNscore>
0.4410368204

> <CNNaffinity>
5.3318238258

> <CNN_VS>
2.3515305519

> <CNNaffinity_variance>
0.0777172223

$$$$
[H]c1c(N([H])C(=O)[C@@]2([H])N(C(=O)c3c([H])c([H])c(F)c([H])c3[H])C([H])([H])c3c([H])c([H])c([H])c([H])c3C2([H])[H])noc1C(C([H])([H])[H])(C([H])([H])[H])C([H])([H])[H]


 32 35  0  0  0  0  0  0  0  0999 V2000
   37.6263  -22.5200   37.2375 C   0  0  0  0  0  0  0  0  0  0  0  0
   37.6741  -23.8974   37.8458 C   0  0  0  0  0  0  0  0  0  0  0  0
   37.7677  -23.8722   39.3230 C   0  0  0  0  0  0  0  0  0  0  0  0
   37.6275  -25.0744   40.0240 C   0  0  0  0  0  0  0  0  0  0  0  0
   37.7031  -25.1518   41.3938 C   0  0  0  0  0  0  0  0  0  0  0  0
   37.9264  -23.9820   42.0850 C   0  0  0  0  0  0  0  0  0  0  0  0
   38.0679  -22.7860   41.4226 C   0  0  0  0  0  0  0  0  0  0  0  0
   37.9876  -22.7280   40.0325 C   0  0  0  0  0  0  0  0  0  0  0  0
   38.1234  -21.4218   39.3779 C   0  0  0  0  0  0  0  0  0  0  0  0
   38.4385  -21.5631   37.9419 N   0  0  0  0  0  0  0  0  0  0  0  0
   39.4700  -20.7326   37.4617 C   0  0  0  0  0  0  0  0  0  0  0  0
   40.0841  -19.9992   38.3667 O   0  0  0  0  0  0  0  0  0  0  0  0
   39.9962  -20.5348   36.1437 C   0  0  0  0  0  0  0  0  0  0  0  0
   40.8927  -21.3082   35.4615 C   0  0  0  0  0  0  0  0  0  0  0  0
   41.4553  -20.9526   34.2227 C   0  0  0  0  0  0  0  0  0  0  0  0
   41.1128  -19.7686   33.6223 C   0  0  0  0  0  0  0  0  0  0  0  0
   41.6537  -19.4114   32.4194 F   0  0  0  0  0  0  0  0  0  0  0  0
   40.2125  -18.9710   34.2772 C   0  0  0  0  0  0  0  0  0  0  0  0
   39.6665  -19.3198   35.4836 C   0  0  0  0  0  0  0  0  0  0  0  0
   35.1388  -22.7685   37.5677 N   0  0  0  0  0  0  0  0  0  0  0  0
   36.2565  -21.9982   37.2133 C   0  0  0  0  0  0  0  0  0  0  0  0
   36.0726  -20.7858   36.8557 O   0  0  0  0  0  0  0  0  0  0  0  0
   35.1791  -23.7547   37.8804 H   0  0  0  0  0  0  0  0  0  0  0  0
   31.7679  -21.6364   36.7798 C   0  0  0  0  0  0  0  0  0  0  0  0
   32.9004  -22.3831   36.4692 C   0  0  0  0  0  0  0  0  0  0  0  0
   33.8192  -22.1933   37.4926 C   0  0  0  0  0  0  0  0  0  0  0  0
   33.2199  -21.3571   38.3595 N   0  0  0  0  0  0  0  0  0  0  0  0
   32.0241  -21.0533   37.9118 O   0  0  0  0  0  0  0  0  0  0  0  0
   30.4613  -22.8688   35.1575 C   0  0  0  0  0  0  0  0  0  0  0  0
   30.5515  -21.5912   35.9124 C   0  0  0  0  0  0  0  0  0  0  0  0
   30.6742  -20.4195   34.9549 C   0  0  0  0  0  0  0  0  0  0  0  0
   29.3353  -21.3450   36.7917 C   0  0  0  0  0  0  0  0  0  0  0  0
 29 30  1  0  0  0
 30 31  1  0  0  0
 30 32  1  0  0  0
 30 24  1  0  0  0
 24 25  2  0  0  0
 25 26  1  0  0  0
 26 20  1  0  0  0
 20 21  1  0  0  0
 21 22  2  0  0  0
 21  1  1  0  0  0
  1  2  1  0  0  0
  2  3  1  0  0  0
  3  4  2  0  0  0
  4  5  1  0  0  0
  5  6  2  0  0  0
  6  7  1  0  0  0
  7  8  2  0  0  0
  8  9  1  0  0  0
  9 10  1  0  0  0
 10 11  1  0  0  0
 11 12  2  0  0  0
 11 13  1  0  0  0
 13 14  2  0  0  0
 14 15  1  0  0  0
 15 16  2  0  0  0
 16 17  1  0  0  0
 16 18  1  0  0  0
 18 19  2  0  0  0
 26 27  2  0  0  0
 27 28  1  0  0  0
 28 24  1  0  0  0
 10  1  1  0  0  0
 19 13  1  0  0  0
  8  3  1  0  0  0
 20 23  1  0  0  0
M  END
> <minimizedAffinity>
-4.00062

> <CNNscore>
0.3899547458

> <CNNaffinity>
5.1570420265

> <CNN_VS>
2.0110130310

> <CNNaffinity_variance>
0.1831046790

$$$$
[H]c1c(N([H])C(=O)[C@@]2([H])N(C(=O)c3c([H])c([H])c(F)c([H])c3[H])C([H])([H])c3c([H])c([H])c([H])c([H])c3C2([H])[H])noc1C(C([H])([H])[H])(C([H])([H])[H])C([H])([H])[H]


 32 35  0  0  0  0  0  0  0  0999 V2000
   39.4233  -21.1843   37.0134 C   0  0  0  0  0  0  0  0  0  0  0  0
   39.3216  -22.6867   37.0572 C   0  0  0  0  0  0  0  0  0  0  0  0
   39.1150  -23.2107   38.4262 C   0  0  0  0  0  0  0  0  0  0  0  0
   38.8136  -24.5672   38.5862 C   0  0  0  0  0  0  0  0  0  0  0  0
   38.6092  -25.1455   39.8157 C   0  0  0  0  0  0  0  0  0  0  0  0
   38.7099  -24.3345   40.9240 C   0  0  0  0  0  0  0  0  0  0  0  0
   39.0046  -22.9980   40.7970 C   0  0  0  0  0  0  0  0  0  0  0  0
   39.2082  -22.4298   39.5408 C   0  0  0  0  0  0  0  0  0  0  0  0
   39.4978  -20.9936   39.4613 C   0  0  0  0  0  0  0  0  0  0  0  0
   40.0940  -20.6301   38.1599 N   0  0  0  0  0  0  0  0  0  0  0  0
   41.2166  -19.7813   38.2219 C   0  0  0  0  0  0  0  0  0  0  0  0
   41.6485  -19.4889   39.4310 O   0  0  0  0  0  0  0  0  0  0  0  0
   42.0020  -19.1663   37.1933 C   0  0  0  0  0  0  0  0  0  0  0  0
   41.5900  -18.3276   36.1962 C   0  0  0  0  0  0  0  0  0  0  0  0
   42.4170  -17.8868   35.1477 C   0  0  0  0  0  0  0  0  0  0  0  0
   43.7241  -18.2946   35.0801 C   0  0  0  0  0  0  0  0  0  0  0  0
   44.5372  -17.8743   34.0655 F   0  0  0  0  0  0  0  0  0  0  0  0
   44.1714  -19.1325   36.0669 C   0  0  0  0  0  0  0  0  0  0  0  0
   43.3636  -19.5602   37.0866 C   0  0  0  0  0  0  0  0  0  0  0  0
   36.9111  -21.3074   36.8349 N   0  0  0  0  0  0  0  0  0  0  0  0
   38.0967  -20.5648   36.9402 C   0  0  0  0  0  0  0  0  0  0  0  0
   38.0166  -19.2905   36.9768 O   0  0  0  0  0  0  0  0  0  0  0  0
   36.8650  -22.3414   36.8077 H   0  0  0  0  0  0  0  0  0  0  0  0
   33.8424  -19.5677   35.9284 C   0  0  0  0  0  0  0  0  0  0  0  0
   35.0351  -20.1894   35.5714 C   0  0  0  0  0  0  0  0  0  0  0  0
   35.6446  -20.6256   36.7401 C   0  0  0  0  0  0  0  0  0  0  0  0
   34.8161  -20.2566   37.7337 N   0  0  0  0  0  0  0  0  0  0  0  0
   33.7745  -19.6423   37.2233 O   0  0  0  0  0  0  0  0  0  0  0  0
   33.3828  -17.6105   34.5808 C   0  0  0  0  0  0  0  0  0  0  0  0
   32.8987  -18.9709   34.9348 C   0  0  0  0  0  0  0  0  0  0  0  0
   31.5154  -18.8942   35.5557 C   0  0  0  0  0  0  0  0  0  0  0  0
   32.8141  -19.8931   33.7285 C   0  0  0  0  0  0  0  0  0  0  0  0
 29 30  1  0  0  0
 30 31  1  0  0  0
 30 32  1  0  0  0
 30 24  1  0  0  0
 24 25  2  0  0  0
 25 26  1  0  0  0
 26 20  1  0  0  0
 20 21  1  0  0  0
 21 22  2  0  0  0
 21  1  1  0  0  0
  1  2  1  0  0  0
  2  3  1  0  0  0
  3  4  2  0  0  0
  4  5  1  0  0  0
  5  6  2  0  0  0
  6  7  1  0  0  0
  7  8  2  0  0  0
  8  9  1  0  0  0
  9 10  1  0  0  0
 10 11  1  0  0  0
 11 12  2  0  0  0
 11 13  1  0  0  0
 13 14  2  0  0  0
 14 15  1  0  0  0
 15 16  2  0  0  0
 16 17  1  0  0  0
 16 18  1  0  0  0
 18 19  2  0  0  0
 26 27  2  0  0  0
 27 28  1  0  0  0
 28 24  1  0  0  0
 10  1  1  0  0  0
 19 13  1  0  0  0
  8  3  1  0  0  0
 20 23  1  0  0  0
M  END
> <minimizedAffinity>
-4.55616

> <CNNscore>
0.3538887799

> <CNNaffinity>
5.1901435852

> <CNN_VS>
1.8367335796

> <CNNaffinity_variance>
0.2092967927

$$$$
[H]c1c(N([H])C(=O)[C@@]2([H])N(C(=O)c3c([H])c([H])c(F)c([H])c3[H])C([H])([H])c3c([H])c([H])c([H])c([H])c3C2([H])[H])noc1C(C([H])([H])[H])(C([H])([H])[H])C([H])([H])[H]


 32 35  0  0  0  0  0  0  0  0999 V2000
   35.9582  -20.2589   37.3876 C   0  0  0  0  0  0  0  0  0  0  0  0
   35.9739  -18.9631   38.1558 C   0  0  0  0  0  0  0  0  0  0  0  0
   36.1116  -17.7765   37.2816 C   0  0  0  0  0  0  0  0  0  0  0  0
   35.9485  -16.5065   37.8448 C   0  0  0  0  0  0  0  0  0  0  0  0
   36.0613  -15.3475   37.1155 C   0  0  0  0  0  0  0  0  0  0  0  0
   36.3471  -15.4663   35.7737 C   0  0  0  0  0  0  0  0  0  0  0  0
   36.5124  -16.7012   35.1932 C   0  0  0  0  0  0  0  0  0  0  0  0
   36.3935  -17.8655   35.9498 C   0  0  0  0  0  0  0  0  0  0  0  0
   36.5573  -19.1580   35.2750 C   0  0  0  0  0  0  0  0  0  0  0  0
   36.8248  -20.2448   36.2387 N   0  0  0  0  0  0  0  0  0  0  0  0
   37.8713  -21.1213   35.8907 C   0  0  0  0  0  0  0  0  0  0  0  0
   38.5378  -20.8135   34.7976 O   0  0  0  0  0  0  0  0  0  0  0  0
   38.3654  -22.3099   36.5201 C   0  0  0  0  0  0  0  0  0  0  0  0
   37.7860  -23.5463   36.5751 C   0  0  0  0  0  0  0  0  0  0  0  0
   38.2859  -24.6156   37.3395 C   0  0  0  0  0  0  0  0  0  0  0  0
   39.4221  -24.4569   38.0900 C   0  0  0  0  0  0  0  0  0  0  0  0
   39.9169  -25.4880   38.8380 F   0  0  0  0  0  0  0  0  0  0  0  0
   40.0313  -23.2308   38.0540 C   0  0  0  0  0  0  0  0  0  0  0  0
   39.5420  -22.1913   37.3088 C   0  0  0  0  0  0  0  0  0  0  0  0
   34.3074  -21.7418   36.1899 N   0  0  0  0  0  0  0  0  0  0  0  0
   34.6081  -20.5784   36.9140 C   0  0  0  0  0  0  0  0  0  0  0  0
   33.6616  -19.7612   37.1750 O   0  0  0  0  0  0  0  0  0  0  0  0
   34.9969  -22.4711   35.9355 H   0  0  0  0  0  0  0  0  0  0  0  0
   30.8380  -22.6873   35.6116 C   0  0  0  0  0  0  0  0  0  0  0  0
   31.9797  -22.6905   36.4073 C   0  0  0  0  0  0  0  0  0  0  0  0
   32.9598  -21.9738   35.7340 C   0  0  0  0  0  0  0  0  0  0  0  0
   32.3852  -21.5773   34.5841 N   0  0  0  0  0  0  0  0  0  0  0  0
   31.1470  -22.0111   34.5467 O   0  0  0  0  0  0  0  0  0  0  0  0
   28.4354  -22.4242   35.7386 C   0  0  0  0  0  0  0  0  0  0  0  0
   29.5614  -23.3575   36.0056 C   0  0  0  0  0  0  0  0  0  0  0  0
   29.6230  -23.7019   37.4830 C   0  0  0  0  0  0  0  0  0  0  0  0
   29.4363  -24.6605   35.2314 C   0  0  0  0  0  0  0  0  0  0  0  0
 29 30  1  0  0  0
 30 31  1  0  0  0
 30 32  1  0  0  0
 30 24  1  0  0  0
 24 25  2  0  0  0
 25 26  1  0  0  0
 26 20  1  0  0  0
 20 21  1  0  0  0
 21 22  2  0  0  0
 21  1  1  0  0  0
  1  2  1  0  0  0
  2  3  1  0  0  0
  3  4  2  0  0  0
  4  5  1  0  0  0
  5  6  2  0  0  0
  6  7  1  0  0  0
  7  8  2  0  0  0
  8  9  1  0  0  0
  9 10  1  0  0  0
 10 11  1  0  0  0
 11 12  2  0  0  0
 11 13  1  0  0  0
 13 14  2  0  0  0
 14 15  1  0  0  0
 15 16  2  0  0  0
 16 17  1  0  0  0
 16 18  1  0  0  0
 18 19  2  0  0  0
 26 27  2  0  0  0
 27 28  1  0  0  0
 28 24  1  0  0  0
 10  1  1  0  0  0
 19 13  1  0  0  0
  8  3  1  0  0  0
 20 23  1  0  0  0
M  END
> <minimizedAffinity>
-5.43470

> <CNNscore>
0.2789112031

> <CNNaffinity>
5.1389198303

> <CNN_VS>
1.4333022833

> <CNNaffinity_variance>
0.7019104958

$$$$
[H]c1c(N([H])C(=O)[C@@]2([H])N(C(=O)c3c([H])c([H])c(F)c([H])c3[H])C([H])([H])c3c([H])c([H])c([H])c([H])c3C2([H])[H])noc1C(C([H])([H])[H])(C([H])([H])[H])C([H])([H])[H]


 32 35  0  0  0  0  0  0  0  0999 V2000
   35.8986  -19.1208   35.0244 C   0  0  0  0  0  0  0  0  0  0  0  0
   34.8032  -19.7189   34.1807 C   0  0  0  0  0  0  0  0  0  0  0  0
   33.7241  -20.3322   34.9874 C   0  0  0  0  0  0  0  0  0  0  0  0
   32.5583  -20.7521   34.3385 C   0  0  0  0  0  0  0  0  0  0  0  0
   31.5052  -21.3353   35.0010 C   0  0  0  0  0  0  0  0  0  0  0  0
   31.6252  -21.5026   36.3625 C   0  0  0  0  0  0  0  0  0  0  0  0
   32.7591  -21.0994   37.0266 C   0  0  0  0  0  0  0  0  0  0  0  0
   33.8166  -20.5093   36.3369 C   0  0  0  0  0  0  0  0  0  0  0  0
   34.9939  -20.0771   37.0984 C   0  0  0  0  0  0  0  0  0  0  0  0
   36.1648  -19.8745   36.2213 N   0  0  0  0  0  0  0  0  0  0  0  0
   37.3746  -20.4270   36.6858 C   0  0  0  0  0  0  0  0  0  0  0  0
   37.2951  -21.1293   37.7968 O   0  0  0  0  0  0  0  0  0  0  0  0
   38.7072  -20.3748   36.1619 C   0  0  0  0  0  0  0  0  0  0  0  0
   39.6973  -19.4767   36.4452 C   0  0  0  0  0  0  0  0  0  0  0  0
   40.9304  -19.4270   35.7710 C   0  0  0  0  0  0  0  0  0  0  0  0
   41.2028  -20.3144   34.7621 C   0  0  0  0  0  0  0  0  0  0  0  0
   42.3967  -20.2753   34.0986 F   0  0  0  0  0  0  0  0  0  0  0  0
   40.2333  -21.2319   34.4553 C   0  0  0  0  0  0  0  0  0  0  0  0
   39.0334  -21.2776   35.1135 C   0  0  0  0  0  0  0  0  0  0  0  0
   34.4223  -17.0770   34.9828 N   0  0  0  0  0  0  0  0  0  0  0  0
   35.5664  -17.7527   35.4331 C   0  0  0  0  0  0  0  0  0  0  0  0
   36.3532  -17.1494   36.2384 O   0  0  0  0  0  0  0  0  0  0  0  0
   33.7174  -17.4780   34.3390 H   0  0  0  0  0  0  0  0  0  0  0  0
   34.4520  -13.6648   36.2560 C   0  0  0  0  0  0  0  0  0  0  0  0
   35.1048  -14.8626   35.9806 C   0  0  0  0  0  0  0  0  0  0  0  0
   34.1768  -15.7217   35.4079 C   0  0  0  0  0  0  0  0  0  0  0  0
   33.0264  -15.0258   35.3631 N   0  0  0  0  0  0  0  0  0  0  0  0
   33.2242  -13.8296   35.8659 O   0  0  0  0  0  0  0  0  0  0  0  0
   34.1488  -11.7784   37.7419 C   0  0  0  0  0  0  0  0  0  0  0  0
   35.1289  -12.4849   36.8754 C   0  0  0  0  0  0  0  0  0  0  0  0
   35.6181  -11.5641   35.7719 C   0  0  0  0  0  0  0  0  0  0  0  0
   36.3463  -12.9710   37.6463 C   0  0  0  0  0  0  0  0  0  0  0  0
 29 30  1  0  0  0
 30 31  1  0  0  0
 30 32  1  0  0  0
 30 24  1  0  0  0
 24 25  2  0  0  0
 25 26  1  0  0  0
 26 20  1  0  0  0
 20 21  1  0  0  0
 21 22  2  0  0  0
 21  1  1  0  0  0
  1  2  1  0  0  0
  2  3  1  0  0  0
  3  4  2  0  0  0
  4  5  1  0  0  0
  5  6  2  0  0  0
  6  7  1  0  0  0
  7  8  2  0  0  0
  8  9  1  0  0  0
  9 10  1  0  0  0
 10 11  1  0  0  0
 11 12  2  0  0  0
 11 13  1  0  0  0
 13 14  2  0  0  0
 14 15  1  0  0  0
 15 16  2  0  0  0
 16 17  1  0  0  0
 16 18  1  0  0  0
 18 19  2  0  0  0
 26 27  2  0  0  0
 27 28  1  0  0  0
 28 24  1  0  0  0
 10  1  1  0  0  0
 19 13  1  0  0  0
  8  3  1  0  0  0
 20 23  1  0  0  0
M  END
> <minimizedAffinity>
-5.31468

> <CNNscore>
0.2576437593

> <CNNaffinity>
5.6069192886

> <CNN_VS>
1.4445877075

> <CNNaffinity_variance>
0.2480271161

$$$$
[H]c1c(N([H])C(=O)[C@@]2([H])N(C(=O)c3c([H])c([H])c(F)c([H])c3[H])C([H])([H])c3c([H])c([H])c([H])c([H])c3C2([H])[H])noc1C(C([H])([H])[H])(C([H])([H])[H])C([H])([H])[H]


 32 35  0  0  0  0  0  0  0  0999 V2000
   37.2405  -19.2974   37.5627 C   0  0  0  0  0  0  0  0  0  0  0  0
   38.6731  -19.3424   37.0988 C   0  0  0  0  0  0  0  0  0  0  0  0
   38.8000  -19.4091   35.6255 C   0  0  0  0  0  0  0  0  0  0  0  0
   40.0687  -19.2633   35.0547 C   0  0  0  0  0  0  0  0  0  0  0  0
   40.2866  -19.3145   33.6991 C   0  0  0  0  0  0  0  0  0  0  0  0
   39.1935  -19.5184   32.8869 C   0  0  0  0  0  0  0  0  0  0  0  0
   37.9350  -19.6648   33.4199 C   0  0  0  0  0  0  0  0  0  0  0  0
   37.7342  -19.6093   34.7978 C   0  0  0  0  0  0  0  0  0  0  0  0
   36.3670  -19.7492   35.3117 C   0  0  0  0  0  0  0  0  0  0  0  0
   36.3581  -20.0911   36.7485 N   0  0  0  0  0  0  0  0  0  0  0  0
   35.4783  -21.1262   37.1212 C   0  0  0  0  0  0  0  0  0  0  0  0
   34.8397  -21.7194   36.1342 O   0  0  0  0  0  0  0  0  0  0  0  0
   35.1435  -21.6750   38.4018 C   0  0  0  0  0  0  0  0  0  0  0  0
   35.9824  -22.1721   39.3591 C   0  0  0  0  0  0  0  0  0  0  0  0
   35.5451  -22.8192   40.5285 C   0  0  0  0  0  0  0  0  0  0  0  0
   34.2052  -22.9832   40.7680 C   0  0  0  0  0  0  0  0  0  0  0  0
   33.7680  -23.6115   41.9000 F   0  0  0  0  0  0  0  0  0  0  0  0
   33.3360  -22.4921   39.8304 C   0  0  0  0  0  0  0  0  0  0  0  0
   33.7648  -21.8627   38.6924 C   0  0  0  0  0  0  0  0  0  0  0  0
   37.4850  -16.8239   37.1377 N   0  0  0  0  0  0  0  0  0  0  0  0
   36.7245  -17.9252   37.5585 C   0  0  0  0  0  0  0  0  0  0  0  0
   35.5266  -17.7236   37.9536 O   0  0  0  0  0  0  0  0  0  0  0  0
   38.4590  -16.8795   36.7908 H   0  0  0  0  0  0  0  0  0  0  0  0
   35.4672  -13.7919   37.1110 C   0  0  0  0  0  0  0  0  0  0  0  0
   35.5813  -15.1742   36.9974 C   0  0  0  0  0  0  0  0  0  0  0  0
   36.9173  -15.4999   37.1881 C   0  0  0  0  0  0  0  0  0  0  0  0
   37.5430  -14.3284   37.4022 N   0  0  0  0  0  0  0  0  0  0  0  0
   36.6660  -13.3533   37.3507 O   0  0  0  0  0  0  0  0  0  0  0  0
   33.4053  -13.6658   35.8497 C   0  0  0  0  0  0  0  0  0  0  0  0
   34.1707  -13.0613   36.9718 C   0  0  0  0  0  0  0  0  0  0  0  0
   34.4594  -11.5984   36.6865 C   0  0  0  0  0  0  0  0  0  0  0  0
   33.4249  -13.1365   38.2950 C   0  0  0  0  0  0  0  0  0  0  0  0
 29 30  1  0  0  0
 30 31  1  0  0  0
 30 32  1  0  0  0
 30 24  1  0  0  0
 24 25  2  0  0  0
 25 26  1  0  0  0
 26 20  1  0  0  0
 20 21  1  0  0  0
 21 22  2  0  0  0
 21  1  1  0  0  0
  1  2  1  0  0  0
  2  3  1  0  0  0
  3  4  2  0  0  0
  4  5  1  0  0  0
  5  6  2  0  0  0
  6  7  1  0  0  0
  7  8  2  0  0  0
  8  9  1  0  0  0
  9 10  1  0  0  0
 10 11  1  0  0  0
 11 12  2  0  0  0
 11 13  1  0  0  0
 13 14  2  0  0  0
 14 15  1  0  0  0
 15 16  2  0  0  0
 16 17  1  0  0  0
 16 18  1  0  0  0
 18 19  2  0  0  0
 26 27  2  0  0  0
 27 28  1  0  0  0
 28 24  1  0  0  0
 10  1  1  0  0  0
 19 13  1  0  0  0
  8  3  1  0  0  0
 20 23  1  0  0  0
M  END
> <minimizedAffinity>
-5.14607

> <CNNscore>
0.2477283627

> <CNNaffinity>
5.3162717819

> <CNN_VS>
1.3169913292

> <CNNaffinity_variance>
0.2327819616

$$$$
[H]c1c(N([H])C(=O)[C@@]2([H])N(C(=O)c3c([H])c([H])c(F)c([H])c3[H])C([H])([H])c3c([H])c([H])c([H])c([H])c3C2([H])[H])noc1C(C([H])([H])[H])(C([H])([H])[H])C([H])([H])[H]


 32 35  0  0  0  0  0  0  0  0999 V2000
   40.5876  -21.2407   37.4951 C   0  0  0  0  0  0  0  0  0  0  0  0
   40.7500  -21.8020   38.8837 C   0  0  0  0  0  0  0  0  0  0  0  0
   41.3338  -20.8287   39.8341 C   0  0  0  0  0  0  0  0  0  0  0  0
   41.3614  -21.1541   41.1942 C   0  0  0  0  0  0  0  0  0  0  0  0
   41.8859  -20.3180   42.1501 C   0  0  0  0  0  0  0  0  0  0  0  0
   42.4002  -19.1127   41.7273 C   0  0  0  0  0  0  0  0  0  0  0  0
   42.3863  -18.7663   40.3972 C   0  0  0  0  0  0  0  0  0  0  0  0
   41.8494  -19.6280   39.4425 C   0  0  0  0  0  0  0  0  0  0  0  0
   41.8397  -19.1986   38.0395 C   0  0  0  0  0  0  0  0  0  0  0  0
   41.6467  -20.3403   37.1225 N   0  0  0  0  0  0  0  0  0  0  0  0
   42.5079  -20.3768   36.0083 C   0  0  0  0  0  0  0  0  0  0  0  0
   43.4338  -19.4414   35.9681 O   0  0  0  0  0  0  0  0  0  0  0  0
   42.5741  -21.2651   34.8860 C   0  0  0  0  0  0  0  0  0  0  0  0
   41.7325  -21.3421   33.8121 C   0  0  0  0  0  0  0  0  0  0  0  0
   41.8021  -22.3451   32.8289 C   0  0  0  0  0  0  0  0  0  0  0  0
   42.7567  -23.3259   32.9084 C   0  0  0  0  0  0  0  0  0  0  0  0
   42.8336  -24.3066   31.9600 F   0  0  0  0  0  0  0  0  0  0  0  0
   43.6201  -23.2760   33.9705 C   0  0  0  0  0  0  0  0  0  0  0  0
   43.5496  -22.2982   34.9265 C   0  0  0  0  0  0  0  0  0  0  0  0
   39.0100  -19.7212   36.2458 N   0  0  0  0  0  0  0  0  0  0  0  0
   39.3240  -20.5091   37.3632 C   0  0  0  0  0  0  0  0  0  0  0  0
   38.4686  -20.5955   38.3079 O   0  0  0  0  0  0  0  0  0  0  0  0
   39.6270  -19.5930   35.4242 H   0  0  0  0  0  0  0  0  0  0  0  0
   35.6269  -18.4574   35.7740 C   0  0  0  0  0  0  0  0  0  0  0  0
   36.5836  -19.4543   35.6080 C   0  0  0  0  0  0  0  0  0  0  0  0
   37.7576  -19.0090   36.2003 C   0  0  0  0  0  0  0  0  0  0  0  0
   37.4707  -17.7882   36.6874 N   0  0  0  0  0  0  0  0  0  0  0  0
   36.2185  -17.4990   36.4209 O   0  0  0  0  0  0  0  0  0  0  0  0
   33.6348  -17.2118   35.1926 C   0  0  0  0  0  0  0  0  0  0  0  0
   34.2242  -18.5744   35.2712 C   0  0  0  0  0  0  0  0  0  0  0  0
   33.4284  -19.4394   36.2323 C   0  0  0  0  0  0  0  0  0  0  0  0
   34.2469  -19.2797   33.9241 C   0  0  0  0  0  0  0  0  0  0  0  0
 29 30  1  0  0  0
 30 31  1  0  0  0
 30 32  1  0  0  0
 30 24  1  0  0  0
 24 25  2  0  0  0
 25 26  1  0  0  0
 26 20  1  0  0  0
 20 21  1  0  0  0
 21 22  2  0  0  0
 21  1  1  0  0  0
  1  2  1  0  0  0
  2  3  1  0  0  0
  3  4  2  0  0  0
  4  5  1  0  0  0
  5  6  2  0  0  0
  6  7  1  0  0  0
  7  8  2  0  0  0
  8  9  1  0  0  0
  9 10  1  0  0  0
 10 11  1  0  0  0
 11 12  2  0  0  0
 11 13  1  0  0  0
 13 14  2  0  0  0
 14 15  1  0  0  0
 15 16  2  0  0  0
 16 17  1  0  0  0
 16 18  1  0  0  0
 18 19  2  0  0  0
 26 27  2  0  0  0
 27 28  1  0  0  0
 28 24  1  0  0  0
 10  1  1  0  0  0
 19 13  1  0  0  0
  8  3  1  0  0  0
 20 23  1  0  0  0
M  END
> <minimizedAffinity>
-5.74807

> <CNNscore>
0.2251006067

> <CNNaffinity>
4.8533263206

> <CNN_VS>
1.0924867392

> <CNNaffinity_variance>
0.1456597000

$$$$
[H]c1c(N([H])C(=O)[C@@]2([H])N(C(=O)c3c([H])c([H])c(F)c([H])c3[H])C([H])([H])c3c([H])c([H])c([H])c([H])c3C2([H])[H])noc1C(C([H])([H])[H])(C([H])([H])[H])C([H])([H])[H]


 32 35  0  0  0  0  0  0  0  0999 V2000
   39.9782  -19.5316   36.7100 C   0  0  0  0  0  0  0  0  0  0  0  0
   41.0790  -18.6993   37.3141 C   0  0  0  0  0  0  0  0  0  0  0  0
   42.0276  -18.1777   36.3043 C   0  0  0  0  0  0  0  0  0  0  0  0
   42.9823  -17.2371   36.7045 C   0  0  0  0  0  0  0  0  0  0  0  0
   43.9063  -16.6992   35.8414 C   0  0  0  0  0  0  0  0  0  0  0  0
   43.8710  -17.1189   34.5304 C   0  0  0  0  0  0  0  0  0  0  0  0
   42.9439  -18.0419   34.1088 C   0  0  0  0  0  0  0  0  0  0  0  0
   42.0145  -18.5757   34.9996 C   0  0  0  0  0  0  0  0  0  0  0  0
   41.0328  -19.5406   34.4914 C   0  0  0  0  0  0  0  0  0  0  0  0
   40.4160  -20.3169   35.5861 N   0  0  0  0  0  0  0  0  0  0  0  0
   40.3253  -21.7059   35.3696 C   0  0  0  0  0  0  0  0  0  0  0  0
   40.8793  -22.1510   34.2610 O   0  0  0  0  0  0  0  0  0  0  0  0
   39.7366  -22.7537   36.1496 C   0  0  0  0  0  0  0  0  0  0  0  0
   40.3478  -23.8344   36.7206 C   0  0  0  0  0  0  0  0  0  0  0  0
   39.6584  -24.8854   37.3511 C   0  0  0  0  0  0  0  0  0  0  0  0
   38.2895  -24.8684   37.4244 C   0  0  0  0  0  0  0  0  0  0  0  0
   37.6082  -25.8845   38.0332 F   0  0  0  0  0  0  0  0  0  0  0  0
   37.6449  -23.7968   36.8659 C   0  0  0  0  0  0  0  0  0  0  0  0
   38.3190  -22.7749   36.2523 C   0  0  0  0  0  0  0  0  0  0  0  0
   38.1058  -17.8925   37.1168 N   0  0  0  0  0  0  0  0  0  0  0  0
   38.8684  -18.6908   36.2512 C   0  0  0  0  0  0  0  0  0  0  0  0
   38.5848  -18.6826   35.0058 O   0  0  0  0  0  0  0  0  0  0  0  0
   38.2591  -17.8195   38.1381 H   0  0  0  0  0  0  0  0  0  0  0  0
   35.5320  -15.4620   36.2602 C   0  0  0  0  0  0  0  0  0  0  0  0
   36.6468  -15.8372   37.0039 C   0  0  0  0  0  0  0  0  0  0  0  0
   37.0115  -17.1128   36.5948 C   0  0  0  0  0  0  0  0  0  0  0  0
   36.1218  -17.4504   35.6438 N   0  0  0  0  0  0  0  0  0  0  0  0
   35.2736  -16.4633   35.4743 O   0  0  0  0  0  0  0  0  0  0  0  0
   33.5490  -14.1942   35.6958 C   0  0  0  0  0  0  0  0  0  0  0  0
   34.8496  -14.1411   36.4140 C   0  0  0  0  0  0  0  0  0  0  0  0
   35.7354  -13.0589   35.8231 C   0  0  0  0  0  0  0  0  0  0  0  0
   34.6864  -13.8470   37.8971 C   0  0  0  0  0  0  0  0  0  0  0  0
 29 30  1  0  0  0
 30 31  1  0  0  0
 30 32  1  0  0  0
 30 24  1  0  0  0
 24 25  2  0  0  0
 25 26  1  0  0  0
 26 20  1  0  0  0
 20 21  1  0  0  0
 21 22  2  0  0  0
 21  1  1  0  0  0
  1  2  1  0  0  0
  2  3  1  0  0  0
  3  4  2  0  0  0
  4  5  1  0  0  0
  5  6  2  0  0  0
  6  7  1  0  0  0
  7  8  2  0  0  0
  8  9  1  0  0  0
  9 10  1  0  0  0
 10 11  1  0  0  0
 11 12  2  0  0  0
 11 13  1  0  0  0
 13 14  2  0  0  0
 14 15  1  0  0  0
 15 16  2  0  0  0
 16 17  1  0  0  0
 16 18  1  0  0  0
 18 19  2  0  0  0
 26 27  2  0  0  0
 27 28  1  0  0  0
 28 24  1  0  0  0
 10  1  1  0  0  0
 19 13  1  0  0  0
  8  3  1  0  0  0
 20 23  1  0  0  0
M  END
> <minimizedAffinity>
-5.73337

> <CNNscore>
0.2177476436

> <CNNaffinity>
5.2918949127

> <CNN_VS>
1.1522976160

> <CNNaffinity_variance>
0.4398912489

$$$$
[H]c1nc(N([H])[H])c([H])c(-n2c(N([H])c3c([H])c(N([H])C(=O)c4c([H])c([H])c([H])c(C(F)(F)F)c4[H])c([H])c([H])c3C([H])([H])[H])nc3c([H])c([H])c([H])c([H])c32)n1


 41 45  0  0  0  0  0  0  0  0999 V2000
   36.8691  -12.9824   37.3470 C   0  0  0  0  0  0  0  0  0  0  0  0
   36.0378  -14.1321   36.8425 C   0  0  0  0  0  0  0  0  0  0  0  0
   36.6131  -15.2458   36.3253 C   0  0  0  0  0  0  0  0  0  0  0  0
   35.8518  -16.2814   35.8332 C   0  0  0  0  0  0  0  0  0  0  0  0
   34.4674  -16.2284   35.8476 C   0  0  0  0  0  0  0  0  0  0  0  0
   33.8682  -15.1094   36.3617 C   0  0  0  0  0  0  0  0  0  0  0  0
   34.6147  -14.0416   36.8693 C   0  0  0  0  0  0  0  0  0  0  0  0
   33.7728  -17.4207   35.3779 N   0  0  0  0  0  0  0  0  0  0  0  0
   34.0221  -18.6539   36.0055 C   0  0  0  0  0  0  0  0  0  0  0  0
   34.8186  -18.6786   37.0199 O   0  0  0  0  0  0  0  0  0  0  0  0
   33.1167  -17.3055   34.6060 H   0  0  0  0  0  0  0  0  0  0  0  0
   33.4926  -19.9438   35.6577 C   0  0  0  0  0  0  0  0  0  0  0  0
   32.9577  -20.1464   34.3631 C   0  0  0  0  0  0  0  0  0  0  0  0
   32.3703  -21.3254   33.9929 C   0  0  0  0  0  0  0  0  0  0  0  0
   32.2795  -22.3627   34.8805 C   0  0  0  0  0  0  0  0  0  0  0  0
   32.7839  -22.2241   36.1572 C   0  0  0  0  0  0  0  0  0  0  0  0
   33.3743  -21.0294   36.5128 C   0  0  0  0  0  0  0  0  0  0  0  0
   32.6317  -23.3933   37.0622 C   0  0  0  0  0  0  0  0  0  0  0  0
   32.6123  -22.9249   38.3836 F   0  0  0  0  0  0  0  0  0  0  0  0
   33.6255  -24.3181   36.9674 F   0  0  0  0  0  0  0  0  0  0  0  0
   31.4395  -24.0625   36.7719 F   0  0  0  0  0  0  0  0  0  0  0  0
   34.1492  -12.9095   37.5143 N   0  0  0  0  0  0  0  0  0  0  0  0
   34.9543  -12.1967   37.7775 H   0  0  0  0  0  0  0  0  0  0  0  0
   32.8547  -12.5655   37.9178 C   0  0  0  0  0  0  0  0  0  0  0  0
   31.8153  -13.2187   38.4442 N   0  0  0  0  0  0  0  0  0  0  0  0
   30.7159  -12.4254   38.5634 C   0  0  0  0  0  0  0  0  0  0  0  0
   29.4219  -12.5936   38.9859 C   0  0  0  0  0  0  0  0  0  0  0  0
   28.5128  -11.5615   38.9327 C   0  0  0  0  0  0  0  0  0  0  0  0
   28.8835  -10.3181   38.4524 C   0  0  0  0  0  0  0  0  0  0  0  0
   30.1849  -10.1448   38.0287 C   0  0  0  0  0  0  0  0  0  0  0  0
   31.0771  -11.2144   38.0934 C   0  0  0  0  0  0  0  0  0  0  0  0
   32.3442  -11.2856   37.7107 N   0  0  0  0  0  0  0  0  0  0  0  0
   33.0776  -10.2061   37.1607 C   0  0  0  0  0  0  0  0  0  0  0  0
   34.2928  -10.4301   36.5517 C   0  0  0  0  0  0  0  0  0  0  0  0
   35.0239   -9.4082   36.0075 C   0  0  0  0  0  0  0  0  0  0  0  0
   36.2778   -9.6228   35.3583 N   0  0  0  0  0  0  0  0  0  0  0  0
   34.5278   -8.1413   36.0774 N   0  0  0  0  0  0  0  0  0  0  0  0
   33.3331   -7.9250   36.6768 C   0  0  0  0  0  0  0  0  0  0  0  0
   32.6467   -8.9311   37.1951 N   0  0  0  0  0  0  0  0  0  0  0  0
   36.9575   -8.8406   35.2809 H   0  0  0  0  0  0  0  0  0  0  0  0
   36.4866  -10.5760   34.9730 H   0  0  0  0  0  0  0  0  0  0  0  0
  1  2  1  0  0  0
  2  3  2  0  0  0
  3  4  1  0  0  0
  4  5  2  0  0  0
  5  8  1  0  0  0
  8  9  1  0  0  0
  9 10  2  0  0  0
  9 12  1  0  0  0
 12 13  2  0  0  0
 13 14  1  0  0  0
 14 15  2  0  0  0
 15 16  1  0  0  0
 16 17  2  0  0  0
 16 18  1  0  0  0
 18 19  1  0  0  0
 18 20  1  0  0  0
 18 21  1  0  0  0
  5  6  1  0  0  0
  6  7  2  0  0  0
  7 22  1  0  0  0
 22 24  1  0  0  0
 24 25  2  0  0  0
 25 26  1  0  0  0
 26 27  2  0  0  0
 27 28  1  0  0  0
 28 29  2  0  0  0
 29 30  1  0  0  0
 30 31  2  0  0  0
 31 32  1  0  0  0
 32 33  1  0  0  0
 33 34  2  0  0  0
 34 35  1  0  0  0
 35 36  1  0  0  0
 35 37  2  0  0  0
 37 38  1  0  0  0
 38 39  2  0  0  0
  7  2  1  0  0  0
 32 24  1  0  0  0
 39 33  1  0  0  0
 17 12  1  0  0  0
 31 26  1  0  0  0
  8 11  1  0  0  0
 22 23  1  0  0  0
 36 40  1  0  0  0
 36 41  1  0  0  0
M  END
> <minimizedAffinity>
-8.27257

> <CNNscore>
0.2441369593

> <CNNaffinity>
6.9925394058

> <CNN_VS>
1.7071373463

> <CNNaffinity_variance>
0.0786007270

$$$$
[H]c1nc(N([H])[H])c([H])c(-n2c(N([H])c3c([H])c(N([H])C(=O)c4c([H])c([H])c([H])c(C(F)(F)F)c4[H])c([H])c([H])c3C([H])([H])[H])nc3c([H])c([H])c([H])c([H])c32)n1


 41 45  0  0  0  0  0  0  0  0999 V2000
   39.7684  -19.1465   36.3969 C   0  0  0  0  0  0  0  0  0  0  0  0
   38.5978  -19.6306   37.2110 C   0  0  0  0  0  0  0  0  0  0  0  0
   38.7056  -20.7025   38.0346 C   0  0  0  0  0  0  0  0  0  0  0  0
   37.6258  -21.1646   38.7521 C   0  0  0  0  0  0  0  0  0  0  0  0
   36.3860  -20.5529   38.6629 C   0  0  0  0  0  0  0  0  0  0  0  0
   36.2563  -19.4717   37.8324 C   0  0  0  0  0  0  0  0  0  0  0  0
   37.3348  -18.9787   37.0914 C   0  0  0  0  0  0  0  0  0  0  0  0
   35.3437  -21.0805   39.5346 N   0  0  0  0  0  0  0  0  0  0  0  0
   34.4681  -22.0641   39.0420 C   0  0  0  0  0  0  0  0  0  0  0  0
   34.6541  -22.5112   37.8464 O   0  0  0  0  0  0  0  0  0  0  0  0
   35.2993  -20.7136   40.4848 H   0  0  0  0  0  0  0  0  0  0  0  0
   33.3471  -22.6633   39.7127 C   0  0  0  0  0  0  0  0  0  0  0  0
   32.4869  -23.5236   38.9896 C   0  0  0  0  0  0  0  0  0  0  0  0
   31.3609  -24.0658   39.5468 C   0  0  0  0  0  0  0  0  0  0  0  0
   31.0260  -23.7859   40.8435 C   0  0  0  0  0  0  0  0  0  0  0  0
   31.8269  -22.9538   41.5985 C   0  0  0  0  0  0  0  0  0  0  0  0
   32.9591  -22.4175   41.0214 C   0  0  0  0  0  0  0  0  0  0  0  0
   31.3839  -22.6906   42.9926 C   0  0  0  0  0  0  0  0  0  0  0  0
   30.8579  -23.8797   43.5171 F   0  0  0  0  0  0  0  0  0  0  0  0
   30.4285  -21.7290   43.1130 F   0  0  0  0  0  0  0  0  0  0  0  0
   32.4716  -22.2660   43.7609 F   0  0  0  0  0  0  0  0  0  0  0  0
   37.3777  -17.8398   36.3070 N   0  0  0  0  0  0  0  0  0  0  0  0
   38.0983  -17.9147   35.4700 H   0  0  0  0  0  0  0  0  0  0  0  0
   36.7020  -16.6223   36.4415 C   0  0  0  0  0  0  0  0  0  0  0  0
   36.9647  -15.4448   37.0146 N   0  0  0  0  0  0  0  0  0  0  0  0
   35.9055  -14.5927   36.9485 C   0  0  0  0  0  0  0  0  0  0  0  0
   35.6324  -13.3253   37.3962 C   0  0  0  0  0  0  0  0  0  0  0  0
   34.3995  -12.7469   37.1964 C   0  0  0  0  0  0  0  0  0  0  0  0
   33.3981  -13.4312   36.5309 C   0  0  0  0  0  0  0  0  0  0  0  0
   33.6701  -14.7054   36.0772 C   0  0  0  0  0  0  0  0  0  0  0  0
   34.9292  -15.2607   36.3016 C   0  0  0  0  0  0  0  0  0  0  0  0
   35.3919  -16.4641   35.9938 N   0  0  0  0  0  0  0  0  0  0  0  0
   34.6510  -17.4565   35.3068 C   0  0  0  0  0  0  0  0  0  0  0  0
   33.3075  -17.6223   35.5623 C   0  0  0  0  0  0  0  0  0  0  0  0
   32.5633  -18.5703   34.9123 C   0  0  0  0  0  0  0  0  0  0  0  0
   31.1664  -18.7465   35.1520 N   0  0  0  0  0  0  0  0  0  0  0  0
   33.1782  -19.3653   33.9926 N   0  0  0  0  0  0  0  0  0  0  0  0
   34.4989  -19.1994   33.7442 C   0  0  0  0  0  0  0  0  0  0  0  0
   35.1950  -18.2753   34.3870 N   0  0  0  0  0  0  0  0  0  0  0  0
   30.7187  -19.6591   34.9366 H   0  0  0  0  0  0  0  0  0  0  0  0
   30.6199  -17.9426   35.5467 H   0  0  0  0  0  0  0  0  0  0  0  0
  1  2  1  0  0  0
  2  3  2  0  0  0
  3  4  1  0  0  0
  4  5  2  0  0  0
  5  8  1  0  0  0
  8  9  1  0  0  0
  9 10  2  0  0  0
  9 12  1  0  0  0
 12 13  2  0  0  0
 13 14  1  0  0  0
 14 15  2  0  0  0
 15 16  1  0  0  0
 16 17  2  0  0  0
 16 18  1  0  0  0
 18 19  1  0  0  0
 18 20  1  0  0  0
 18 21  1  0  0  0
  5  6  1  0  0  0
  6  7  2  0  0  0
  7 22  1  0  0  0
 22 24  1  0  0  0
 24 25  2  0  0  0
 25 26  1  0  0  0
 26 27  2  0  0  0
 27 28  1  0  0  0
 28 29  2  0  0  0
 29 30  1  0  0  0
 30 31  2  0  0  0
 31 32  1  0  0  0
 32 33  1  0  0  0
 33 34  2  0  0  0
 34 35  1  0  0  0
 35 36  1  0  0  0
 35 37  2  0  0  0
 37 38  1  0  0  0
 38 39  2  0  0  0
  7  2  1  0  0  0
 32 24  1  0  0  0
 39 33  1  0  0  0
 17 12  1  0  0  0
 31 26  1  0  0  0
  8 11  1  0  0  0
 22 23  1  0  0  0
 36 40  1  0  0  0
 36 41  1  0  0  0
M  END
> <minimizedAffinity>
-7.26227

> <CNNscore>
0.2162824720

> <CNNaffinity>
5.9927248955

> <CNN_VS>
1.2961213589

> <CNNaffinity_variance>
0.0749357939

$$$$
[H]c1nc(N([H])[H])c([H])c(-n2c(N([H])c3c([H])c(N([H])C(=O)c4c([H])c([H])c([H])c(C(F)(F)F)c4[H])c([H])c([H])c3C([H])([H])[H])nc3c([H])c([H])c([H])c([H])c32)n1


 41 45  0  0  0  0  0  0  0  0999 V2000
   31.9123  -22.4880   34.3852 C   0  0  0  0  0  0  0  0  0  0  0  0
   32.2955  -21.0723   34.7264 C   0  0  0  0  0  0  0  0  0  0  0  0
   31.9474  -20.0342   33.9263 C   0  0  0  0  0  0  0  0  0  0  0  0
   32.3276  -18.7448   34.2216 C   0  0  0  0  0  0  0  0  0  0  0  0
   33.0799  -18.4553   35.3484 C   0  0  0  0  0  0  0  0  0  0  0  0
   33.4452  -19.4914   36.1661 C   0  0  0  0  0  0  0  0  0  0  0  0
   33.0737  -20.8115   35.8929 C   0  0  0  0  0  0  0  0  0  0  0  0
   33.3473  -17.0445   35.5988 N   0  0  0  0  0  0  0  0  0  0  0  0
   34.6450  -16.6449   35.9640 C   0  0  0  0  0  0  0  0  0  0  0  0
   35.5745  -17.5381   36.0090 O   0  0  0  0  0  0  0  0  0  0  0  0
   32.5697  -16.3946   35.4873 H   0  0  0  0  0  0  0  0  0  0  0  0
   35.0970  -15.3255   36.3104 C   0  0  0  0  0  0  0  0  0  0  0  0
   34.2190  -14.2276   36.1466 C   0  0  0  0  0  0  0  0  0  0  0  0
   34.6106  -12.9385   36.3854 C   0  0  0  0  0  0  0  0  0  0  0  0
   35.8873  -12.6672   36.7960 C   0  0  0  0  0  0  0  0  0  0  0  0
   36.7882  -13.6970   36.9736 C   0  0  0  0  0  0  0  0  0  0  0  0
   36.3759  -14.9905   36.7300 C   0  0  0  0  0  0  0  0  0  0  0  0
   38.1574  -13.3145   37.4073 C   0  0  0  0  0  0  0  0  0  0  0  0
   38.0968  -12.9191   38.7512 F   0  0  0  0  0  0  0  0  0  0  0  0
   38.7119  -12.2917   36.7014 F   0  0  0  0  0  0  0  0  0  0  0  0
   39.0191  -14.4059   37.2658 F   0  0  0  0  0  0  0  0  0  0  0  0
   33.2740  -21.9314   36.6802 N   0  0  0  0  0  0  0  0  0  0  0  0
   33.1731  -22.8809   36.1200 H   0  0  0  0  0  0  0  0  0  0  0  0
   33.5269  -22.0401   38.0518 C   0  0  0  0  0  0  0  0  0  0  0  0
   32.7800  -22.0779   39.1585 N   0  0  0  0  0  0  0  0  0  0  0  0
   33.5368  -22.0907   40.2897 C   0  0  0  0  0  0  0  0  0  0  0  0
   33.2902  -22.0865   41.6389 C   0  0  0  0  0  0  0  0  0  0  0  0
   34.3185  -22.0523   42.5533 C   0  0  0  0  0  0  0  0  0  0  0  0
   35.6363  -22.0254   42.1330 C   0  0  0  0  0  0  0  0  0  0  0  0
   35.8880  -22.0320   40.7766 C   0  0  0  0  0  0  0  0  0  0  0  0
   34.8209  -22.0626   39.8797 C   0  0  0  0  0  0  0  0  0  0  0  0
   34.8265  -22.0354   38.5545 N   0  0  0  0  0  0  0  0  0  0  0  0
   35.9971  -22.0010   37.7581 C   0  0  0  0  0  0  0  0  0  0  0  0
   36.6540  -23.1686   37.4371 C   0  0  0  0  0  0  0  0  0  0  0  0
   37.7857  -23.1687   36.6663 C   0  0  0  0  0  0  0  0  0  0  0  0
   38.4713  -24.3698   36.3100 N   0  0  0  0  0  0  0  0  0  0  0  0
   38.2664  -21.9776   36.2122 N   0  0  0  0  0  0  0  0  0  0  0  0
   37.6181  -20.8321   36.5299 C   0  0  0  0  0  0  0  0  0  0  0  0
   36.5259  -20.8602   37.2769 N   0  0  0  0  0  0  0  0  0  0  0  0
   39.4765  -24.3305   36.0496 H   0  0  0  0  0  0  0  0  0  0  0  0
   37.9390  -25.2738   36.3222 H   0  0  0  0  0  0  0  0  0  0  0  0
  1  2  1  0  0  0
  2  3  2  0  0  0
  3  4  1  0  0  0
  4  5  2  0  0  0
  5  8  1  0  0  0
  8  9  1  0  0  0
  9 10  2  0  0  0
  9 12  1  0  0  0
 12 13  2  0  0  0
 13 14  1  0  0  0
 14 15  2  0  0  0
 15 16  1  0  0  0
 16 17  2  0  0  0
 16 18  1  0  0  0
 18 19  1  0  0  0
 18 20  1  0  0  0
 18 21  1  0  0  0
  5  6  1  0  0  0
  6  7  2  0  0  0
  7 22  1  0  0  0
 22 24  1  0  0  0
 24 25  2  0  0  0
 25 26  1  0  0  0
 26 27  2  0  0  0
 27 28  1  0  0  0
 28 29  2  0  0  0
 29 30  1  0  0  0
 30 31  2  0  0  0
 31 32  1  0  0  0
 32 33  1  0  0  0
 33 34  2  0  0  0
 34 35  1  0  0  0
 35 36  1  0  0  0
 35 37  2  0  0  0
 37 38  1  0  0  0
 38 39  2  0  0  0
  7  2  1  0  0  0
 32 24  1  0  0  0
 39 33  1  0  0  0
 17 12  1  0  0  0
 31 26  1  0  0  0
  8 11  1  0  0  0
 22 23  1  0  0  0
 36 40  1  0  0  0
 36 41  1  0  0  0
M  END
> <minimizedAffinity>
-7.32216

> <CNNscore>
0.1966541111

> <CNNaffinity>
5.8943638802

> <CNN_VS>
1.1591508389

> <CNNaffinity_variance>
0.0285319723

$$$$
[H]c1nc(N([H])[H])c([H])c(-n2c(N([H])c3c([H])c(N([H])C(=O)c4c([H])c([H])c([H])c(C(F)(F)F)c4[H])c([H])c([H])c3C([H])([H])[H])nc3c([H])c([H])c([H])c([H])c32)n1


 41 45  0  0  0  0  0  0  0  0999 V2000
   36.7964  -23.8355   37.3058 C   0  0  0  0  0  0  0  0  0  0  0  0
   36.5538  -22.3559   37.4453 C   0  0  0  0  0  0  0  0  0  0  0  0
   35.3103  -21.8295   37.3219 C   0  0  0  0  0  0  0  0  0  0  0  0
   35.0951  -20.4734   37.4157 C   0  0  0  0  0  0  0  0  0  0  0  0
   36.1397  -19.5917   37.6411 C   0  0  0  0  0  0  0  0  0  0  0  0
   37.4038  -20.1042   37.7635 C   0  0  0  0  0  0  0  0  0  0  0  0
   37.6538  -21.4770   37.6735 C   0  0  0  0  0  0  0  0  0  0  0  0
   35.7749  -18.1901   37.8058 N   0  0  0  0  0  0  0  0  0  0  0  0
   36.3015  -17.2338   36.9197 C   0  0  0  0  0  0  0  0  0  0  0  0
   37.0487  -17.6390   35.9494 O   0  0  0  0  0  0  0  0  0  0  0  0
   35.1342  -17.9602   38.5648 H   0  0  0  0  0  0  0  0  0  0  0  0
   36.1171  -15.8089   36.9480 C   0  0  0  0  0  0  0  0  0  0  0  0
   37.2405  -14.9692   37.1380 C   0  0  0  0  0  0  0  0  0  0  0  0
   37.1247  -13.6104   37.2504 C   0  0  0  0  0  0  0  0  0  0  0  0
   35.8962  -13.0120   37.1827 C   0  0  0  0  0  0  0  0  0  0  0  0
   34.7644  -13.7792   36.9980 C   0  0  0  0  0  0  0  0  0  0  0  0
   34.8998  -15.1473   36.8849 C   0  0  0  0  0  0  0  0  0  0  0  0
   33.4691  -13.0519   36.9499 C   0  0  0  0  0  0  0  0  0  0  0  0
   33.7332  -11.6792   37.0584 F   0  0  0  0  0  0  0  0  0  0  0  0
   32.5948  -13.3828   37.9390 F   0  0  0  0  0  0  0  0  0  0  0  0
   32.8207  -13.3227   35.7417 F   0  0  0  0  0  0  0  0  0  0  0  0
   38.8498  -22.1392   37.8864 N   0  0  0  0  0  0  0  0  0  0  0  0
   38.9364  -23.0784   37.3068 H   0  0  0  0  0  0  0  0  0  0  0  0
   39.9142  -21.8329   38.7409 C   0  0  0  0  0  0  0  0  0  0  0  0
   41.1754  -21.4225   38.5830 N   0  0  0  0  0  0  0  0  0  0  0  0
   41.8495  -21.3650   39.7640 C   0  0  0  0  0  0  0  0  0  0  0  0
   43.1288  -21.0601   40.1532 C   0  0  0  0  0  0  0  0  0  0  0  0
   43.5152  -21.1487   41.4714 C   0  0  0  0  0  0  0  0  0  0  0  0
   42.6165  -21.5461   42.4453 C   0  0  0  0  0  0  0  0  0  0  0  0
   41.3282  -21.8512   42.0576 C   0  0  0  0  0  0  0  0  0  0  0  0
   40.9739  -21.7542   40.7125 C   0  0  0  0  0  0  0  0  0  0  0  0
   39.8224  -22.0311   40.1172 N   0  0  0  0  0  0  0  0  0  0  0  0
   38.6577  -22.4739   40.7904 C   0  0  0  0  0  0  0  0  0  0  0  0
   38.4107  -23.8209   40.9393 C   0  0  0  0  0  0  0  0  0  0  0  0
   37.2958  -24.2804   41.5880 C   0  0  0  0  0  0  0  0  0  0  0  0
   37.0306  -25.6724   41.7661 N   0  0  0  0  0  0  0  0  0  0  0  0
   36.4142  -23.3730   42.0935 N   0  0  0  0  0  0  0  0  0  0  0  0
   36.6604  -22.0498   41.9451 C   0  0  0  0  0  0  0  0  0  0  0  0
   37.7461  -21.6326   41.3134 N   0  0  0  0  0  0  0  0  0  0  0  0
   36.0555  -25.9941   41.9254 H   0  0  0  0  0  0  0  0  0  0  0  0
   37.8349  -26.3451   41.7289 H   0  0  0  0  0  0  0  0  0  0  0  0
  1  2  1  0  0  0
  2  3  2  0  0  0
  3  4  1  0  0  0
  4  5  2  0  0  0
  5  8  1  0  0  0
  8  9  1  0  0  0
  9 10  2  0  0  0
  9 12  1  0  0  0
 12 13  2  0  0  0
 13 14  1  0  0  0
 14 15  2  0  0  0
 15 16  1  0  0  0
 16 17  2  0  0  0
 16 18  1  0  0  0
 18 19  1  0  0  0
 18 20  1  0  0  0
 18 21  1  0  0  0
  5  6  1  0  0  0
  6  7  2  0  0  0
  7 22  1  0  0  0
 22 24  1  0  0  0
 24 25  2  0  0  0
 25 26  1  0  0  0
 26 27  2  0  0  0
 27 28  1  0  0  0
 28 29  2  0  0  0
 29 30  1  0  0  0
 30 31  2  0  0  0
 31 32  1  0  0  0
 32 33  1  0  0  0
 33 34  2  0  0  0
 34 35  1  0  0  0
 35 36  1  0  0  0
 35 37  2  0  0  0
 37 38  1  0  0  0
 38 39  2  0  0  0
  7  2  1  0  0  0
 32 24  1  0  0  0
 39 33  1  0  0  0
 17 12  1  0  0  0
 31 26  1  0  0  0
  8 11  1  0  0  0
 22 23  1  0  0  0
 36 40  1  0  0  0
 36 41  1  0  0  0
M  END
> <minimizedAffinity>
-6.29117

> <CNNscore>
0.1817693114

> <CNNaffinity>
6.0705876350

> <CNN_VS>
1.1034464836

> <CNNaffinity_variance>
0.3445768654

$$$$
[H]c1nc(N([H])[H])c([H])c(-n2c(N([H])c3c([H])c(N([H])C(=O)c4c([H])c([H])c([H])c(C(F)(F)F)c4[H])c([H])c([H])c3C([H])([H])[H])nc3c([H])c([H])c([H])c([H])c32)n1


 41 45  0  0  0  0  0  0  0  0999 V2000
   36.8281  -22.3152   38.4108 C   0  0  0  0  0  0  0  0  0  0  0  0
   36.5033  -20.9526   37.8585 C   0  0  0  0  0  0  0  0  0  0  0  0
   35.2535  -20.4341   37.9478 C   0  0  0  0  0  0  0  0  0  0  0  0
   34.9500  -19.2030   37.4123 C   0  0  0  0  0  0  0  0  0  0  0  0
   35.9089  -18.4436   36.7618 C   0  0  0  0  0  0  0  0  0  0  0  0
   37.1759  -18.9529   36.6573 C   0  0  0  0  0  0  0  0  0  0  0  0
   37.5148  -20.1999   37.1916 C   0  0  0  0  0  0  0  0  0  0  0  0
   35.4880  -17.1222   36.3132 N   0  0  0  0  0  0  0  0  0  0  0  0
   35.7318  -16.0073   37.1344 C   0  0  0  0  0  0  0  0  0  0  0  0
   36.3755  -16.1845   38.2382 O   0  0  0  0  0  0  0  0  0  0  0  0
   35.0348  -17.0605   35.4020 H   0  0  0  0  0  0  0  0  0  0  0  0
   35.3452  -14.6421   36.9063 C   0  0  0  0  0  0  0  0  0  0  0  0
   36.2003  -13.7959   36.1607 C   0  0  0  0  0  0  0  0  0  0  0  0
   35.9287  -12.4682   35.9716 C   0  0  0  0  0  0  0  0  0  0  0  0
   34.8019  -11.9083   36.5091 C   0  0  0  0  0  0  0  0  0  0  0  0
   33.9301  -12.6839   37.2452 C   0  0  0  0  0  0  0  0  0  0  0  0
   34.2186  -14.0208   37.4244 C   0  0  0  0  0  0  0  0  0  0  0  0
   32.7382  -11.9948   37.8051 C   0  0  0  0  0  0  0  0  0  0  0  0
   33.0448  -10.6339   37.9457 F   0  0  0  0  0  0  0  0  0  0  0  0
   32.3354  -12.4542   39.0212 F   0  0  0  0  0  0  0  0  0  0  0  0
   31.6511  -12.1559   36.9414 F   0  0  0  0  0  0  0  0  0  0  0  0
   38.7670  -20.7844   37.2584 N   0  0  0  0  0  0  0  0  0  0  0  0
   39.1471  -20.8819   38.2935 H   0  0  0  0  0  0  0  0  0  0  0  0
   39.6222  -21.2113   36.2368 C   0  0  0  0  0  0  0  0  0  0  0  0
   40.0712  -20.6926   35.0908 N   0  0  0  0  0  0  0  0  0  0  0  0
   40.8280  -21.5781   34.3869 C   0  0  0  0  0  0  0  0  0  0  0  0
   41.4731  -21.5773   33.1765 C   0  0  0  0  0  0  0  0  0  0  0  0
   42.1355  -22.6937   32.7189 C   0  0  0  0  0  0  0  0  0  0  0  0
   42.1719  -23.8522   33.4743 C   0  0  0  0  0  0  0  0  0  0  0  0
   41.5260  -23.8557   34.6934 C   0  0  0  0  0  0  0  0  0  0  0  0
   40.8615  -22.7075   35.1225 C   0  0  0  0  0  0  0  0  0  0  0  0
   40.1522  -22.4999   36.2229 N   0  0  0  0  0  0  0  0  0  0  0  0
   39.9562  -23.4617   37.2438 C   0  0  0  0  0  0  0  0  0  0  0  0
   40.6319  -23.3537   38.4395 C   0  0  0  0  0  0  0  0  0  0  0  0
   40.4613  -24.2652   39.4470 C   0  0  0  0  0  0  0  0  0  0  0  0
   41.1407  -24.1613   40.6990 N   0  0  0  0  0  0  0  0  0  0  0  0
   39.5999  -25.3022   39.2502 N   0  0  0  0  0  0  0  0  0  0  0  0
   38.9376  -25.4050   38.0737 C   0  0  0  0  0  0  0  0  0  0  0  0
   39.1212  -24.5100   37.1161 N   0  0  0  0  0  0  0  0  0  0  0  0
   41.2770  -25.0103   41.2823 H   0  0  0  0  0  0  0  0  0  0  0  0
   41.4923  -23.2205   41.0023 H   0  0  0  0  0  0  0  0  0  0  0  0
  1  2  1  0  0  0
  2  3  2  0  0  0
  3  4  1  0  0  0
  4  5  2  0  0  0
  5  8  1  0  0  0
  8  9  1  0  0  0
  9 10  2  0  0  0
  9 12  1  0  0  0
 12 13  2  0  0  0
 13 14  1  0  0  0
 14 15  2  0  0  0
 15 16  1  0  0  0
 16 17  2  0  0  0
 16 18  1  0  0  0
 18 19  1  0  0  0
 18 20  1  0  0  0
 18 21  1  0  0  0
  5  6  1  0  0  0
  6  7  2  0  0  0
  7 22  1  0  0  0
 22 24  1  0  0  0
 24 25  2  0  0  0
 25 26  1  0  0  0
 26 27  2  0  0  0
 27 28  1  0  0  0
 28 29  2  0  0  0
 29 30  1  0  0  0
 30 31  2  0  0  0
 31 32  1  0  0  0
 32 33  1  0  0  0
 33 34  2  0  0  0
 34 35  1  0  0  0
 35 36  1  0  0  0
 35 37  2  0  0  0
 37 38  1  0  0  0
 38 39  2  0  0  0
  7  2  1  0  0  0
 32 24  1  0  0  0
 39 33  1  0  0  0
 17 12  1  0  0  0
 31 26  1  0  0  0
  8 11  1  0  0  0
 22 23  1  0  0  0
 36 40  1  0  0  0
 36 41  1  0  0  0
M  END
> <minimizedAffinity>
-6.38727

> <CNNscore>
0.1697046757

> <CNNaffinity>
5.8928794861

> <CNN_VS>
1.0000492334

> <CNNaffinity_variance>
0.5594825149

$$$$
[H]c1nc(N([H])[H])c([H])c(-n2c(N([H])c3c([H])c(N([H])C(=O)c4c([H])c([H])c([H])c(C(F)(F)F)c4[H])c([H])c([H])c3C([H])([H])[H])nc3c([H])c([H])c([H])c([H])c32)n1


 41 45  0  0  0  0  0  0  0  0999 V2000
   32.1307  -22.5964   34.2886 C   0  0  0  0  0  0  0  0  0  0  0  0
   32.3545  -21.1590   34.6774 C   0  0  0  0  0  0  0  0  0  0  0  0
   32.0813  -20.1448   33.8198 C   0  0  0  0  0  0  0  0  0  0  0  0
   32.3185  -18.8335   34.1640 C   0  0  0  0  0  0  0  0  0  0  0  0
   32.8444  -18.4968   35.4007 C   0  0  0  0  0  0  0  0  0  0  0  0
   33.1314  -19.5078   36.2786 C   0  0  0  0  0  0  0  0  0  0  0  0
   32.9010  -20.8492   35.9579 C   0  0  0  0  0  0  0  0  0  0  0  0
   32.9704  -17.0717   35.6801 N   0  0  0  0  0  0  0  0  0  0  0  0
   34.2507  -16.5132   35.8413 C   0  0  0  0  0  0  0  0  0  0  0  0
   35.2794  -17.2741   35.6780 O   0  0  0  0  0  0  0  0  0  0  0  0
   32.1092  -16.5292   35.7386 H   0  0  0  0  0  0  0  0  0  0  0  0
   34.5854  -15.1570   36.1788 C   0  0  0  0  0  0  0  0  0  0  0  0
   35.9213  -14.7152   36.0259 C   0  0  0  0  0  0  0  0  0  0  0  0
   36.3221  -13.4614   36.3995 C   0  0  0  0  0  0  0  0  0  0  0  0
   35.4268  -12.5815   36.9438 C   0  0  0  0  0  0  0  0  0  0  0  0
   34.1102  -12.9557   37.1169 C   0  0  0  0  0  0  0  0  0  0  0  0
   33.7231  -14.2227   36.7330 C   0  0  0  0  0  0  0  0  0  0  0  0
   33.2071  -11.9454   37.7276 C   0  0  0  0  0  0  0  0  0  0  0  0
   32.9190  -12.3508   39.0385 F   0  0  0  0  0  0  0  0  0  0  0  0
   32.0227  -11.7763   37.0789 F   0  0  0  0  0  0  0  0  0  0  0  0
   33.8346  -10.6965   37.7375 F   0  0  0  0  0  0  0  0  0  0  0  0
   33.0366  -21.9550   36.7784 N   0  0  0  0  0  0  0  0  0  0  0  0
   34.0317  -22.4341   36.7021 H   0  0  0  0  0  0  0  0  0  0  0  0
   32.1111  -22.5707   37.6277 C   0  0  0  0  0  0  0  0  0  0  0  0
   30.8404  -22.9690   37.5240 N   0  0  0  0  0  0  0  0  0  0  0  0
   30.3495  -23.4356   38.7045 C   0  0  0  0  0  0  0  0  0  0  0  0
   29.1422  -23.9107   39.1494 C   0  0  0  0  0  0  0  0  0  0  0  0
   28.9562  -24.2695   40.4652 C   0  0  0  0  0  0  0  0  0  0  0  0
   29.9898  -24.1634   41.3787 C   0  0  0  0  0  0  0  0  0  0  0  0
   31.2062  -23.6880   40.9341 C   0  0  0  0  0  0  0  0  0  0  0  0
   31.3564  -23.3302   39.5949 C   0  0  0  0  0  0  0  0  0  0  0  0
   32.4066  -22.8214   38.9662 N   0  0  0  0  0  0  0  0  0  0  0  0
   33.6585  -22.5629   39.5758 C   0  0  0  0  0  0  0  0  0  0  0  0
   33.7874  -21.5437   40.4937 C   0  0  0  0  0  0  0  0  0  0  0  0
   34.9831  -21.2712   41.1028 C   0  0  0  0  0  0  0  0  0  0  0  0
   35.1327  -20.2295   42.0683 N   0  0  0  0  0  0  0  0  0  0  0  0
   36.0667  -22.0330   40.7840 N   0  0  0  0  0  0  0  0  0  0  0  0
   35.9361  -23.0338   39.8813 C   0  0  0  0  0  0  0  0  0  0  0  0
   34.7684  -23.2758   39.3071 N   0  0  0  0  0  0  0  0  0  0  0  0
   36.0710  -19.8172   42.2389 H   0  0  0  0  0  0  0  0  0  0  0  0
   34.2820  -19.8996   42.5862 H   0  0  0  0  0  0  0  0  0  0  0  0
  1  2  1  0  0  0
  2  3  2  0  0  0
  3  4  1  0  0  0
  4  5  2  0  0  0
  5  8  1  0  0  0
  8  9  1  0  0  0
  9 10  2  0  0  0
  9 12  1  0  0  0
 12 13  2  0  0  0
 13 14  1  0  0  0
 14 15  2  0  0  0
 15 16  1  0  0  0
 16 17  2  0  0  0
 16 18  1  0  0  0
 18 19  1  0  0  0
 18 20  1  0  0  0
 18 21  1  0  0  0
  5  6  1  0  0  0
  6  7  2  0  0  0
  7 22  1  0  0  0
 22 24  1  0  0  0
 24 25  2  0  0  0
 25 26  1  0  0  0
 26 27  2  0  0  0
 27 28  1  0  0  0
 28 29  2  0  0  0
 29 30  1  0  0  0
 30 31  2  0  0  0
 31 32  1  0  0  0
 32 33  1  0  0  0
 33 34  2  0  0  0
 34 35  1  0  0  0
 35 36  1  0  0  0
 35 37  2  0  0  0
 37 38  1  0  0  0
 38 39  2  0  0  0
  7  2  1  0  0  0
 32 24  1  0  0  0
 39 33  1  0  0  0
 17 12  1  0  0  0
 31 26  1  0  0  0
  8 11  1  0  0  0
 22 23  1  0  0  0
 36 40  1  0  0  0
 36 41  1  0  0  0
M  END
> <minimizedAffinity>
-7.77080

> <CNNscore>
0.1573035270

> <CNNaffinity>
5.7719187737

> <CNN_VS>
0.9079431891

> <CNNaffinity_variance>
0.0856451616

$$$$
[H]c1nc(N([H])[H])c([H])c(-n2c(N([H])c3c([H])c(N([H])C(=O)c4c([H])c([H])c([H])c(C(F)(F)F)c4[H])c([H])c([H])c3C([H])([H])[H])nc3c([H])c([H])c([H])c([H])c32)n1


 41 45  0  0  0  0  0  0  0  0999 V2000
   36.8326  -23.5986   37.0810 C   0  0  0  0  0  0  0  0  0  0  0  0
   36.5941  -22.1227   37.2611 C   0  0  0  0  0  0  0  0  0  0  0  0
   35.3412  -21.6205   37.3899 C   0  0  0  0  0  0  0  0  0  0  0  0
   35.1227  -20.2679   37.5202 C   0  0  0  0  0  0  0  0  0  0  0  0
   36.1737  -19.3653   37.5264 C   0  0  0  0  0  0  0  0  0  0  0  0
   37.4463  -19.8533   37.3926 C   0  0  0  0  0  0  0  0  0  0  0  0
   37.7000  -21.2219   37.2590 C   0  0  0  0  0  0  0  0  0  0  0  0
   35.8222  -17.9695   37.7563 N   0  0  0  0  0  0  0  0  0  0  0  0
   36.0683  -17.0231   36.7460 C   0  0  0  0  0  0  0  0  0  0  0  0
   36.5466  -17.4340   35.6207 O   0  0  0  0  0  0  0  0  0  0  0  0
   35.3964  -17.7365   38.6529 H   0  0  0  0  0  0  0  0  0  0  0  0
   35.8543  -15.6029   36.7965 C   0  0  0  0  0  0  0  0  0  0  0  0
   36.9705  -14.7374   36.8854 C   0  0  0  0  0  0  0  0  0  0  0  0
   36.8340  -13.3819   37.0130 C   0  0  0  0  0  0  0  0  0  0  0  0
   35.5909  -12.8123   37.0609 C   0  0  0  0  0  0  0  0  0  0  0  0
   34.4651  -13.6057   36.9782 C   0  0  0  0  0  0  0  0  0  0  0  0
   34.6212  -14.9699   36.8481 C   0  0  0  0  0  0  0  0  0  0  0  0
   33.1544  -12.9089   37.0523 C   0  0  0  0  0  0  0  0  0  0  0  0
   33.3958  -11.5379   37.2195 F   0  0  0  0  0  0  0  0  0  0  0  0
   32.3527  -13.3138   38.0747 F   0  0  0  0  0  0  0  0  0  0  0  0
   32.4353  -13.1302   35.8743 F   0  0  0  0  0  0  0  0  0  0  0  0
   38.9271  -21.8601   37.2281 N   0  0  0  0  0  0  0  0  0  0  0  0
   38.8657  -22.9343   37.4888 H   0  0  0  0  0  0  0  0  0  0  0  0
   40.2054  -21.3519   36.9736 C   0  0  0  0  0  0  0  0  0  0  0  0
   40.8860  -20.9859   35.8842 N   0  0  0  0  0  0  0  0  0  0  0  0
   42.1711  -20.6421   36.1718 C   0  0  0  0  0  0  0  0  0  0  0  0
   43.2689  -20.2465   35.4510 C   0  0  0  0  0  0  0  0  0  0  0  0
   44.4795  -20.0126   36.0630 C   0  0  0  0  0  0  0  0  0  0  0  0
   44.6207  -20.1675   37.4306 C   0  0  0  0  0  0  0  0  0  0  0  0
   43.5179  -20.5631   38.1589 C   0  0  0  0  0  0  0  0  0  0  0  0
   42.3089  -20.7950   37.5043 C   0  0  0  0  0  0  0  0  0  0  0  0
   41.1485  -21.2127   37.9900 N   0  0  0  0  0  0  0  0  0  0  0  0
   40.9033  -21.4854   39.3579 C   0  0  0  0  0  0  0  0  0  0  0  0
   41.5217  -22.5498   39.9762 C   0  0  0  0  0  0  0  0  0  0  0  0
   41.3080  -22.8373   41.2978 C   0  0  0  0  0  0  0  0  0  0  0  0
   41.9519  -23.9265   41.9601 N   0  0  0  0  0  0  0  0  0  0  0  0
   40.4587  -22.0445   42.0093 N   0  0  0  0  0  0  0  0  0  0  0  0
   39.8526  -20.9992   41.3981 C   0  0  0  0  0  0  0  0  0  0  0  0
   40.0768  -20.7436   40.1190 N   0  0  0  0  0  0  0  0  0  0  0  0
   41.5243  -24.3340   42.8150 H   0  0  0  0  0  0  0  0  0  0  0  0
   42.8499  -24.2954   41.5622 H   0  0  0  0  0  0  0  0  0  0  0  0
  1  2  1  0  0  0
  2  3  2  0  0  0
  3  4  1  0  0  0
  4  5  2  0  0  0
  5  8  1  0  0  0
  8  9  1  0  0  0
  9 10  2  0  0  0
  9 12  1  0  0  0
 12 13  2  0  0  0
 13 14  1  0  0  0
 14 15  2  0  0  0
 15 16  1  0  0  0
 16 17  2  0  0  0
 16 18  1  0  0  0
 18 19  1  0  0  0
 18 20  1  0  0  0
 18 21  1  0  0  0
  5  6  1  0  0  0
  6  7  2  0  0  0
  7 22  1  0  0  0
 22 24  1  0  0  0
 24 25  2  0  0  0
 25 26  1  0  0  0
 26 27  2  0  0  0
 27 28  1  0  0  0
 28 29  2  0  0  0
 29 30  1  0  0  0
 30 31  2  0  0  0
 31 32  1  0  0  0
 32 33  1  0  0  0
 33 34  2  0  0  0
 34 35  1  0  0  0
 35 36  1  0  0  0
 35 37  2  0  0  0
 37 38  1  0  0  0
 38 39  2  0  0  0
  7  2  1  0  0  0
 32 24  1  0  0  0
 39 33  1  0  0  0
 17 12  1  0  0  0
 31 26  1  0  0  0
  8 11  1  0  0  0
 22 23  1  0  0  0
 36 40  1  0  0  0
 36 41  1  0  0  0
M  END
> <minimizedAffinity>
-6.73055

> <CNNscore>
0.1567798108

> <CNNaffinity>
6.0883202553

> <CNN_VS>
0.9545257092

> <CNNaffinity_variance>
0.3773071170

$$$$
[H]c1nc(N([H])[H])c([H])c(-n2c(N([H])c3c([H])c(N([H])C(=O)c4c([H])c([H])c([H])c(C(F)(F)F)c4[H])c([H])c([H])c3C([H])([H])[H])nc3c([H])c([H])c([H])c([H])c32)n1


 41 45  0  0  0  0  0  0  0  0999 V2000
   38.2672  -21.5198   34.5544 C   0  0  0  0  0  0  0  0  0  0  0  0
   37.9578  -20.1211   35.0187 C   0  0  0  0  0  0  0  0  0  0  0  0
   37.5788  -19.1551   34.1458 C   0  0  0  0  0  0  0  0  0  0  0  0
   37.3295  -17.8686   34.5667 C   0  0  0  0  0  0  0  0  0  0  0  0
   37.4542  -17.5092   35.8989 C   0  0  0  0  0  0  0  0  0  0  0  0
   37.8408  -18.4702   36.7948 C   0  0  0  0  0  0  0  0  0  0  0  0
   38.1005  -19.7855   36.3975 C   0  0  0  0  0  0  0  0  0  0  0  0
   37.0809  -16.1406   36.2340 N   0  0  0  0  0  0  0  0  0  0  0  0
   35.7285  -15.7614   36.1694 C   0  0  0  0  0  0  0  0  0  0  0  0
   34.8511  -16.6583   35.8700 O   0  0  0  0  0  0  0  0  0  0  0  0
   37.8291  -15.5077   36.5151 H   0  0  0  0  0  0  0  0  0  0  0  0
   35.1656  -14.4590   36.3979 C   0  0  0  0  0  0  0  0  0  0  0  0
   35.9156  -13.3101   36.0506 C   0  0  0  0  0  0  0  0  0  0  0  0
   35.4707  -12.0426   36.3109 C   0  0  0  0  0  0  0  0  0  0  0  0
   34.2655  -11.8445   36.9275 C   0  0  0  0  0  0  0  0  0  0  0  0
   33.4896  -12.9265   37.2891 C   0  0  0  0  0  0  0  0  0  0  0  0
   33.9527  -14.1971   37.0176 C   0  0  0  0  0  0  0  0  0  0  0  0
   32.2018  -12.6239   37.9667 C   0  0  0  0  0  0  0  0  0  0  0  0
   31.1855  -12.6349   37.0009 F   0  0  0  0  0  0  0  0  0  0  0  0
   32.1603  -11.4174   38.5949 F   0  0  0  0  0  0  0  0  0  0  0  0
   31.9456  -13.5885   38.9452 F   0  0  0  0  0  0  0  0  0  0  0  0
   38.3872  -20.8753   37.2004 N   0  0  0  0  0  0  0  0  0  0  0  0
   38.2557  -21.8444   36.6818 H   0  0  0  0  0  0  0  0  0  0  0  0
   38.7583  -20.9340   38.5479 C   0  0  0  0  0  0  0  0  0  0  0  0
   39.8999  -20.8021   39.2287 N   0  0  0  0  0  0  0  0  0  0  0  0
   39.7396  -21.0559   40.5562 C   0  0  0  0  0  0  0  0  0  0  0  0
   40.5588  -21.1027   41.6552 C   0  0  0  0  0  0  0  0  0  0  0  0
   40.0723  -21.4507   42.8949 C   0  0  0  0  0  0  0  0  0  0  0  0
   38.7350  -21.7603   43.0671 C   0  0  0  0  0  0  0  0  0  0  0  0
   37.9077  -21.7119   41.9642 C   0  0  0  0  0  0  0  0  0  0  0  0
   38.4366  -21.3595   40.7232 C   0  0  0  0  0  0  0  0  0  0  0  0
   37.8449  -21.2873   39.5392 N   0  0  0  0  0  0  0  0  0  0  0  0
   36.4700  -21.5406   39.3131 C   0  0  0  0  0  0  0  0  0  0  0  0
   35.9892  -22.8315   39.3291 C   0  0  0  0  0  0  0  0  0  0  0  0
   34.6651  -23.1086   39.1175 C   0  0  0  0  0  0  0  0  0  0  0  0
   34.1453  -24.4386   39.1460 N   0  0  0  0  0  0  0  0  0  0  0  0
   33.8106  -22.0734   38.8846 N   0  0  0  0  0  0  0  0  0  0  0  0
   34.2868  -20.8060   38.8696 C   0  0  0  0  0  0  0  0  0  0  0  0
   35.5718  -20.5659   39.0770 N   0  0  0  0  0  0  0  0  0  0  0  0
   33.2597  -24.6555   38.6478 H   0  0  0  0  0  0  0  0  0  0  0  0
   34.6771  -25.1738   39.6726 H   0  0  0  0  0  0  0  0  0  0  0  0
  1  2  1  0  0  0
  2  3  2  0  0  0
  3  4  1  0  0  0
  4  5  2  0  0  0
  5  8  1  0  0  0
  8  9  1  0  0  0
  9 10  2  0  0  0
  9 12  1  0  0  0
 12 13  2  0  0  0
 13 14  1  0  0  0
 14 15  2  0  0  0
 15 16  1  0  0  0
 16 17  2  0  0  0
 16 18  1  0  0  0
 18 19  1  0  0  0
 18 20  1  0  0  0
 18 21  1  0  0  0
  5  6  1  0  0  0
  6  7  2  0  0  0
  7 22  1  0  0  0
 22 24  1  0  0  0
 24 25  2  0  0  0
 25 26  1  0  0  0
 26 27  2  0  0  0
 27 28  1  0  0  0
 28 29  2  0  0  0
 29 30  1  0  0  0
 30 31  2  0  0  0
 31 32  1  0  0  0
 32 33  1  0  0  0
 33 34  2  0  0  0
 34 35  1  0  0  0
 35 36  1  0  0  0
 35 37  2  0  0  0
 37 38  1  0  0  0
 38 39  2  0  0  0
  7  2  1  0  0  0
 32 24  1  0  0  0
 39 33  1  0  0  0
 17 12  1  0  0  0
 31 26  1  0  0  0
  8 11  1  0  0  0
 22 23  1  0  0  0
 36 40  1  0  0  0
 36 41  1  0  0  0
M  END
> <minimizedAffinity>
-6.69970

> <CNNscore>
0.1554398686

> <CNNaffinity>
6.0972986221

> <CNN_VS>
0.9477633238

> <CNNaffinity_variance>
0.2354986221

$$$$
[H]c1nc(N([H])[H])c([H])c(-n2c(N([H])c3c([H])c(N([H])C(=O)c4c([H])c([H])c([H])c(C(F)(F)F)c4[H])c([H])c([H])c3C([H])([H])[H])nc3c([H])c([H])c([H])c([H])c32)n1


 41 45  0  0  0  0  0  0  0  0999 V2000
   39.5253  -19.4181   37.0869 C   0  0  0  0  0  0  0  0  0  0  0  0
   38.1396  -19.8827   37.4493 C   0  0  0  0  0  0  0  0  0  0  0  0
   37.9339  -21.0641   38.0823 C   0  0  0  0  0  0  0  0  0  0  0  0
   36.6645  -21.5033   38.3823 C   0  0  0  0  0  0  0  0  0  0  0  0
   35.5461  -20.7557   38.0512 C   0  0  0  0  0  0  0  0  0  0  0  0
   35.7335  -19.5617   37.4071 C   0  0  0  0  0  0  0  0  0  0  0  0
   37.0105  -19.0889   37.0894 C   0  0  0  0  0  0  0  0  0  0  0  0
   34.2631  -21.2848   38.4969 N   0  0  0  0  0  0  0  0  0  0  0  0
   33.3338  -21.7310   37.5408 C   0  0  0  0  0  0  0  0  0  0  0  0
   33.6728  -21.7108   36.2963 O   0  0  0  0  0  0  0  0  0  0  0  0
   34.0951  -21.3179   39.5019 H   0  0  0  0  0  0  0  0  0  0  0  0
   32.0032  -22.2245   37.7670 C   0  0  0  0  0  0  0  0  0  0  0  0
   31.7972  -23.2458   38.7250 C   0  0  0  0  0  0  0  0  0  0  0  0
   30.5695  -23.8122   38.9347 C   0  0  0  0  0  0  0  0  0  0  0  0
   29.4842  -23.4014   38.2099 C   0  0  0  0  0  0  0  0  0  0  0  0
   29.6235  -22.4086   37.2620 C   0  0  0  0  0  0  0  0  0  0  0  0
   30.8680  -21.8475   37.0649 C   0  0  0  0  0  0  0  0  0  0  0  0
   28.3984  -22.0316   36.5096 C   0  0  0  0  0  0  0  0  0  0  0  0
   28.0329  -23.1141   35.6968 F   0  0  0  0  0  0  0  0  0  0  0  0
   28.5378  -20.9419   35.7064 F   0  0  0  0  0  0  0  0  0  0  0  0
   27.3677  -21.7336   37.4055 F   0  0  0  0  0  0  0  0  0  0  0  0
   37.3526  -17.8630   36.5467 N   0  0  0  0  0  0  0  0  0  0  0  0
   38.3130  -17.8834   35.9965 H   0  0  0  0  0  0  0  0  0  0  0  0
   36.7084  -16.6241   36.6317 C   0  0  0  0  0  0  0  0  0  0  0  0
   36.9611  -15.4577   37.2315 N   0  0  0  0  0  0  0  0  0  0  0  0
   35.9396  -14.5707   37.0827 C   0  0  0  0  0  0  0  0  0  0  0  0
   35.6721  -13.2964   37.5135 C   0  0  0  0  0  0  0  0  0  0  0  0
   34.4797  -12.6766   37.2155 C   0  0  0  0  0  0  0  0  0  0  0  0
   33.5151  -13.3254   36.4653 C   0  0  0  0  0  0  0  0  0  0  0  0
   33.7819  -14.6064   36.0284 C   0  0  0  0  0  0  0  0  0  0  0  0
   34.9990  -15.2040   36.3532 C   0  0  0  0  0  0  0  0  0  0  0  0
   35.4459  -16.4212   36.0779 N   0  0  0  0  0  0  0  0  0  0  0  0
   34.7325  -17.3863   35.3261 C   0  0  0  0  0  0  0  0  0  0  0  0
   33.3985  -17.6181   35.5802 C   0  0  0  0  0  0  0  0  0  0  0  0
   32.6806  -18.5417   34.8686 C   0  0  0  0  0  0  0  0  0  0  0  0
   31.2935  -18.7846   35.1066 N   0  0  0  0  0  0  0  0  0  0  0  0
   33.3126  -19.2449   33.8876 N   0  0  0  0  0  0  0  0  0  0  0  0
   34.6238  -19.0144   33.6409 C   0  0  0  0  0  0  0  0  0  0  0  0
   35.2945  -18.1157   34.3440 N   0  0  0  0  0  0  0  0  0  0  0  0
   30.8754  -19.6943   34.8285 H   0  0  0  0  0  0  0  0  0  0  0  0
   30.7236  -18.0317   35.5640 H   0  0  0  0  0  0  0  0  0  0  0  0
  1  2  1  0  0  0
  2  3  2  0  0  0
  3  4  1  0  0  0
  4  5  2  0  0  0
  5  8  1  0  0  0
  8  9  1  0  0  0
  9 10  2  0  0  0
  9 12  1  0  0  0
 12 13  2  0  0  0
 13 14  1  0  0  0
 14 15  2  0  0  0
 15 16  1  0  0  0
 16 17  2  0  0  0
 16 18  1  0  0  0
 18 19  1  0  0  0
 18 20  1  0  0  0
 18 21  1  0  0  0
  5  6  1  0  0  0
  6  7  2  0  0  0
  7 22  1  0  0  0
 22 24  1  0  0  0
 24 25  2  0  0  0
 25 26  1  0  0  0
 26 27  2  0  0  0
 27 28  1  0  0  0
 28 29  2  0  0  0
 29 30  1  0  0  0
 30 31  2  0  0  0
 31 32  1  0  0  0
 32 33  1  0  0  0
 33 34  2  0  0  0
 34 35  1  0  0  0
 35 36  1  0  0  0
 35 37  2  0  0  0
 37 38  1  0  0  0
 38 39  2  0  0  0
  7  2  1  0  0  0
 32 24  1  0  0  0
 39 33  1  0  0  0
 17 12  1  0  0  0
 31 26  1  0  0  0
  8 11  1  0  0  0
 22 23  1  0  0  0
 36 40  1  0  0  0
 36 41  1  0  0  0
M  END
> <minimizedAffinity>
-8.33087

> <CNNscore>
0.1369713098

> <CNNaffinity>
5.9417967796

> <CNN_VS>
0.8138557076

> <CNNaffinity_variance>
0.4517969191

$$$$
[H]OC([H])([H])[C@@]1(O[H])C([H])([H])[C@@]2([H])O[C@]1(C([H])([H])[H])n1c3c([H])c([H])c([H])c([H])c3c3c4c(c5c6c([H])c([H])c([H])c([H])c6n2c5c31)C(=O)N([H])C4([H])[H]


 36 43  0  0  0  0  0  0  0  0999 V2000
   40.9077  -20.5785   34.2737 C   0  0  0  0  0  0  0  0  0  0  0  0
   40.2038  -20.5813   35.5874 C   0  0  0  0  0  0  0  0  0  0  0  0
   38.9550  -21.1446   35.2051 O   0  0  0  0  0  0  0  0  0  0  0  0
   37.9733  -20.6693   36.0053 C   0  0  0  0  0  0  0  0  0  0  0  0
   38.3335  -19.2951   36.3785 C   0  0  0  0  0  0  0  0  0  0  0  0
   39.8144  -19.2189   36.0800 C   0  0  0  0  0  0  0  0  0  0  0  0
   40.4411  -18.8690   37.2667 O   0  0  0  0  0  0  0  0  0  0  0  0
   37.7518  -21.5687   37.1452 N   0  0  0  0  0  0  0  0  0  0  0  0
   36.6171  -21.9167   37.7273 C   0  0  0  0  0  0  0  0  0  0  0  0
   35.3412  -21.5223   37.4182 C   0  0  0  0  0  0  0  0  0  0  0  0
   34.2927  -22.0255   38.1785 C   0  0  0  0  0  0  0  0  0  0  0  0
   34.5296  -22.8950   39.2121 C   0  0  0  0  0  0  0  0  0  0  0  0
   35.8317  -23.2996   39.5301 C   0  0  0  0  0  0  0  0  0  0  0  0
   36.8538  -22.7993   38.7769 C   0  0  0  0  0  0  0  0  0  0  0  0
   38.2181  -22.9781   38.8104 C   0  0  0  0  0  0  0  0  0  0  0  0
   39.0674  -23.7130   39.6175 C   0  0  0  0  0  0  0  0  0  0  0  0
   38.8847  -24.6110   40.7436 C   0  0  0  0  0  0  0  0  0  0  0  0
   37.8605  -24.9804   41.3203 O   0  0  0  0  0  0  0  0  0  0  0  0
   40.1815  -25.0637   41.1451 N   0  0  0  0  0  0  0  0  0  0  0  0
   41.2053  -24.4776   40.3145 C   0  0  0  0  0  0  0  0  0  0  0  0
   40.4255  -23.6425   39.3686 C   0  0  0  0  0  0  0  0  0  0  0  0
   40.9523  -22.8647   38.3433 C   0  0  0  0  0  0  0  0  0  0  0  0
   42.2029  -22.5913   37.8862 C   0  0  0  0  0  0  0  0  0  0  0  0
   43.4277  -23.0355   38.3282 C   0  0  0  0  0  0  0  0  0  0  0  0
   44.5850  -22.5818   37.6883 C   0  0  0  0  0  0  0  0  0  0  0  0
   44.4565  -21.6994   36.6307 C   0  0  0  0  0  0  0  0  0  0  0  0
   43.2126  -21.2671   36.2048 C   0  0  0  0  0  0  0  0  0  0  0  0
   42.0622  -21.7012   36.8183 C   0  0  0  0  0  0  0  0  0  0  0  0
   40.7462  -21.4281   36.6111 N   0  0  0  0  0  0  0  0  0  0  0  0
   40.0895  -22.1604   37.5729 C   0  0  0  0  0  0  0  0  0  0  0  0
   38.7300  -22.2045   37.7911 C   0  0  0  0  0  0  0  0  0  0  0  0
   40.4939  -17.8839   37.3089 H   0  0  0  0  0  0  0  0  0  0  0  0
   40.4023  -25.7317   41.9324 H   0  0  0  0  0  0  0  0  0  0  0  0
   40.0338  -18.1296   35.0856 C   0  0  0  0  0  0  0  0  0  0  0  0
   41.4068  -17.9961   34.8763 O   0  0  0  0  0  0  0  0  0  0  0  0
   41.7712  -17.1571   35.2573 H   0  0  0  0  0  0  0  0  0  0  0  0
  2  1  1  0  0  0
  2  3  1  0  0  0
  3  4  1  0  0  0
  4  5  1  0  0  0
  5  6  1  0  0  0
  6  7  1  0  0  0
  6 34  1  0  0  0
 34 35  1  0  0  0
  4  8  1  0  0  0
  8  9  1  0  0  0
  9 10  2  0  0  0
 10 11  1  0  0  0
 11 12  2  0  0  0
 12 13  1  0  0  0
 13 14  2  0  0  0
 14 15  1  0  0  0
 15 16  2  0  0  0
 16 17  1  0  0  0
 17 18  2  0  0  0
 17 19  1  0  0  0
 19 20  1  0  0  0
 20 21  1  0  0  0
 21 22  2  0  0  0
 22 23  1  0  0  0
 23 24  2  0  0  0
 24 25  1  0  0  0
 25 26  2  0  0  0
 26 27  1  0  0  0
 27 28  2  0  0  0
 28 29  1  0  0  0
 29 30  1  0  0  0
 30 31  2  0  0  0
  6  2  1  0  0  0
 31  8  1  0  0  0
 29  2  1  0  0  0
 14  9  1  0  0  0
 31 15  1  0  0  0
 21 16  1  0  0  0
 30 22  1  0  0  0
 28 23  1  0  0  0
  7 32  1  0  0  0
 35 36  1  0  0  0
 19 33  1  0  0  0
M  END
> <minimizedAffinity>
-2.50162

> <CNNscore>
0.5190642476

> <CNNaffinity>
5.1964340210

> <CNN_VS>
2.6972830296

> <CNNaffinity_variance>
0.4939349294

$$$$
[H]OC([H])([H])[C@@]1(O[H])C([H])([H])[C@@]2([H])O[C@]1(C([H])([H])[H])n1c3c([H])c([H])c([H])c([H])c3c3c4c(c5c6c([H])c([H])c([H])c([H])c6n2c5c31)C(=O)N([H])C4([H])[H]


 36 43  0  0  0  0  0  0  0  0999 V2000
   38.6043  -20.6176   33.4727 C   0  0  0  0  0  0  0  0  0  0  0  0
   38.7738  -20.4526   34.9442 C   0  0  0  0  0  0  0  0  0  0  0  0
   37.4662  -20.7911   35.3900 O   0  0  0  0  0  0  0  0  0  0  0  0
   37.1829  -20.1213   36.5307 C   0  0  0  0  0  0  0  0  0  0  0  0
   37.8697  -18.8246   36.4643 C   0  0  0  0  0  0  0  0  0  0  0  0
   38.9164  -19.0277   35.3914 C   0  0  0  0  0  0  0  0  0  0  0  0
   40.1441  -18.7615   35.9791 O   0  0  0  0  0  0  0  0  0  0  0  0
   37.5277  -20.9304   37.7070 N   0  0  0  0  0  0  0  0  0  0  0  0
   36.8870  -21.0487   38.8572 C   0  0  0  0  0  0  0  0  0  0  0  0
   35.7261  -20.4387   39.2562 C   0  0  0  0  0  0  0  0  0  0  0  0
   35.2357  -20.7198   40.5255 C   0  0  0  0  0  0  0  0  0  0  0  0
   35.8975  -21.5860   41.3576 C   0  0  0  0  0  0  0  0  0  0  0  0
   37.0835  -22.2104   40.9527 C   0  0  0  0  0  0  0  0  0  0  0  0
   37.5560  -21.9272   39.7042 C   0  0  0  0  0  0  0  0  0  0  0  0
   38.6617  -22.3497   39.0018 C   0  0  0  0  0  0  0  0  0  0  0  0
   39.7118  -23.2017   39.2920 C   0  0  0  0  0  0  0  0  0  0  0  0
   40.0805  -24.0169   40.4354 C   0  0  0  0  0  0  0  0  0  0  0  0
   39.5238  -24.1764   41.5229 O   0  0  0  0  0  0  0  0  0  0  0  0
   41.3030  -24.6851   40.1084 N   0  0  0  0  0  0  0  0  0  0  0  0
   41.7445  -24.3202   38.7842 C   0  0  0  0  0  0  0  0  0  0  0  0
   40.6858  -23.3865   38.3285 C   0  0  0  0  0  0  0  0  0  0  0  0
   40.6382  -22.7489   37.0936 C   0  0  0  0  0  0  0  0  0  0  0  0
   41.4339  -22.7212   35.9919 C   0  0  0  0  0  0  0  0  0  0  0  0
   42.6218  -23.3668   35.7370 C   0  0  0  0  0  0  0  0  0  0  0  0
   43.2622  -23.1504   34.5133 C   0  0  0  0  0  0  0  0  0  0  0  0
   42.6769  -22.2920   33.6000 C   0  0  0  0  0  0  0  0  0  0  0  0
   41.4809  -21.6542   33.8803 C   0  0  0  0  0  0  0  0  0  0  0  0
   40.8338  -21.8533   35.0760 C   0  0  0  0  0  0  0  0  0  0  0  0
   39.6817  -21.3522   35.5966 N   0  0  0  0  0  0  0  0  0  0  0  0
   39.5938  -21.9235   36.8450 C   0  0  0  0  0  0  0  0  0  0  0  0
   38.6047  -21.7133   37.7806 C   0  0  0  0  0  0  0  0  0  0  0  0
   40.3419  -17.8015   35.8591 H   0  0  0  0  0  0  0  0  0  0  0  0
   41.8392  -25.3578   40.7206 H   0  0  0  0  0  0  0  0  0  0  0  0
   38.6774  -18.0271   34.3120 C   0  0  0  0  0  0  0  0  0  0  0  0
   37.4101  -17.4740   34.4987 O   0  0  0  0  0  0  0  0  0  0  0  0
   36.7624  -17.7614   33.8060 H   0  0  0  0  0  0  0  0  0  0  0  0
  2  1  1  0  0  0
  2  3  1  0  0  0
  3  4  1  0  0  0
  4  5  1  0  0  0
  5  6  1  0  0  0
  6  7  1  0  0  0
  6 34  1  0  0  0
 34 35  1  0  0  0
  4  8  1  0  0  0
  8  9  1  0  0  0
  9 10  2  0  0  0
 10 11  1  0  0  0
 11 12  2  0  0  0
 12 13  1  0  0  0
 13 14  2  0  0  0
 14 15  1  0  0  0
 15 16  2  0  0  0
 16 17  1  0  0  0
 17 18  2  0  0  0
 17 19  1  0  0  0
 19 20  1  0  0  0
 20 21  1  0  0  0
 21 22  2  0  0  0
 22 23  1  0  0  0
 23 24  2  0  0  0
 24 25  1  0  0  0
 25 26  2  0  0  0
 26 27  1  0  0  0
 27 28  2  0  0  0
 28 29  1  0  0  0
 29 30  1  0  0  0
 30 31  2  0  0  0
  6  2  1  0  0  0
 31  8  1  0  0  0
 29  2  1  0  0  0
 14  9  1  0  0  0
 31 15  1  0  0  0
 21 16  1  0  0  0
 30 22  1  0  0  0
 28 23  1  0  0  0
  7 32  1  0  0  0
 35 36  1  0  0  0
 19 33  1  0  0  0
M  END
> <minimizedAffinity>
-3.46072

> <CNNscore>
0.4768095613

> <CNNaffinity>
5.0164899826

> <CNN_VS>
2.3919103146

> <CNNaffinity_variance>
0.1995955408

$$$$
[H]OC([H])([H])[C@@]1(O[H])C([H])([H])[C@@]2([H])O[C@]1(C([H])([H])[H])n1c3c([H])c([H])c([H])c([H])c3c3c4c(c5c6c([H])c([H])c([H])c([H])c6n2c5c31)C(=O)N([H])C4([H])[H]


 36 43  0  0  0  0  0  0  0  0999 V2000
   37.2010  -21.3350   36.9298 C   0  0  0  0  0  0  0  0  0  0  0  0
   35.8250  -21.0457   37.4239 C   0  0  0  0  0  0  0  0  0  0  0  0
   35.0856  -21.1952   36.2181 O   0  0  0  0  0  0  0  0  0  0  0  0
   33.9988  -20.3900   36.2436 C   0  0  0  0  0  0  0  0  0  0  0  0
   34.3570  -19.1881   37.0083 C   0  0  0  0  0  0  0  0  0  0  0  0
   35.5885  -19.6077   37.7798 C   0  0  0  0  0  0  0  0  0  0  0  0
   35.2987  -19.4195   39.1229 O   0  0  0  0  0  0  0  0  0  0  0  0
   32.8297  -21.1123   36.7620 N   0  0  0  0  0  0  0  0  0  0  0  0
   31.5675  -21.0471   36.3748 C   0  0  0  0  0  0  0  0  0  0  0  0
   31.0160  -20.2789   35.3825 C   0  0  0  0  0  0  0  0  0  0  0  0
   29.6492  -20.3792   35.1532 C   0  0  0  0  0  0  0  0  0  0  0  0
   28.8724  -21.2261   35.9015 C   0  0  0  0  0  0  0  0  0  0  0  0
   29.4330  -22.0120   36.9156 C   0  0  0  0  0  0  0  0  0  0  0  0
   30.7762  -21.9055   37.1322 C   0  0  0  0  0  0  0  0  0  0  0  0
   31.6337  -22.5121   38.0218 C   0  0  0  0  0  0  0  0  0  0  0  0
   31.4641  -23.4401   39.0331 C   0  0  0  0  0  0  0  0  0  0  0  0
   30.3311  -24.1742   39.5673 C   0  0  0  0  0  0  0  0  0  0  0  0
   29.1421  -24.1651   39.2448 O   0  0  0  0  0  0  0  0  0  0  0  0
   30.8184  -24.9997   40.6299 N   0  0  0  0  0  0  0  0  0  0  0  0
   32.2384  -24.8165   40.8071 C   0  0  0  0  0  0  0  0  0  0  0  0
   32.5768  -23.8230   39.7588 C   0  0  0  0  0  0  0  0  0  0  0  0
   33.8428  -23.3082   39.5025 C   0  0  0  0  0  0  0  0  0  0  0  0
   35.0787  -23.4751   40.0433 C   0  0  0  0  0  0  0  0  0  0  0  0
   35.4915  -24.2673   41.0896 C   0  0  0  0  0  0  0  0  0  0  0  0
   36.8368  -24.2427   41.4692 C   0  0  0  0  0  0  0  0  0  0  0  0
   37.7072  -23.4197   40.7773 C   0  0  0  0  0  0  0  0  0  0  0  0
   37.2672  -22.6318   39.7279 C   0  0  0  0  0  0  0  0  0  0  0  0
   35.9498  -22.6414   39.3372 C   0  0  0  0  0  0  0  0  0  0  0  0
   35.2689  -21.9699   38.3703 N   0  0  0  0  0  0  0  0  0  0  0  0
   33.9700  -22.4030   38.5033 C   0  0  0  0  0  0  0  0  0  0  0  0
   32.8844  -21.9961   37.7591 C   0  0  0  0  0  0  0  0  0  0  0  0
   35.5695  -18.5030   39.3716 H   0  0  0  0  0  0  0  0  0  0  0  0
   30.2526  -25.6631   41.2253 H   0  0  0  0  0  0  0  0  0  0  0  0
   36.7077  -18.6979   37.4014 C   0  0  0  0  0  0  0  0  0  0  0  0
   36.2227  -17.3897   37.3817 O   0  0  0  0  0  0  0  0  0  0  0  0
   36.1611  -17.0193   36.4648 H   0  0  0  0  0  0  0  0  0  0  0  0
  2  1  1  0  0  0
  2  3  1  0  0  0
  3  4  1  0  0  0
  4  5  1  0  0  0
  5  6  1  0  0  0
  6  7  1  0  0  0
  6 34  1  0  0  0
 34 35  1  0  0  0
  4  8  1  0  0  0
  8  9  1  0  0  0
  9 10  2  0  0  0
 10 11  1  0  0  0
 11 12  2  0  0  0
 12 13  1  0  0  0
 13 14  2  0  0  0
 14 15  1  0  0  0
 15 16  2  0  0  0
 16 17  1  0  0  0
 17 18  2  0  0  0
 17 19  1  0  0  0
 19 20  1  0  0  0
 20 21  1  0  0  0
 21 22  2  0  0  0
 22 23  1  0  0  0
 23 24  2  0  0  0
 24 25  1  0  0  0
 25 26  2  0  0  0
 26 27  1  0  0  0
 27 28  2  0  0  0
 28 29  1  0  0  0
 29 30  1  0  0  0
 30 31  2  0  0  0
  6  2  1  0  0  0
 31  8  1  0  0  0
 29  2  1  0  0  0
 14  9  1  0  0  0
 31 15  1  0  0  0
 21 16  1  0  0  0
 30 22  1  0  0  0
 28 23  1  0  0  0
  7 32  1  0  0  0
 35 36  1  0  0  0
 19 33  1  0  0  0
M  END
> <minimizedAffinity>
-4.41859

> <CNNscore>
0.4702917635

> <CNNaffinity>
4.6526031494

> <CNN_VS>
2.1880810261

> <CNNaffinity_variance>
0.1913258135

$$$$
[H]OC([H])([H])[C@@]1(O[H])C([H])([H])[C@@]2([H])O[C@]1(C([H])([H])[H])n1c3c([H])c([H])c([H])c([H])c3c3c4c(c5c6c([H])c([H])c([H])c([H])c6n2c5c31)C(=O)N([H])C4([H])[H]


 36 43  0  0  0  0  0  0  0  0999 V2000
   36.9920  -20.2377   34.4550 C   0  0  0  0  0  0  0  0  0  0  0  0
   36.6617  -19.1976   35.4701 C   0  0  0  0  0  0  0  0  0  0  0  0
   37.7430  -18.2954   35.2702 O   0  0  0  0  0  0  0  0  0  0  0  0
   38.0318  -17.6616   36.4300 C   0  0  0  0  0  0  0  0  0  0  0  0
   37.7514  -18.5974   37.5269 C   0  0  0  0  0  0  0  0  0  0  0  0
   36.8584  -19.6391   36.8902 C   0  0  0  0  0  0  0  0  0  0  0  0
   35.6815  -19.6549   37.6237 O   0  0  0  0  0  0  0  0  0  0  0  0
   37.3066  -16.3876   36.5198 N   0  0  0  0  0  0  0  0  0  0  0  0
   37.7132  -15.2265   37.0036 C   0  0  0  0  0  0  0  0  0  0  0  0
   38.9268  -14.9078   37.5556 C   0  0  0  0  0  0  0  0  0  0  0  0
   39.1279  -13.6070   38.0006 C   0  0  0  0  0  0  0  0  0  0  0  0
   38.1363  -12.6662   37.8898 C   0  0  0  0  0  0  0  0  0  0  0  0
   36.8958  -12.9888   37.3265 C   0  0  0  0  0  0  0  0  0  0  0  0
   36.7092  -14.2692   36.8927 C   0  0  0  0  0  0  0  0  0  0  0  0
   35.6447  -14.9147   36.3054 C   0  0  0  0  0  0  0  0  0  0  0  0
   34.3680  -14.5229   35.9461 C   0  0  0  0  0  0  0  0  0  0  0  0
   33.6231  -13.2786   36.0153 C   0  0  0  0  0  0  0  0  0  0  0  0
   33.9478  -12.1692   36.4417 O   0  0  0  0  0  0  0  0  0  0  0  0
   32.3244  -13.5259   35.4677 N   0  0  0  0  0  0  0  0  0  0  0  0
   32.2010  -14.9015   35.0505 C   0  0  0  0  0  0  0  0  0  0  0  0
   33.5331  -15.4666   35.3773 C   0  0  0  0  0  0  0  0  0  0  0  0
   33.9370  -16.7793   35.1594 C   0  0  0  0  0  0  0  0  0  0  0  0
   33.3508  -17.8967   34.6540 C   0  0  0  0  0  0  0  0  0  0  0  0
   32.0806  -18.0889   34.1615 C   0  0  0  0  0  0  0  0  0  0  0  0
   31.7123  -19.3608   33.7131 C   0  0  0  0  0  0  0  0  0  0  0  0
   32.6411  -20.3838   33.7814 C   0  0  0  0  0  0  0  0  0  0  0  0
   33.9130  -20.1650   34.2813 C   0  0  0  0  0  0  0  0  0  0  0  0
   34.2965  -18.9227   34.7261 C   0  0  0  0  0  0  0  0  0  0  0  0
   35.4536  -18.4514   35.2634 N   0  0  0  0  0  0  0  0  0  0  0  0
   35.1948  -17.1253   35.5226 C   0  0  0  0  0  0  0  0  0  0  0  0
   36.0552  -16.2131   36.0932 C   0  0  0  0  0  0  0  0  0  0  0  0
   35.7791  -20.3173   38.3495 H   0  0  0  0  0  0  0  0  0  0  0  0
   31.5382  -12.8286   35.3650 H   0  0  0  0  0  0  0  0  0  0  0  0
   37.5224  -20.9674   37.0253 C   0  0  0  0  0  0  0  0  0  0  0  0
   38.5632  -20.8463   37.9467 O   0  0  0  0  0  0  0  0  0  0  0  0
   39.4570  -20.9056   37.5229 H   0  0  0  0  0  0  0  0  0  0  0  0
  2  1  1  0  0  0
  2  3  1  0  0  0
  3  4  1  0  0  0
  4  5  1  0  0  0
  5  6  1  0  0  0
  6  7  1  0  0  0
  6 34  1  0  0  0
 34 35  1  0  0  0
  4  8  1  0  0  0
  8  9  1  0  0  0
  9 10  2  0  0  0
 10 11  1  0  0  0
 11 12  2  0  0  0
 12 13  1  0  0  0
 13 14  2  0  0  0
 14 15  1  0  0  0
 15 16  2  0  0  0
 16 17  1  0  0  0
 17 18  2  0  0  0
 17 19  1  0  0  0
 19 20  1  0  0  0
 20 21  1  0  0  0
 21 22  2  0  0  0
 22 23  1  0  0  0
 23 24  2  0  0  0
 24 25  1  0  0  0
 25 26  2  0  0  0
 26 27  1  0  0  0
 27 28  2  0  0  0
 28 29  1  0  0  0
 29 30  1  0  0  0
 30 31  2  0  0  0
  6  2  1  0  0  0
 31  8  1  0  0  0
 29  2  1  0  0  0
 14  9  1  0  0  0
 31 15  1  0  0  0
 21 16  1  0  0  0
 30 22  1  0  0  0
 28 23  1  0  0  0
  7 32  1  0  0  0
 35 36  1  0  0  0
 19 33  1  0  0  0
M  END
> <minimizedAffinity>
2.43783

> <CNNscore>
0.4258829355

> <CNNaffinity>
5.2684025764

> <CNN_VS>
2.2437226772

> <CNNaffinity_variance>
0.3669317663

$$$$
[H]OC([H])([H])[C@@]1(O[H])C([H])([H])[C@@]2([H])O[C@]1(C([H])([H])[H])n1c3c([H])c([H])c([H])c([H])c3c3c4c(c5c6c([H])c([H])c([H])c([H])c6n2c5c31)C(=O)N([H])C4([H])[H]


 36 43  0  0  0  0  0  0  0  0999 V2000
   34.8870  -12.2894   35.5755 C   0  0  0  0  0  0  0  0  0  0  0  0
   34.5958  -13.6246   36.1702 C   0  0  0  0  0  0  0  0  0  0  0  0
   33.9505  -14.2566   35.0714 O   0  0  0  0  0  0  0  0  0  0  0  0
   33.0546  -15.1630   35.5252 C   0  0  0  0  0  0  0  0  0  0  0  0
   32.5152  -14.6549   36.7934 C   0  0  0  0  0  0  0  0  0  0  0  0
   33.5234  -13.6107   37.2191 C   0  0  0  0  0  0  0  0  0  0  0  0
   33.9819  -13.9891   38.4720 O   0  0  0  0  0  0  0  0  0  0  0  0
   33.6654  -16.4956   35.6168 N   0  0  0  0  0  0  0  0  0  0  0  0
   33.1407  -17.6766   35.3387 C   0  0  0  0  0  0  0  0  0  0  0  0
   31.8778  -17.9676   34.8922 C   0  0  0  0  0  0  0  0  0  0  0  0
   31.5483  -19.2984   34.6660 C   0  0  0  0  0  0  0  0  0  0  0  0
   32.4647  -20.2950   34.8842 C   0  0  0  0  0  0  0  0  0  0  0  0
   33.7554  -20.0007   35.3401 C   0  0  0  0  0  0  0  0  0  0  0  0
   34.0681  -18.6905   35.5590 C   0  0  0  0  0  0  0  0  0  0  0  0
   35.2107  -18.0594   35.9957 C   0  0  0  0  0  0  0  0  0  0  0  0
   36.4598  -18.5051   36.3878 C   0  0  0  0  0  0  0  0  0  0  0  0
   37.0963  -19.8062   36.4862 C   0  0  0  0  0  0  0  0  0  0  0  0
   36.6670  -20.9331   36.2337 O   0  0  0  0  0  0  0  0  0  0  0  0
   38.4286  -19.5961   36.9646 N   0  0  0  0  0  0  0  0  0  0  0  0
   38.6741  -18.1920   37.1879 C   0  0  0  0  0  0  0  0  0  0  0  0
   37.3883  -17.5652   36.7951 C   0  0  0  0  0  0  0  0  0  0  0  0
   37.1043  -16.2042   36.8198 C   0  0  0  0  0  0  0  0  0  0  0  0
   37.7858  -15.0838   37.1776 C   0  0  0  0  0  0  0  0  0  0  0  0
   39.0659  -14.9382   37.6603 C   0  0  0  0  0  0  0  0  0  0  0  0
   39.5298  -13.6579   37.9767 C   0  0  0  0  0  0  0  0  0  0  0  0
   38.6823  -12.5802   37.7930 C   0  0  0  0  0  0  0  0  0  0  0  0
   37.3983  -12.7528   37.3059 C   0  0  0  0  0  0  0  0  0  0  0  0
   36.9223  -14.0019   36.9873 C   0  0  0  0  0  0  0  0  0  0  0  0
   35.7248  -14.4404   36.5149 N   0  0  0  0  0  0  0  0  0  0  0  0
   35.8712  -15.8055   36.4270 C   0  0  0  0  0  0  0  0  0  0  0  0
   34.9192  -16.7125   36.0158 C   0  0  0  0  0  0  0  0  0  0  0  0
   33.4012  -13.5710   39.1524 H   0  0  0  0  0  0  0  0  0  0  0  0
   39.1604  -20.3360   37.1428 H   0  0  0  0  0  0  0  0  0  0  0  0
   32.8159  -12.3041   37.3449 C   0  0  0  0  0  0  0  0  0  0  0  0
   31.6942  -12.3305   36.5155 O   0  0  0  0  0  0  0  0  0  0  0  0
   31.7865  -11.7342   35.7295 H   0  0  0  0  0  0  0  0  0  0  0  0
  2  1  1  0  0  0
  2  3  1  0  0  0
  3  4  1  0  0  0
  4  5  1  0  0  0
  5  6  1  0  0  0
  6  7  1  0  0  0
  6 34  1  0  0  0
 34 35  1  0  0  0
  4  8  1  0  0  0
  8  9  1  0  0  0
  9 10  2  0  0  0
 10 11  1  0  0  0
 11 12  2  0  0  0
 12 13  1  0  0  0
 13 14  2  0  0  0
 14 15  1  0  0  0
 15 16  2  0  0  0
 16 17  1  0  0  0
 17 18  2  0  0  0
 17 19  1  0  0  0
 19 20  1  0  0  0
 20 21  1  0  0  0
 21 22  2  0  0  0
 22 23  1  0  0  0
 23 24  2  0  0  0
 24 25  1  0  0  0
 25 26  2  0  0  0
 26 27  1  0  0  0
 27 28  2  0  0  0
 28 29  1  0  0  0
 29 30  1  0  0  0
 30 31  2  0  0  0
  6  2  1  0  0  0
 31  8  1  0  0  0
 29  2  1  0  0  0
 14  9  1  0  0  0
 31 15  1  0  0  0
 21 16  1  0  0  0
 30 22  1  0  0  0
 28 23  1  0  0  0
  7 32  1  0  0  0
 35 36  1  0  0  0
 19 33  1  0  0  0
M  END
> <minimizedAffinity>
4.11246

> <CNNscore>
0.4218677878

> <CNNaffinity>
5.5063371658

> <CNN_VS>
2.3229463100

> <CNNaffinity_variance>
0.1401888728

$$$$
[H]OC([H])([H])[C@@]1(O[H])C([H])([H])[C@@]2([H])O[C@]1(C([H])([H])[H])n1c3c([H])c([H])c([H])c([H])c3c3c4c(c5c6c([H])c([H])c([H])c([H])c6n2c5c31)C(=O)N([H])C4([H])[H]


 36 43  0  0  0  0  0  0  0  0999 V2000
   30.5730  -19.3064   35.5455 C   0  0  0  0  0  0  0  0  0  0  0  0
   31.7001  -20.2619   35.7400 C   0  0  0  0  0  0  0  0  0  0  0  0
   32.5225  -19.5083   36.6224 O   0  0  0  0  0  0  0  0  0  0  0  0
   33.8209  -19.8374   36.4327 C   0  0  0  0  0  0  0  0  0  0  0  0
   33.9893  -20.1714   35.0122 C   0  0  0  0  0  0  0  0  0  0  0  0
   32.5777  -20.4320   34.5353 C   0  0  0  0  0  0  0  0  0  0  0  0
   32.5621  -21.7225   34.0276 O   0  0  0  0  0  0  0  0  0  0  0  0
   34.2268  -20.9032   37.3582 N   0  0  0  0  0  0  0  0  0  0  0  0
   35.3704  -21.0603   38.0023 C   0  0  0  0  0  0  0  0  0  0  0  0
   36.4861  -20.2645   37.9707 C   0  0  0  0  0  0  0  0  0  0  0  0
   37.5821  -20.6342   38.7406 C   0  0  0  0  0  0  0  0  0  0  0  0
   37.5474  -21.7672   39.5125 C   0  0  0  0  0  0  0  0  0  0  0  0
   36.4093  -22.5818   39.5467 C   0  0  0  0  0  0  0  0  0  0  0  0
   35.3387  -22.2093   38.7868 C   0  0  0  0  0  0  0  0  0  0  0  0
   34.0933  -22.7605   38.5870 C   0  0  0  0  0  0  0  0  0  0  0  0
   33.4615  -23.8951   39.0624 C   0  0  0  0  0  0  0  0  0  0  0  0
   33.8280  -24.9622   39.9760 C   0  0  0  0  0  0  0  0  0  0  0  0
   34.8660  -25.1571   40.6106 O   0  0  0  0  0  0  0  0  0  0  0  0
   32.7143  -25.8571   40.0580 N   0  0  0  0  0  0  0  0  0  0  0  0
   31.6343  -25.4048   39.2151 C   0  0  0  0  0  0  0  0  0  0  0  0
   32.1766  -24.1568   38.6243 C   0  0  0  0  0  0  0  0  0  0  0  0
   31.5124  -23.3219   37.7325 C   0  0  0  0  0  0  0  0  0  0  0  0
   30.2946  -23.3307   37.1286 C   0  0  0  0  0  0  0  0  0  0  0  0
   29.2626  -24.2357   37.2220 C   0  0  0  0  0  0  0  0  0  0  0  0
   28.1035  -24.0224   36.4700 C   0  0  0  0  0  0  0  0  0  0  0  0
   28.0358  -22.9059   35.6562 C   0  0  0  0  0  0  0  0  0  0  0  0
   29.0880  -22.0100   35.5794 C   0  0  0  0  0  0  0  0  0  0  0  0
   30.2359  -22.1994   36.3107 C   0  0  0  0  0  0  0  0  0  0  0  0
   31.3957  -21.4956   36.4067 N   0  0  0  0  0  0  0  0  0  0  0  0
   32.1626  -22.2194   37.2902 C   0  0  0  0  0  0  0  0  0  0  0  0
   33.4437  -21.9259   37.7032 C   0  0  0  0  0  0  0  0  0  0  0  0
   32.7793  -21.6782   33.0654 H   0  0  0  0  0  0  0  0  0  0  0  0
   32.6506  -26.7355   40.6404 H   0  0  0  0  0  0  0  0  0  0  0  0
   32.2771  -19.4801   33.4275 C   0  0  0  0  0  0  0  0  0  0  0  0
   32.9964  -18.3055   33.6506 O   0  0  0  0  0  0  0  0  0  0  0  0
   32.4152  -17.5449   33.9067 H   0  0  0  0  0  0  0  0  0  0  0  0
  2  1  1  0  0  0
  2  3  1  0  0  0
  3  4  1  0  0  0
  4  5  1  0  0  0
  5  6  1  0  0  0
  6  7  1  0  0  0
  6 34  1  0  0  0
 34 35  1  0  0  0
  4  8  1  0  0  0
  8  9  1  0  0  0
  9 10  2  0  0  0
 10 11  1  0  0  0
 11 12  2  0  0  0
 12 13  1  0  0  0
 13 14  2  0  0  0
 14 15  1  0  0  0
 15 16  2  0  0  0
 16 17  1  0  0  0
 17 18  2  0  0  0
 17 19  1  0  0  0
 19 20  1  0  0  0
 20 21  1  0  0  0
 21 22  2  0  0  0
 22 23  1  0  0  0
 23 24  2  0  0  0
 24 25  1  0  0  0
 25 26  2  0  0  0
 26 27  1  0  0  0
 27 28  2  0  0  0
 28 29  1  0  0  0
 29 30  1  0  0  0
 30 31  2  0  0  0
  6  2  1  0  0  0
 31  8  1  0  0  0
 29  2  1  0  0  0
 14  9  1  0  0  0
 31 15  1  0  0  0
 21 16  1  0  0  0
 30 22  1  0  0  0
 28 23  1  0  0  0
  7 32  1  0  0  0
 35 36  1  0  0  0
 19 33  1  0  0  0
M  END
> <minimizedAffinity>
-5.45711

> <CNNscore>
0.4024246335

> <CNNaffinity>
4.6571936607

> <CNN_VS>
1.8741694689

> <CNNaffinity_variance>
0.5176367760

$$$$
[H]OC([H])([H])[C@@]1(O[H])C([H])([H])[C@@]2([H])O[C@]1(C([H])([H])[H])n1c3c([H])c([H])c([H])c([H])c3c3c4c(c5c6c([H])c([H])c([H])c([H])c6n2c5c31)C(=O)N([H])C4([H])[H]


 36 43  0  0  0  0  0  0  0  0999 V2000
   41.4564  -21.2852   33.6044 C   0  0  0  0  0  0  0  0  0  0  0  0
   40.6818  -20.6048   34.6807 C   0  0  0  0  0  0  0  0  0  0  0  0
   39.3717  -21.0735   34.3856 O   0  0  0  0  0  0  0  0  0  0  0  0
   38.4584  -20.1490   34.7615 C   0  0  0  0  0  0  0  0  0  0  0  0
   39.0689  -18.8253   34.5803 C   0  0  0  0  0  0  0  0  0  0  0  0
   40.5500  -19.1214   34.5004 C   0  0  0  0  0  0  0  0  0  0  0  0
   41.1556  -18.3936   35.5138 O   0  0  0  0  0  0  0  0  0  0  0  0
   37.9814  -20.4150   36.1249 N   0  0  0  0  0  0  0  0  0  0  0  0
   36.7634  -20.2911   36.6235 C   0  0  0  0  0  0  0  0  0  0  0  0
   35.6196  -19.8747   35.9932 C   0  0  0  0  0  0  0  0  0  0  0  0
   34.4419  -19.8243   36.7289 C   0  0  0  0  0  0  0  0  0  0  0  0
   34.4256  -20.1825   38.0526 C   0  0  0  0  0  0  0  0  0  0  0  0
   35.5923  -20.6081   38.6989 C   0  0  0  0  0  0  0  0  0  0  0  0
   36.7431  -20.6538   37.9669 C   0  0  0  0  0  0  0  0  0  0  0  0
   38.0360  -21.0130   38.2735 C   0  0  0  0  0  0  0  0  0  0  0  0
   38.6602  -21.4471   39.4288 C   0  0  0  0  0  0  0  0  0  0  0  0
   38.2222  -21.7240   40.7850 C   0  0  0  0  0  0  0  0  0  0  0  0
   37.1080  -21.6388   41.3039 O   0  0  0  0  0  0  0  0  0  0  0  0
   39.3684  -22.1551   41.5255 N   0  0  0  0  0  0  0  0  0  0  0  0
   40.5437  -22.1587   40.6886 C   0  0  0  0  0  0  0  0  0  0  0  0
   40.0170  -21.7072   39.3774 C   0  0  0  0  0  0  0  0  0  0  0  0
   40.7595  -21.5472   38.2126 C   0  0  0  0  0  0  0  0  0  0  0  0
   42.0670  -21.7012   37.8744 C   0  0  0  0  0  0  0  0  0  0  0  0
   43.1420  -22.0958   38.6371 C   0  0  0  0  0  0  0  0  0  0  0  0
   44.4076  -22.1547   38.0461 C   0  0  0  0  0  0  0  0  0  0  0  0
   44.5341  -21.8127   36.7117 C   0  0  0  0  0  0  0  0  0  0  0  0
   43.4370  -21.4186   35.9656 C   0  0  0  0  0  0  0  0  0  0  0  0
   42.1838  -21.3549   36.5258 C   0  0  0  0  0  0  0  0  0  0  0  0
   40.9690  -20.9954   36.0313 N   0  0  0  0  0  0  0  0  0  0  0  0
   40.1134  -21.1222   37.1010 C   0  0  0  0  0  0  0  0  0  0  0  0
   38.7626  -20.8517   37.1135 C   0  0  0  0  0  0  0  0  0  0  0  0
   41.4076  -17.5104   35.1512 H   0  0  0  0  0  0  0  0  0  0  0  0
   39.3941  -22.4393   42.5420 H   0  0  0  0  0  0  0  0  0  0  0  0
   41.0546  -18.6233   33.1886 C   0  0  0  0  0  0  0  0  0  0  0  0
   40.3252  -17.4858   32.8408 O   0  0  0  0  0  0  0  0  0  0  0  0
   39.7138  -17.6432   32.0771 H   0  0  0  0  0  0  0  0  0  0  0  0
  2  1  1  0  0  0
  2  3  1  0  0  0
  3  4  1  0  0  0
  4  5  1  0  0  0
  5  6  1  0  0  0
  6  7  1  0  0  0
  6 34  1  0  0  0
 34 35  1  0  0  0
  4  8  1  0  0  0
  8  9  1  0  0  0
  9 10  2  0  0  0
 10 11  1  0  0  0
 11 12  2  0  0  0
 12 13  1  0  0  0
 13 14  2  0  0  0
 14 15  1  0  0  0
 15 16  2  0  0  0
 16 17  1  0  0  0
 17 18  2  0  0  0
 17 19  1  0  0  0
 19 20  1  0  0  0
 20 21  1  0  0  0
 21 22  2  0  0  0
 22 23  1  0  0  0
 23 24  2  0  0  0
 24 25  1  0  0  0
 25 26  2  0  0  0
 26 27  1  0  0  0
 27 28  2  0  0  0
 28 29  1  0  0  0
 29 30  1  0  0  0
 30 31  2  0  0  0
  6  2  1  0  0  0
 31  8  1  0  0  0
 29  2  1  0  0  0
 14  9  1  0  0  0
 31 15  1  0  0  0
 21 16  1  0  0  0
 30 22  1  0  0  0
 28 23  1  0  0  0
  7 32  1  0  0  0
 35 36  1  0  0  0
 19 33  1  0  0  0
M  END
> <minimizedAffinity>
-5.76259

> <CNNscore>
0.3963257670

> <CNNaffinity>
4.8879919052

> <CNN_VS>
1.9372371435

> <CNNaffinity_variance>
0.1395575255

$$$$
[H]OC([H])([H])[C@@]1(O[H])C([H])([H])[C@@]2([H])O[C@]1(C([H])([H])[H])n1c3c([H])c([H])c([H])c([H])c3c3c4c(c5c6c([H])c([H])c([H])c([H])c6n2c5c31)C(=O)N([H])C4([H])[H]


 36 43  0  0  0  0  0  0  0  0999 V2000
   39.9020  -18.3867   33.9056 C   0  0  0  0  0  0  0  0  0  0  0  0
   39.7312  -19.5763   34.7870 C   0  0  0  0  0  0  0  0  0  0  0  0
   40.7557  -19.3331   35.7431 O   0  0  0  0  0  0  0  0  0  0  0  0
   41.2236  -20.5082   36.2230 C   0  0  0  0  0  0  0  0  0  0  0  0
   41.1363  -21.4949   35.1384 C   0  0  0  0  0  0  0  0  0  0  0  0
   40.1621  -20.8711   34.1638 C   0  0  0  0  0  0  0  0  0  0  0  0
   39.1213  -21.7746   34.0098 O   0  0  0  0  0  0  0  0  0  0  0  0
   40.5096  -20.8896   37.4485 N   0  0  0  0  0  0  0  0  0  0  0  0
   40.9776  -21.4586   38.5460 C   0  0  0  0  0  0  0  0  0  0  0  0
   42.2617  -21.8476   38.8268 C   0  0  0  0  0  0  0  0  0  0  0  0
   42.5192  -22.4312   40.0612 C   0  0  0  0  0  0  0  0  0  0  0  0
   41.5131  -22.6130   40.9751 C   0  0  0  0  0  0  0  0  0  0  0  0
   40.2006  -22.2167   40.6911 C   0  0  0  0  0  0  0  0  0  0  0  0
   39.9590  -21.6446   39.4758 C   0  0  0  0  0  0  0  0  0  0  0  0
   38.8197  -21.1518   38.8812 C   0  0  0  0  0  0  0  0  0  0  0  0
   37.4973  -21.0601   39.2758 C   0  0  0  0  0  0  0  0  0  0  0  0
   36.7608  -21.4204   40.4739 C   0  0  0  0  0  0  0  0  0  0  0  0
   37.1391  -21.9394   41.5254 O   0  0  0  0  0  0  0  0  0  0  0  0
   35.3927  -21.0593   40.2603 N   0  0  0  0  0  0  0  0  0  0  0  0
   35.2172  -20.4800   38.9507 C   0  0  0  0  0  0  0  0  0  0  0  0
   36.5906  -20.5070   38.3908 C   0  0  0  0  0  0  0  0  0  0  0  0
   36.9671  -20.0466   37.1339 C   0  0  0  0  0  0  0  0  0  0  0  0
   36.3180  -19.4913   36.0765 C   0  0  0  0  0  0  0  0  0  0  0  0
   34.9864  -19.1872   35.9111 C   0  0  0  0  0  0  0  0  0  0  0  0
   34.5631  -18.6311   34.7002 C   0  0  0  0  0  0  0  0  0  0  0  0
   35.5012  -18.4065   33.7087 C   0  0  0  0  0  0  0  0  0  0  0  0
   36.8355  -18.7213   33.8995 C   0  0  0  0  0  0  0  0  0  0  0  0
   37.2735  -19.2673   35.0821 C   0  0  0  0  0  0  0  0  0  0  0  0
   38.4978  -19.6721   35.5141 N   0  0  0  0  0  0  0  0  0  0  0  0
   38.2710  -20.1514   36.7835 C   0  0  0  0  0  0  0  0  0  0  0  0
   39.2035  -20.6979   37.6378 C   0  0  0  0  0  0  0  0  0  0  0  0
   39.3432  -22.3759   33.2587 H   0  0  0  0  0  0  0  0  0  0  0  0
   34.5930  -21.1822   40.9388 H   0  0  0  0  0  0  0  0  0  0  0  0
   40.8532  -20.7117   32.8521 C   0  0  0  0  0  0  0  0  0  0  0  0
   42.0027  -21.5025   32.8625 O   0  0  0  0  0  0  0  0  0  0  0  0
   42.8349  -20.9657   32.8973 H   0  0  0  0  0  0  0  0  0  0  0  0
  2  1  1  0  0  0
  2  3  1  0  0  0
  3  4  1  0  0  0
  4  5  1  0  0  0
  5  6  1  0  0  0
  6  7  1  0  0  0
  6 34  1  0  0  0
 34 35  1  0  0  0
  4  8  1  0  0  0
  8  9  1  0  0  0
  9 10  2  0  0  0
 10 11  1  0  0  0
 11 12  2  0  0  0
 12 13  1  0  0  0
 13 14  2  0  0  0
 14 15  1  0  0  0
 15 16  2  0  0  0
 16 17  1  0  0  0
 17 18  2  0  0  0
 17 19  1  0  0  0
 19 20  1  0  0  0
 20 21  1  0  0  0
 21 22  2  0  0  0
 22 23  1  0  0  0
 23 24  2  0  0  0
 24 25  1  0  0  0
 25 26  2  0  0  0
 26 27  1  0  0  0
 27 28  2  0  0  0
 28 29  1  0  0  0
 29 30  1  0  0  0
 30 31  2  0  0  0
  6  2  1  0  0  0
 31  8  1  0  0  0
 29  2  1  0  0  0
 14  9  1  0  0  0
 31 15  1  0  0  0
 21 16  1  0  0  0
 30 22  1  0  0  0
 28 23  1  0  0  0
  7 32  1  0  0  0
 35 36  1  0  0  0
 19 33  1  0  0  0
M  END
> <minimizedAffinity>
-6.41346

> <CNNscore>
0.3938021660

> <CNNaffinity>
4.8714742661

> <CNN_VS>
1.9183970690

> <CNNaffinity_variance>
0.3315862715

$$$$
[H]OC([H])([H])[C@@]1(O[H])C([H])([H])[C@@]2([H])O[C@]1(C([H])([H])[H])n1c3c([H])c([H])c([H])c([H])c3c3c4c(c5c6c([H])c([H])c([H])c([H])c6n2c5c31)C(=O)N([H])C4([H])[H]


 36 43  0  0  0  0  0  0  0  0999 V2000
   34.6526  -10.9907   34.9026 C   0  0  0  0  0  0  0  0  0  0  0  0
   33.9337  -10.8935   36.2045 C   0  0  0  0  0  0  0  0  0  0  0  0
   32.8117  -10.1099   35.8170 O   0  0  0  0  0  0  0  0  0  0  0  0
   32.3877   -9.3664   36.8646 C   0  0  0  0  0  0  0  0  0  0  0  0
   33.5676   -9.0231   37.6694 C   0  0  0  0  0  0  0  0  0  0  0  0
   34.6117  -10.0203   37.2185 C   0  0  0  0  0  0  0  0  0  0  0  0
   35.0150  -10.7122   38.3506 O   0  0  0  0  0  0  0  0  0  0  0  0
   31.3318  -10.0685   37.6058 N   0  0  0  0  0  0  0  0  0  0  0  0
   30.2390   -9.5809   38.1675 C   0  0  0  0  0  0  0  0  0  0  0  0
   29.8053   -8.2812   38.2081 C   0  0  0  0  0  0  0  0  0  0  0  0
   28.6119   -8.0041   38.8635 C   0  0  0  0  0  0  0  0  0  0  0  0
   27.8868   -9.0067   39.4547 C   0  0  0  0  0  0  0  0  0  0  0  0
   28.3274  -10.3351   39.4149 C   0  0  0  0  0  0  0  0  0  0  0  0
   29.5007  -10.5959   38.7686 C   0  0  0  0  0  0  0  0  0  0  0  0
   30.2100  -11.7537   38.5433 C   0  0  0  0  0  0  0  0  0  0  0  0
   30.0162  -13.0779   38.8919 C   0  0  0  0  0  0  0  0  0  0  0  0
   28.9884  -13.8044   39.6156 C   0  0  0  0  0  0  0  0  0  0  0  0
   27.9496  -13.4115   40.1490 O   0  0  0  0  0  0  0  0  0  0  0  0
   29.3718  -15.1830   39.6351 N   0  0  0  0  0  0  0  0  0  0  0  0
   30.6271  -15.3724   38.9495 C   0  0  0  0  0  0  0  0  0  0  0  0
   30.9690  -14.0003   38.5013 C   0  0  0  0  0  0  0  0  0  0  0  0
   32.0997  -13.6377   37.7776 C   0  0  0  0  0  0  0  0  0  0  0  0
   33.1822  -14.2971   37.2866 C   0  0  0  0  0  0  0  0  0  0  0  0
   33.5185  -15.6294   37.3565 C   0  0  0  0  0  0  0  0  0  0  0  0
   34.7171  -16.0575   36.7781 C   0  0  0  0  0  0  0  0  0  0  0  0
   35.5246  -15.1233   36.1546 C   0  0  0  0  0  0  0  0  0  0  0  0
   35.1640  -13.7882   36.0977 C   0  0  0  0  0  0  0  0  0  0  0  0
   33.9899  -13.3458   36.6583 C   0  0  0  0  0  0  0  0  0  0  0  0
   33.4184  -12.1154   36.7526 N   0  0  0  0  0  0  0  0  0  0  0  0
   32.2543  -12.3321   37.4531 C   0  0  0  0  0  0  0  0  0  0  0  0
   31.3270  -11.3838   37.8256 C   0  0  0  0  0  0  0  0  0  0  0  0
   35.7803  -10.2323   38.7494 H   0  0  0  0  0  0  0  0  0  0  0  0
   28.8404  -15.9808   40.0777 H   0  0  0  0  0  0  0  0  0  0  0  0
   35.7785   -9.2624   36.6819 C   0  0  0  0  0  0  0  0  0  0  0  0
   35.4082   -7.9240   36.5467 O   0  0  0  0  0  0  0  0  0  0  0  0
   35.3195   -7.6463   35.5997 H   0  0  0  0  0  0  0  0  0  0  0  0
  2  1  1  0  0  0
  2  3  1  0  0  0
  3  4  1  0  0  0
  4  5  1  0  0  0
  5  6  1  0  0  0
  6  7  1  0  0  0
  6 34  1  0  0  0
 34 35  1  0  0  0
  4  8  1  0  0  0
  8  9  1  0  0  0
  9 10  2  0  0  0
 10 11  1  0  0  0
 11 12  2  0  0  0
 12 13  1  0  0  0
 13 14  2  0  0  0
 14 15  1  0  0  0
 15 16  2  0  0  0
 16 17  1  0  0  0
 17 18  2  0  0  0
 17 19  1  0  0  0
 19 20  1  0  0  0
 20 21  1  0  0  0
 21 22  2  0  0  0
 22 23  1  0  0  0
 23 24  2  0  0  0
 24 25  1  0  0  0
 25 26  2  0  0  0
 26 27  1  0  0  0
 27 28  2  0  0  0
 28 29  1  0  0  0
 29 30  1  0  0  0
 30 31  2  0  0  0
  6  2  1  0  0  0
 31  8  1  0  0  0
 29  2  1  0  0  0
 14  9  1  0  0  0
 31 15  1  0  0  0
 21 16  1  0  0  0
 30 22  1  0  0  0
 28 23  1  0  0  0
  7 32  1  0  0  0
 35 36  1  0  0  0
 19 33  1  0  0  0
M  END
> <minimizedAffinity>
22.99475

> <CNNscore>
0.3818517923

> <CNNaffinity>
5.8708062172

> <CNN_VS>
2.2417778969

> <CNNaffinity_variance>
0.3232588172

$$$$
[H]c1nc(N([H])c2c([H])c(N([H])C(=O)c3c([H])c([H])c(C([H])([H])N4C([H])([H])C([H])([H])N(C([H])([H])[H])C([H])([H])C4([H])[H])c(C(F)(F)F)c3[H])c([H])c([H])c2C([H])([H])[H])nc(-c2c([H])nc([H])c([H])c2[H])c1[H]


 43 47  0  0  0  0  0  0  0  0999 V2000
   35.0690  -19.5720   35.0390 C   0  0  0  0  0  0  0  0  0  0  0  0
   34.9590  -18.6539   34.2023 O   0  0  0  0  0  0  0  0  0  0  0  0
   36.3107  -20.0629   35.4383 N   0  0  0  0  0  0  0  0  0  0  0  0
   36.3049  -20.8637   36.1697 H   0  0  0  0  0  0  0  0  0  0  0  0
   37.6014  -19.6747   35.0393 C   0  0  0  0  0  0  0  0  0  0  0  0
   37.9406  -19.8054   33.6862 C   0  0  0  0  0  0  0  0  0  0  0  0
   39.1941  -19.4545   33.2524 C   0  0  0  0  0  0  0  0  0  0  0  0
   40.1343  -18.9703   34.1359 C   0  0  0  0  0  0  0  0  0  0  0  0
   41.4817  -18.5921   33.6638 C   0  0  0  0  0  0  0  0  0  0  0  0
   39.8528  -18.8195   35.4921 C   0  0  0  0  0  0  0  0  0  0  0  0
   38.5931  -19.1781   35.8970 C   0  0  0  0  0  0  0  0  0  0  0  0
   40.8483  -18.3295   36.3350 N   0  0  0  0  0  0  0  0  0  0  0  0
   40.9439  -17.2477   36.3950 H   0  0  0  0  0  0  0  0  0  0  0  0
   41.7784  -19.0042   37.1426 C   0  0  0  0  0  0  0  0  0  0  0  0
   42.9320  -19.5494   36.7384 N   0  0  0  0  0  0  0  0  0  0  0  0
   43.7761  -20.1804   37.5630 C   0  0  0  0  0  0  0  0  0  0  0  0
   43.4725  -20.2972   38.9269 C   0  0  0  0  0  0  0  0  0  0  0  0
   42.2917  -19.7423   39.3564 C   0  0  0  0  0  0  0  0  0  0  0  0
   41.5110  -19.1305   38.4573 N   0  0  0  0  0  0  0  0  0  0  0  0
   41.8750  -19.8076   40.7772 C   0  0  0  0  0  0  0  0  0  0  0  0
   40.7010  -20.3992   41.1377 C   0  0  0  0  0  0  0  0  0  0  0  0
   40.3481  -20.4390   42.4916 C   0  0  0  0  0  0  0  0  0  0  0  0
   41.1641  -19.8933   43.4534 C   0  0  0  0  0  0  0  0  0  0  0  0
   42.3110  -19.3205   43.0542 N   0  0  0  0  0  0  0  0  0  0  0  0
   42.6769  -19.2669   41.7625 C   0  0  0  0  0  0  0  0  0  0  0  0
   31.3461  -21.0799   36.5461 C   0  0  0  0  0  0  0  0  0  0  0  0
   32.5455  -21.4947   37.0686 C   0  0  0  0  0  0  0  0  0  0  0  0
   33.7597  -21.0101   36.5890 C   0  0  0  0  0  0  0  0  0  0  0  0
   33.8080  -20.0962   35.5700 C   0  0  0  0  0  0  0  0  0  0  0  0
   32.5935  -19.6933   35.0582 C   0  0  0  0  0  0  0  0  0  0  0  0
   31.3796  -20.1515   35.5095 C   0  0  0  0  0  0  0  0  0  0  0  0
   30.0929  -19.6904   34.9333 C   0  0  0  0  0  0  0  0  0  0  0  0
   29.4905  -18.7004   35.6721 F   0  0  0  0  0  0  0  0  0  0  0  0
   30.3719  -19.1670   33.6759 F   0  0  0  0  0  0  0  0  0  0  0  0
   29.2249  -20.7530   34.7121 F   0  0  0  0  0  0  0  0  0  0  0  0
   30.0926  -21.6519   37.0315 C   0  0  0  0  0  0  0  0  0  0  0  0
   28.0856  -26.1409   35.9696 C   0  0  0  0  0  0  0  0  0  0  0  0
   27.8452  -24.9774   36.8010 N   0  0  0  0  0  0  0  0  0  0  0  0
   28.0978  -23.8001   35.9632 C   0  0  0  0  0  0  0  0  0  0  0  0
   29.5800  -23.6327   35.8142 C   0  0  0  0  0  0  0  0  0  0  0  0
   30.2155  -23.1318   37.0579 N   0  0  0  0  0  0  0  0  0  0  0  0
   29.3436  -23.6089   38.1586 C   0  0  0  0  0  0  0  0  0  0  0  0
   28.8421  -25.0110   37.8739 C   0  0  0  0  0  0  0  0  0  0  0  0
 37 38  1  0  0  0
 38 39  1  0  0  0
 39 40  1  0  0  0
 40 41  1  0  0  0
 41 36  1  0  0  0
 36 26  1  0  0  0
 26 27  2  0  0  0
 27 28  1  0  0  0
 28 29  2  0  0  0
 29 30  1  0  0  0
 30 31  2  0  0  0
 31 32  1  0  0  0
 32 33  1  0  0  0
 32 34  1  0  0  0
 32 35  1  0  0  0
 29  1  1  0  0  0
  1  2  2  0  0  0
  1  3  1  0  0  0
  3  5  1  0  0  0
  5  6  2  0  0  0
  6  7  1  0  0  0
  7  8  2  0  0  0
  8  9  1  0  0  0
  8 10  1  0  0  0
 10 12  1  0  0  0
 12 14  1  0  0  0
 14 15  2  0  0  0
 15 16  1  0  0  0
 16 17  2  0  0  0
 17 18  1  0  0  0
 18 19  2  0  0  0
 18 20  1  0  0  0
 20 21  2  0  0  0
 21 22  1  0  0  0
 22 23  2  0  0  0
 23 24  1  0  0  0
 24 25  2  0  0  0
 10 11  2  0  0  0
 41 42  1  0  0  0
 42 43  1  0  0  0
 43 38  1  0  0  0
 31 26  1  0  0  0
 11  5  1  0  0  0
 19 14  1  0  0  0
 25 20  1  0  0  0
  3  4  1  0  0  0
 12 13  1  0  0  0
M  END
> <minimizedAffinity>
-6.56009

> <CNNscore>
0.3257098794

> <CNNaffinity>
5.6301569939

> <CNN_VS>
1.8337978125

> <CNNaffinity_variance>
0.0201238357

$$$$
[H]c1nc(N([H])c2c([H])c(N([H])C(=O)c3c([H])c([H])c(C([H])([H])N4C([H])([H])C([H])([H])N(C([H])([H])[H])C([H])([H])C4([H])[H])c(C(F)(F)F)c3[H])c([H])c([H])c2C([H])([H])[H])nc(-c2c([H])nc([H])c([H])c2[H])c1[H]


 43 47  0  0  0  0  0  0  0  0999 V2000
   36.2107  -19.4385   37.2841 C   0  0  0  0  0  0  0  0  0  0  0  0
   36.2862  -18.2872   37.7574 O   0  0  0  0  0  0  0  0  0  0  0  0
   37.3396  -20.2315   37.0863 N   0  0  0  0  0  0  0  0  0  0  0  0
   37.1738  -21.2181   36.6677 H   0  0  0  0  0  0  0  0  0  0  0  0
   38.6914  -19.9534   37.3530 C   0  0  0  0  0  0  0  0  0  0  0  0
   39.3643  -19.0709   36.4976 C   0  0  0  0  0  0  0  0  0  0  0  0
   40.6888  -18.7814   36.7084 C   0  0  0  0  0  0  0  0  0  0  0  0
   41.3747  -19.3511   37.7592 C   0  0  0  0  0  0  0  0  0  0  0  0
   42.8000  -19.0350   37.9831 C   0  0  0  0  0  0  0  0  0  0  0  0
   40.7570  -20.2354   38.6409 C   0  0  0  0  0  0  0  0  0  0  0  0
   39.4338  -20.5063   38.4060 C   0  0  0  0  0  0  0  0  0  0  0  0
   41.5068  -20.7818   39.6806 N   0  0  0  0  0  0  0  0  0  0  0  0
   42.2405  -21.5361   39.4052 H   0  0  0  0  0  0  0  0  0  0  0  0
   41.4812  -20.5253   41.0612 C   0  0  0  0  0  0  0  0  0  0  0  0
   40.4508  -20.0301   41.7573 N   0  0  0  0  0  0  0  0  0  0  0  0
   40.4926  -19.8092   43.0763 C   0  0  0  0  0  0  0  0  0  0  0  0
   41.6570  -20.0983   43.8021 C   0  0  0  0  0  0  0  0  0  0  0  0
   42.7229  -20.6072   43.1011 C   0  0  0  0  0  0  0  0  0  0  0  0
   42.5874  -20.7943   41.7824 N   0  0  0  0  0  0  0  0  0  0  0  0
   44.0003  -20.9486   43.7705 C   0  0  0  0  0  0  0  0  0  0  0  0
   44.2315  -20.5906   45.0654 C   0  0  0  0  0  0  0  0  0  0  0  0
   45.4520  -20.9350   45.6578 C   0  0  0  0  0  0  0  0  0  0  0  0
   46.4116  -21.6239   44.9555 C   0  0  0  0  0  0  0  0  0  0  0  0
   46.1424  -21.9566   43.6828 N   0  0  0  0  0  0  0  0  0  0  0  0
   44.9804  -21.6401   43.0869 C   0  0  0  0  0  0  0  0  0  0  0  0
   32.2540  -20.7428   36.2601 C   0  0  0  0  0  0  0  0  0  0  0  0
   32.9765  -21.3678   37.2455 C   0  0  0  0  0  0  0  0  0  0  0  0
   34.2604  -20.9515   37.5879 C   0  0  0  0  0  0  0  0  0  0  0  0
   34.8593  -19.8968   36.9516 C   0  0  0  0  0  0  0  0  0  0  0  0
   34.1183  -19.2834   35.9647 C   0  0  0  0  0  0  0  0  0  0  0  0
   32.8501  -19.6694   35.6042 C   0  0  0  0  0  0  0  0  0  0  0  0
   32.0837  -18.9805   34.5374 C   0  0  0  0  0  0  0  0  0  0  0  0
   32.7137  -17.8590   34.0535 F   0  0  0  0  0  0  0  0  0  0  0  0
   31.9524  -19.8777   33.4835 F   0  0  0  0  0  0  0  0  0  0  0  0
   30.7873  -18.6928   34.9475 F   0  0  0  0  0  0  0  0  0  0  0  0
   30.9333  -21.2414   35.8845 C   0  0  0  0  0  0  0  0  0  0  0  0
   27.2565  -23.4237   38.5350 C   0  0  0  0  0  0  0  0  0  0  0  0
   27.4855  -22.7960   37.2481 N   0  0  0  0  0  0  0  0  0  0  0  0
   28.7647  -23.3116   36.7483 C   0  0  0  0  0  0  0  0  0  0  0  0
   29.8738  -22.6362   37.4971 C   0  0  0  0  0  0  0  0  0  0  0  0
   30.0526  -21.2234   37.0802 N   0  0  0  0  0  0  0  0  0  0  0  0
   28.7150  -20.7843   36.6137 C   0  0  0  0  0  0  0  0  0  0  0  0
   27.6253  -21.3591   37.4972 C   0  0  0  0  0  0  0  0  0  0  0  0
 37 38  1  0  0  0
 38 39  1  0  0  0
 39 40  1  0  0  0
 40 41  1  0  0  0
 41 36  1  0  0  0
 36 26  1  0  0  0
 26 27  2  0  0  0
 27 28  1  0  0  0
 28 29  2  0  0  0
 29 30  1  0  0  0
 30 31  2  0  0  0
 31 32  1  0  0  0
 32 33  1  0  0  0
 32 34  1  0  0  0
 32 35  1  0  0  0
 29  1  1  0  0  0
  1  2  2  0  0  0
  1  3  1  0  0  0
  3  5  1  0  0  0
  5  6  2  0  0  0
  6  7  1  0  0  0
  7  8  2  0  0  0
  8  9  1  0  0  0
  8 10  1  0  0  0
 10 12  1  0  0  0
 12 14  1  0  0  0
 14 15  2  0  0  0
 15 16  1  0  0  0
 16 17  2  0  0  0
 17 18  1  0  0  0
 18 19  2  0  0  0
 18 20  1  0  0  0
 20 21  2  0  0  0
 21 22  1  0  0  0
 22 23  2  0  0  0
 23 24  1  0  0  0
 24 25  2  0  0  0
 10 11  2  0  0  0
 41 42  1  0  0  0
 42 43  1  0  0  0
 43 38  1  0  0  0
 31 26  1  0  0  0
 11  5  1  0  0  0
 19 14  1  0  0  0
 25 20  1  0  0  0
  3  4  1  0  0  0
 12 13  1  0  0  0
M  END
> <minimizedAffinity>
-6.48539

> <CNNscore>
0.2960888445

> <CNNaffinity>
5.4219293594

> <CNN_VS>
1.6053727865

> <CNNaffinity_variance>
0.0232935697

$$$$
[H]c1nc(N([H])c2c([H])c(N([H])C(=O)c3c([H])c([H])c(C([H])([H])N4C([H])([H])C([H])([H])N(C([H])([H])[H])C([H])([H])C4([H])[H])c(C(F)(F)F)c3[H])c([H])c([H])c2C([H])([H])[H])nc(-c2c([H])nc([H])c([H])c2[H])c1[H]


 43 47  0  0  0  0  0  0  0  0999 V2000
   38.5378  -18.4387   36.0366 C   0  0  0  0  0  0  0  0  0  0  0  0
   38.1254  -18.6610   34.8809 O   0  0  0  0  0  0  0  0  0  0  0  0
   37.9126  -17.5228   36.8807 N   0  0  0  0  0  0  0  0  0  0  0  0
   38.3453  -17.3962   37.8671 H   0  0  0  0  0  0  0  0  0  0  0  0
   36.7808  -16.7202   36.6558 C   0  0  0  0  0  0  0  0  0  0  0  0
   36.8866  -15.3458   36.9066 C   0  0  0  0  0  0  0  0  0  0  0  0
   35.8038  -14.5247   36.7170 C   0  0  0  0  0  0  0  0  0  0  0  0
   34.6014  -15.0361   36.2790 C   0  0  0  0  0  0  0  0  0  0  0  0
   33.4391  -14.1480   36.0746 C   0  0  0  0  0  0  0  0  0  0  0  0
   34.4383  -16.3942   36.0141 C   0  0  0  0  0  0  0  0  0  0  0  0
   35.5365  -17.1904   36.2126 C   0  0  0  0  0  0  0  0  0  0  0  0
   33.1955  -16.8498   35.5787 N   0  0  0  0  0  0  0  0  0  0  0  0
   32.4073  -16.1048   35.4965 H   0  0  0  0  0  0  0  0  0  0  0  0
   32.7672  -18.1379   35.2187 C   0  0  0  0  0  0  0  0  0  0  0  0
   32.3680  -18.5305   34.0029 N   0  0  0  0  0  0  0  0  0  0  0  0
   31.9710  -19.7781   33.7263 C   0  0  0  0  0  0  0  0  0  0  0  0
   31.9584  -20.7527   34.7343 C   0  0  0  0  0  0  0  0  0  0  0  0
   32.3656  -20.3645   35.9873 C   0  0  0  0  0  0  0  0  0  0  0  0
   32.7455  -19.0937   36.1685 N   0  0  0  0  0  0  0  0  0  0  0  0
   32.3921  -21.3151   37.1239 C   0  0  0  0  0  0  0  0  0  0  0  0
   31.3877  -22.2185   37.3069 C   0  0  0  0  0  0  0  0  0  0  0  0
   31.4548  -23.0982   38.3936 C   0  0  0  0  0  0  0  0  0  0  0  0
   32.5122  -23.0621   39.2707 C   0  0  0  0  0  0  0  0  0  0  0  0
   33.4794  -22.1566   39.0532 N   0  0  0  0  0  0  0  0  0  0  0  0
   33.4430  -21.2993   38.0192 C   0  0  0  0  0  0  0  0  0  0  0  0
   41.9746  -20.7287   37.1981 C   0  0  0  0  0  0  0  0  0  0  0  0
   41.9417  -19.3656   37.3549 C   0  0  0  0  0  0  0  0  0  0  0  0
   40.8307  -18.6126   36.9837 C   0  0  0  0  0  0  0  0  0  0  0  0
   39.7198  -19.2034   36.4429 C   0  0  0  0  0  0  0  0  0  0  0  0
   39.7728  -20.5723   36.2926 C   0  0  0  0  0  0  0  0  0  0  0  0
   40.8526  -21.3430   36.6492 C   0  0  0  0  0  0  0  0  0  0  0  0
   40.8694  -22.8158   36.4738 C   0  0  0  0  0  0  0  0  0  0  0  0
   42.0824  -23.2980   36.0442 F   0  0  0  0  0  0  0  0  0  0  0  0
   40.6089  -23.3790   37.7179 F   0  0  0  0  0  0  0  0  0  0  0  0
   39.8365  -23.2412   35.6468 F   0  0  0  0  0  0  0  0  0  0  0  0
   43.1778  -21.4821   37.5425 C   0  0  0  0  0  0  0  0  0  0  0  0
   44.3758  -21.1482   42.4169 C   0  0  0  0  0  0  0  0  0  0  0  0
   44.9928  -21.3993   41.1289 N   0  0  0  0  0  0  0  0  0  0  0  0
   44.4324  -20.4179   40.1936 C   0  0  0  0  0  0  0  0  0  0  0  0
   43.0419  -20.8463   39.8328 C   0  0  0  0  0  0  0  0  0  0  0  0
   43.0348  -22.0167   38.9207 N   0  0  0  0  0  0  0  0  0  0  0  0
   44.2877  -22.7508   39.2218 C   0  0  0  0  0  0  0  0  0  0  0  0
   44.5701  -22.7383   40.7112 C   0  0  0  0  0  0  0  0  0  0  0  0
 37 38  1  0  0  0
 38 39  1  0  0  0
 39 40  1  0  0  0
 40 41  1  0  0  0
 41 36  1  0  0  0
 36 26  1  0  0  0
 26 27  2  0  0  0
 27 28  1  0  0  0
 28 29  2  0  0  0
 29 30  1  0  0  0
 30 31  2  0  0  0
 31 32  1  0  0  0
 32 33  1  0  0  0
 32 34  1  0  0  0
 32 35  1  0  0  0
 29  1  1  0  0  0
  1  2  2  0  0  0
  1  3  1  0  0  0
  3  5  1  0  0  0
  5  6  2  0  0  0
  6  7  1  0  0  0
  7  8  2  0  0  0
  8  9  1  0  0  0
  8 10  1  0  0  0
 10 12  1  0  0  0
 12 14  1  0  0  0
 14 15  2  0  0  0
 15 16  1  0  0  0
 16 17  2  0  0  0
 17 18  1  0  0  0
 18 19  2  0  0  0
 18 20  1  0  0  0
 20 21  2  0  0  0
 21 22  1  0  0  0
 22 23  2  0  0  0
 23 24  1  0  0  0
 24 25  2  0  0  0
 10 11  2  0  0  0
 41 42  1  0  0  0
 42 43  1  0  0  0
 43 38  1  0  0  0
 31 26  1  0  0  0
 11  5  1  0  0  0
 19 14  1  0  0  0
 25 20  1  0  0  0
  3  4  1  0  0  0
 12 13  1  0  0  0
M  END
> <minimizedAffinity>
-6.78449

> <CNNscore>
0.2706652582

> <CNNaffinity>
5.9004101753

> <CNN_VS>
1.5970360041

> <CNNaffinity_variance>
0.1891450584

$$$$
[H]c1nc(N([H])c2c([H])c(N([H])C(=O)c3c([H])c([H])c(C([H])([H])N4C([H])([H])C([H])([H])N(C([H])([H])[H])C([H])([H])C4([H])[H])c(C(F)(F)F)c3[H])c([H])c([H])c2C([H])([H])[H])nc(-c2c([H])nc([H])c([H])c2[H])c1[H]


 43 47  0  0  0  0  0  0  0  0999 V2000
   36.2986  -17.1286   36.2687 C   0  0  0  0  0  0  0  0  0  0  0  0
   36.5893  -16.7671   35.1111 O   0  0  0  0  0  0  0  0  0  0  0  0
   35.7142  -16.2602   37.1889 N   0  0  0  0  0  0  0  0  0  0  0  0
   35.4995  -16.6655   38.1717 H   0  0  0  0  0  0  0  0  0  0  0  0
   35.3449  -14.9118   37.0434 C   0  0  0  0  0  0  0  0  0  0  0  0
   36.3318  -13.9343   37.2267 C   0  0  0  0  0  0  0  0  0  0  0  0
   36.0152  -12.6043   37.1108 C   0  0  0  0  0  0  0  0  0  0  0  0
   34.7283  -12.2109   36.8138 C   0  0  0  0  0  0  0  0  0  0  0  0
   34.3927  -10.7781   36.6883 C   0  0  0  0  0  0  0  0  0  0  0  0
   33.7069  -13.1387   36.6215 C   0  0  0  0  0  0  0  0  0  0  0  0
   34.0520  -14.4598   36.7437 C   0  0  0  0  0  0  0  0  0  0  0  0
   32.4252  -12.6767   36.3288 N   0  0  0  0  0  0  0  0  0  0  0  0
   32.1399  -12.6706   35.2792 H   0  0  0  0  0  0  0  0  0  0  0  0
   31.4080  -12.2020   37.1727 C   0  0  0  0  0  0  0  0  0  0  0  0
   30.6741  -11.0980   36.9876 N   0  0  0  0  0  0  0  0  0  0  0  0
   29.7164  -10.7010   37.8336 C   0  0  0  0  0  0  0  0  0  0  0  0
   29.4371  -11.4528   38.9838 C   0  0  0  0  0  0  0  0  0  0  0  0
   30.1822  -12.5885   39.1871 C   0  0  0  0  0  0  0  0  0  0  0  0
   31.1193  -12.9057   38.2852 N   0  0  0  0  0  0  0  0  0  0  0  0
   29.9681  -13.4560   40.3695 C   0  0  0  0  0  0  0  0  0  0  0  0
   29.3820  -14.6805   40.2446 C   0  0  0  0  0  0  0  0  0  0  0  0
   29.2006  -15.4666   41.3884 C   0  0  0  0  0  0  0  0  0  0  0  0
   29.6030  -15.0224   42.6251 C   0  0  0  0  0  0  0  0  0  0  0  0
   30.1757  -13.8105   42.7026 N   0  0  0  0  0  0  0  0  0  0  0  0
   30.3633  -13.0330   41.6228 C   0  0  0  0  0  0  0  0  0  0  0  0
   37.1581  -21.2242   37.2131 C   0  0  0  0  0  0  0  0  0  0  0  0
   38.1625  -20.3350   36.9232 C   0  0  0  0  0  0  0  0  0  0  0  0
   37.8954  -19.0029   36.6177 C   0  0  0  0  0  0  0  0  0  0  0  0
   36.6131  -18.5225   36.5923 C   0  0  0  0  0  0  0  0  0  0  0  0
   35.6189  -19.4310   36.8850 C   0  0  0  0  0  0  0  0  0  0  0  0
   35.8494  -20.7502   37.1907 C   0  0  0  0  0  0  0  0  0  0  0  0
   34.7508  -21.6966   37.5031 C   0  0  0  0  0  0  0  0  0  0  0  0
   34.8164  -22.8632   36.7797 F   0  0  0  0  0  0  0  0  0  0  0  0
   34.8664  -22.0280   38.8483 F   0  0  0  0  0  0  0  0  0  0  0  0
   33.5062  -21.0919   37.3723 F   0  0  0  0  0  0  0  0  0  0  0  0
   37.4675  -22.6283   37.4713 C   0  0  0  0  0  0  0  0  0  0  0  0
   40.1694  -26.1139   35.0512 C   0  0  0  0  0  0  0  0  0  0  0  0
   39.6215  -25.8377   36.3650 N   0  0  0  0  0  0  0  0  0  0  0  0
   38.2546  -25.3468   36.1580 C   0  0  0  0  0  0  0  0  0  0  0  0
   38.3274  -23.9303   35.6731 C   0  0  0  0  0  0  0  0  0  0  0  0
   38.7158  -22.9879   36.7513 N   0  0  0  0  0  0  0  0  0  0  0  0
   39.5313  -23.7915   37.6940 C   0  0  0  0  0  0  0  0  0  0  0  0
   40.4252  -24.7559   36.9396 C   0  0  0  0  0  0  0  0  0  0  0  0
 37 38  1  0  0  0
 38 39  1  0  0  0
 39 40  1  0  0  0
 40 41  1  0  0  0
 41 36  1  0  0  0
 36 26  1  0  0  0
 26 27  2  0  0  0
 27 28  1  0  0  0
 28 29  2  0  0  0
 29 30  1  0  0  0
 30 31  2  0  0  0
 31 32  1  0  0  0
 32 33  1  0  0  0
 32 34  1  0  0  0
 32 35  1  0  0  0
 29  1  1  0  0  0
  1  2  2  0  0  0
  1  3  1  0  0  0
  3  5  1  0  0  0
  5  6  2  0  0  0
  6  7  1  0  0  0
  7  8  2  0  0  0
  8  9  1  0  0  0
  8 10  1  0  0  0
 10 12  1  0  0  0
 12 14  1  0  0  0
 14 15  2  0  0  0
 15 16  1  0  0  0
 16 17  2  0  0  0
 17 18  1  0  0  0
 18 19  2  0  0  0
 18 20  1  0  0  0
 20 21  2  0  0  0
 21 22  1  0  0  0
 22 23  2  0  0  0
 23 24  1  0  0  0
 24 25  2  0  0  0
 10 11  2  0  0  0
 41 42  1  0  0  0
 42 43  1  0  0  0
 43 38  1  0  0  0
 31 26  1  0  0  0
 11  5  1  0  0  0
 19 14  1  0  0  0
 25 20  1  0  0  0
  3  4  1  0  0  0
 12 13  1  0  0  0
M  END
> <minimizedAffinity>
-7.95407

> <CNNscore>
0.2701215744

> <CNNaffinity>
6.3402128220

> <CNN_VS>
1.7126282454

> <CNNaffinity_variance>
0.1146329418

$$$$
[H]c1nc(N([H])c2c([H])c(N([H])C(=O)c3c([H])c([H])c(C([H])([H])N4C([H])([H])C([H])([H])N(C([H])([H])[H])C([H])([H])C4([H])[H])c(C(F)(F)F)c3[H])c([H])c([H])c2C([H])([H])[H])nc(-c2c([H])nc([H])c([H])c2[H])c1[H]


 43 47  0  0  0  0  0  0  0  0999 V2000
   33.4959  -13.7227   37.5742 C   0  0  0  0  0  0  0  0  0  0  0  0
   34.5779  -13.4562   38.1341 O   0  0  0  0  0  0  0  0  0  0  0  0
   33.3473  -14.8320   36.7438 N   0  0  0  0  0  0  0  0  0  0  0  0
   32.3687  -14.9801   36.3004 H   0  0  0  0  0  0  0  0  0  0  0  0
   34.2832  -15.8168   36.3832 C   0  0  0  0  0  0  0  0  0  0  0  0
   35.5909  -15.4078   36.0899 C   0  0  0  0  0  0  0  0  0  0  0  0
   36.5351  -16.3311   35.7175 C   0  0  0  0  0  0  0  0  0  0  0  0
   36.2141  -17.6681   35.6267 C   0  0  0  0  0  0  0  0  0  0  0  0
   37.2344  -18.6584   35.2272 C   0  0  0  0  0  0  0  0  0  0  0  0
   34.9303  -18.1317   35.9061 C   0  0  0  0  0  0  0  0  0  0  0  0
   34.0077  -17.1872   36.2753 C   0  0  0  0  0  0  0  0  0  0  0  0
   34.6679  -19.4953   35.7907 N   0  0  0  0  0  0  0  0  0  0  0  0
   34.2425  -19.8292   34.8469 H   0  0  0  0  0  0  0  0  0  0  0  0
   34.8589  -20.5451   36.7038 C   0  0  0  0  0  0  0  0  0  0  0  0
   34.9238  -21.8496   36.4109 N   0  0  0  0  0  0  0  0  0  0  0  0
   35.1087  -22.8020   37.3325 C   0  0  0  0  0  0  0  0  0  0  0  0
   35.2459  -22.4565   38.6845 C   0  0  0  0  0  0  0  0  0  0  0  0
   35.1815  -21.1213   39.0002 C   0  0  0  0  0  0  0  0  0  0  0  0
   34.9937  -20.2406   38.0096 N   0  0  0  0  0  0  0  0  0  0  0  0
   35.3158  -20.6470   40.3979 C   0  0  0  0  0  0  0  0  0  0  0  0
   34.5293  -19.6415   40.8763 C   0  0  0  0  0  0  0  0  0  0  0  0
   34.6899  -19.2264   42.2034 C   0  0  0  0  0  0  0  0  0  0  0  0
   35.6230  -19.8154   43.0226 C   0  0  0  0  0  0  0  0  0  0  0  0
   36.3764  -20.8019   42.5105 N   0  0  0  0  0  0  0  0  0  0  0  0
   36.2455  -21.2221   41.2410 C   0  0  0  0  0  0  0  0  0  0  0  0
   30.3092  -10.9553   38.3435 C   0  0  0  0  0  0  0  0  0  0  0  0
   30.1969  -12.2812   38.6798 C   0  0  0  0  0  0  0  0  0  0  0  0
   31.2256  -13.1877   38.4371 C   0  0  0  0  0  0  0  0  0  0  0  0
   32.3975  -12.7926   37.8486 C   0  0  0  0  0  0  0  0  0  0  0  0
   32.4904  -11.4580   37.5175 C   0  0  0  0  0  0  0  0  0  0  0  0
   31.4947  -10.5392   37.7442 C   0  0  0  0  0  0  0  0  0  0  0  0
   31.6348   -9.1093   37.3753 C   0  0  0  0  0  0  0  0  0  0  0  0
   32.9369   -8.6699   37.3882 F   0  0  0  0  0  0  0  0  0  0  0  0
   31.1571   -8.9731   36.0768 F   0  0  0  0  0  0  0  0  0  0  0  0
   30.8220   -8.2997   38.1599 F   0  0  0  0  0  0  0  0  0  0  0  0
   29.1891  -10.0424   38.5575 C   0  0  0  0  0  0  0  0  0  0  0  0
   25.1351   -9.4955   41.4855 C   0  0  0  0  0  0  0  0  0  0  0  0
   26.3701   -8.8148   41.1479 N   0  0  0  0  0  0  0  0  0  0  0  0
   26.5154   -8.9013   39.6907 C   0  0  0  0  0  0  0  0  0  0  0  0
   26.9540  -10.2909   39.3390 C   0  0  0  0  0  0  0  0  0  0  0  0
   28.3730  -10.5379   39.6952 N   0  0  0  0  0  0  0  0  0  0  0  0
   28.6490   -9.6347   40.8387 C   0  0  0  0  0  0  0  0  0  0  0  0
   27.4561   -9.5743   41.7723 C   0  0  0  0  0  0  0  0  0  0  0  0
 37 38  1  0  0  0
 38 39  1  0  0  0
 39 40  1  0  0  0
 40 41  1  0  0  0
 41 36  1  0  0  0
 36 26  1  0  0  0
 26 27  2  0  0  0
 27 28  1  0  0  0
 28 29  2  0  0  0
 29 30  1  0  0  0
 30 31  2  0  0  0
 31 32  1  0  0  0
 32 33  1  0  0  0
 32 34  1  0  0  0
 32 35  1  0  0  0
 29  1  1  0  0  0
  1  2  2  0  0  0
  1  3  1  0  0  0
  3  5  1  0  0  0
  5  6  2  0  0  0
  6  7  1  0  0  0
  7  8  2  0  0  0
  8  9  1  0  0  0
  8 10  1  0  0  0
 10 12  1  0  0  0
 12 14  1  0  0  0
 14 15  2  0  0  0
 15 16  1  0  0  0
 16 17  2  0  0  0
 17 18  1  0  0  0
 18 19  2  0  0  0
 18 20  1  0  0  0
 20 21  2  0  0  0
 21 22  1  0  0  0
 22 23  2  0  0  0
 23 24  1  0  0  0
 24 25  2  0  0  0
 10 11  2  0  0  0
 41 42  1  0  0  0
 42 43  1  0  0  0
 43 38  1  0  0  0
 31 26  1  0  0  0
 11  5  1  0  0  0
 19 14  1  0  0  0
 25 20  1  0  0  0
  3  4  1  0  0  0
 12 13  1  0  0  0
M  END
> <minimizedAffinity>
-7.22316

> <CNNscore>
0.2566313148

> <CNNaffinity>
6.3881549835

> <CNN_VS>
1.6394006014

> <CNNaffinity_variance>
0.1486298442

$$$$
[H]c1nc(N([H])c2c([H])c(N([H])C(=O)c3c([H])c([H])c(C([H])([H])N4C([H])([H])C([H])([H])N(C([H])([H])[H])C([H])([H])C4([H])[H])c(C(F)(F)F)c3[H])c([H])c([H])c2C([H])([H])[H])nc(-c2c([H])nc([H])c([H])c2[H])c1[H]


 43 47  0  0  0  0  0  0  0  0999 V2000
   36.2370  -19.9391   36.3253 C   0  0  0  0  0  0  0  0  0  0  0  0
   36.5969  -19.4959   37.4340 O   0  0  0  0  0  0  0  0  0  0  0  0
   37.1178  -20.0444   35.2504 N   0  0  0  0  0  0  0  0  0  0  0  0
   36.7119  -20.4399   34.3257 H   0  0  0  0  0  0  0  0  0  0  0  0
   38.4824  -19.7168   35.1711 C   0  0  0  0  0  0  0  0  0  0  0  0
   38.9122  -18.9401   34.0869 C   0  0  0  0  0  0  0  0  0  0  0  0
   40.2374  -18.6087   33.9584 C   0  0  0  0  0  0  0  0  0  0  0  0
   41.1618  -19.0321   34.8886 C   0  0  0  0  0  0  0  0  0  0  0  0
   42.5870  -18.6712   34.7468 C   0  0  0  0  0  0  0  0  0  0  0  0
   40.7918  -19.8064   35.9860 C   0  0  0  0  0  0  0  0  0  0  0  0
   39.4617  -20.1225   36.0887 C   0  0  0  0  0  0  0  0  0  0  0  0
   41.7750  -20.2073   36.8884 N   0  0  0  0  0  0  0  0  0  0  0  0
   42.4384  -21.0044   36.5604 H   0  0  0  0  0  0  0  0  0  0  0  0
   42.0687  -19.7528   38.1844 C   0  0  0  0  0  0  0  0  0  0  0  0
   43.0810  -18.9496   38.5332 N   0  0  0  0  0  0  0  0  0  0  0  0
   43.3050  -18.5526   39.7913 C   0  0  0  0  0  0  0  0  0  0  0  0
   42.4585  -18.9779   40.8251 C   0  0  0  0  0  0  0  0  0  0  0  0
   41.4151  -19.8026   40.4822 C   0  0  0  0  0  0  0  0  0  0  0  0
   41.2708  -20.1467   39.1965 N   0  0  0  0  0  0  0  0  0  0  0  0
   40.4602  -20.3088   41.4963 C   0  0  0  0  0  0  0  0  0  0  0  0
   39.4868  -21.2019   41.1597 C   0  0  0  0  0  0  0  0  0  0  0  0
   38.6075  -21.6539   42.1505 C   0  0  0  0  0  0  0  0  0  0  0  0
   38.7131  -21.2118   43.4474 C   0  0  0  0  0  0  0  0  0  0  0  0
   39.6860  -20.3324   43.7352 N   0  0  0  0  0  0  0  0  0  0  0  0
   40.5450  -19.8803   42.8060 C   0  0  0  0  0  0  0  0  0  0  0  0
   32.1095  -21.0655   36.0078 C   0  0  0  0  0  0  0  0  0  0  0  0
   33.0014  -21.8251   36.7228 C   0  0  0  0  0  0  0  0  0  0  0  0
   34.3426  -21.4678   36.8347 C   0  0  0  0  0  0  0  0  0  0  0  0
   34.8305  -20.3390   36.2318 C   0  0  0  0  0  0  0  0  0  0  0  0
   33.9198  -19.5906   35.5178 C   0  0  0  0  0  0  0  0  0  0  0  0
   32.5912  -19.9153   35.3891 C   0  0  0  0  0  0  0  0  0  0  0  0
   31.6414  -19.0810   34.6133 C   0  0  0  0  0  0  0  0  0  0  0  0
   30.5778  -18.6323   35.3590 F   0  0  0  0  0  0  0  0  0  0  0  0
   32.3443  -17.9667   34.1690 F   0  0  0  0  0  0  0  0  0  0  0  0
   31.2114  -19.7346   33.4646 F   0  0  0  0  0  0  0  0  0  0  0  0
   30.7225  -21.4995   35.8608 C   0  0  0  0  0  0  0  0  0  0  0  0
   27.2598  -23.0315   39.1727 C   0  0  0  0  0  0  0  0  0  0  0  0
   27.3692  -22.5737   37.8012 N   0  0  0  0  0  0  0  0  0  0  0  0
   28.5306  -23.2556   37.2197 C   0  0  0  0  0  0  0  0  0  0  0  0
   29.7749  -22.6050   37.7445 C   0  0  0  0  0  0  0  0  0  0  0  0
   30.0062  -21.2692   37.1413 N   0  0  0  0  0  0  0  0  0  0  0  0
   28.6574  -20.7647   36.7867 C   0  0  0  0  0  0  0  0  0  0  0  0
   27.6493  -21.1368   37.8560 C   0  0  0  0  0  0  0  0  0  0  0  0
 37 38  1  0  0  0
 38 39  1  0  0  0
 39 40  1  0  0  0
 40 41  1  0  0  0
 41 36  1  0  0  0
 36 26  1  0  0  0
 26 27  2  0  0  0
 27 28  1  0  0  0
 28 29  2  0  0  0
 29 30  1  0  0  0
 30 31  2  0  0  0
 31 32  1  0  0  0
 32 33  1  0  0  0
 32 34  1  0  0  0
 32 35  1  0  0  0
 29  1  1  0  0  0
  1  2  2  0  0  0
  1  3  1  0  0  0
  3  5  1  0  0  0
  5  6  2  0  0  0
  6  7  1  0  0  0
  7  8  2  0  0  0
  8  9  1  0  0  0
  8 10  1  0  0  0
 10 12  1  0  0  0
 12 14  1  0  0  0
 14 15  2  0  0  0
 15 16  1  0  0  0
 16 17  2  0  0  0
 17 18  1  0  0  0
 18 19  2  0  0  0
 18 20  1  0  0  0
 20 21  2  0  0  0
 21 22  1  0  0  0
 22 23  2  0  0  0
 23 24  1  0  0  0
 24 25  2  0  0  0
 10 11  2  0  0  0
 41 42  1  0  0  0
 42 43  1  0  0  0
 43 38  1  0  0  0
 31 26  1  0  0  0
 11  5  1  0  0  0
 19 14  1  0  0  0
 25 20  1  0  0  0
  3  4  1  0  0  0
 12 13  1  0  0  0
M  END
> <minimizedAffinity>
-6.76557

> <CNNscore>
0.2093875706

> <CNNaffinity>
5.5787873268

> <CNN_VS>
1.1681287289

> <CNNaffinity_variance>
0.0727181509

$$$$
[H]c1nc(N([H])c2c([H])c(N([H])C(=O)c3c([H])c([H])c(C([H])([H])N4C([H])([H])C([H])([H])N(C([H])([H])[H])C([H])([H])C4([H])[H])c(C(F)(F)F)c3[H])c([H])c([H])c2C([H])([H])[H])nc(-c2c([H])nc([H])c([H])c2[H])c1[H]


 43 47  0  0  0  0  0  0  0  0999 V2000
   35.5804  -19.8973   37.6379 C   0  0  0  0  0  0  0  0  0  0  0  0
   35.6190  -18.9389   38.4348 O   0  0  0  0  0  0  0  0  0  0  0  0
   36.7383  -20.5127   37.1657 N   0  0  0  0  0  0  0  0  0  0  0  0
   36.6036  -21.3373   36.4742 H   0  0  0  0  0  0  0  0  0  0  0  0
   38.0857  -20.2330   37.4521 C   0  0  0  0  0  0  0  0  0  0  0  0
   38.7133  -20.9756   38.4610 C   0  0  0  0  0  0  0  0  0  0  0  0
   40.0228  -20.7273   38.7869 C   0  0  0  0  0  0  0  0  0  0  0  0
   40.7377  -19.7490   38.1306 C   0  0  0  0  0  0  0  0  0  0  0  0
   42.1476  -19.4867   38.4838 C   0  0  0  0  0  0  0  0  0  0  0  0
   40.1652  -18.9798   37.1199 C   0  0  0  0  0  0  0  0  0  0  0  0
   38.8559  -19.2495   36.8156 C   0  0  0  0  0  0  0  0  0  0  0  0
   40.9396  -18.0023   36.4982 N   0  0  0  0  0  0  0  0  0  0  0  0
   40.5300  -16.9947   36.4851 H   0  0  0  0  0  0  0  0  0  0  0  0
   42.1904  -18.0901   35.8657 C   0  0  0  0  0  0  0  0  0  0  0  0
   42.7143  -19.1797   35.2913 N   0  0  0  0  0  0  0  0  0  0  0  0
   43.9162  -19.1954   34.7034 C   0  0  0  0  0  0  0  0  0  0  0  0
   44.6971  -18.0314   34.6661 C   0  0  0  0  0  0  0  0  0  0  0  0
   44.1723  -16.9051   35.2515 C   0  0  0  0  0  0  0  0  0  0  0  0
   42.9610  -16.9857   35.8158 N   0  0  0  0  0  0  0  0  0  0  0  0
   44.9131  -15.6216   35.2671 C   0  0  0  0  0  0  0  0  0  0  0  0
   45.3530  -15.0511   34.1097 C   0  0  0  0  0  0  0  0  0  0  0  0
   46.0476  -13.8375   34.1718 C   0  0  0  0  0  0  0  0  0  0  0  0
   46.2892  -13.2196   35.3753 C   0  0  0  0  0  0  0  0  0  0  0  0
   45.8383  -13.8162   36.4905 N   0  0  0  0  0  0  0  0  0  0  0  0
   45.1687  -14.9808   36.4629 C   0  0  0  0  0  0  0  0  0  0  0  0
   31.6560  -21.1190   36.4082 C   0  0  0  0  0  0  0  0  0  0  0  0
   32.3523  -21.8176   37.3625 C   0  0  0  0  0  0  0  0  0  0  0  0
   33.6255  -21.4288   37.7711 C   0  0  0  0  0  0  0  0  0  0  0  0
   34.2396  -20.3287   37.2341 C   0  0  0  0  0  0  0  0  0  0  0  0
   33.5249  -19.6416   36.2768 C   0  0  0  0  0  0  0  0  0  0  0  0
   32.2679  -19.9986   35.8530 C   0  0  0  0  0  0  0  0  0  0  0  0
   31.5298  -19.2301   34.8212 C   0  0  0  0  0  0  0  0  0  0  0  0
   30.2762  -18.8399   35.2274 F   0  0  0  0  0  0  0  0  0  0  0  0
   32.2662  -18.0795   34.5633 F   0  0  0  0  0  0  0  0  0  0  0  0
   31.4770  -19.9187   33.6151 F   0  0  0  0  0  0  0  0  0  0  0  0
   30.3472  -21.5873   35.9593 C   0  0  0  0  0  0  0  0  0  0  0  0
   26.5803  -24.4696   37.6353 C   0  0  0  0  0  0  0  0  0  0  0  0
   26.8050  -23.2296   36.9180 N   0  0  0  0  0  0  0  0  0  0  0  0
   27.8747  -23.4903   35.9486 C   0  0  0  0  0  0  0  0  0  0  0  0
   29.1808  -23.5326   36.6829 C   0  0  0  0  0  0  0  0  0  0  0  0
   29.6263  -22.1840   37.1125 N   0  0  0  0  0  0  0  0  0  0  0  0
   28.3794  -21.3997   37.2837 C   0  0  0  0  0  0  0  0  0  0  0  0
   27.2896  -22.2554   37.8990 C   0  0  0  0  0  0  0  0  0  0  0  0
 37 38  1  0  0  0
 38 39  1  0  0  0
 39 40  1  0  0  0
 40 41  1  0  0  0
 41 36  1  0  0  0
 36 26  1  0  0  0
 26 27  2  0  0  0
 27 28  1  0  0  0
 28 29  2  0  0  0
 29 30  1  0  0  0
 30 31  2  0  0  0
 31 32  1  0  0  0
 32 33  1  0  0  0
 32 34  1  0  0  0
 32 35  1  0  0  0
 29  1  1  0  0  0
  1  2  2  0  0  0
  1  3  1  0  0  0
  3  5  1  0  0  0
  5  6  2  0  0  0
  6  7  1  0  0  0
  7  8  2  0  0  0
  8  9  1  0  0  0
  8 10  1  0  0  0
 10 12  1  0  0  0
 12 14  1  0  0  0
 14 15  2  0  0  0
 15 16  1  0  0  0
 16 17  2  0  0  0
 17 18  1  0  0  0
 18 19  2  0  0  0
 18 20  1  0  0  0
 20 21  2  0  0  0
 21 22  1  0  0  0
 22 23  2  0  0  0
 23 24  1  0  0  0
 24 25  2  0  0  0
 10 11  2  0  0  0
 41 42  1  0  0  0
 42 43  1  0  0  0
 43 38  1  0  0  0
 31 26  1  0  0  0
 11  5  1  0  0  0
 19 14  1  0  0  0
 25 20  1  0  0  0
  3  4  1  0  0  0
 12 13  1  0  0  0
M  END
> <minimizedAffinity>
-6.86382

> <CNNscore>
0.1771456003

> <CNNaffinity>
5.3919000626

> <CNN_VS>
0.9551513791

> <CNNaffinity_variance>
0.0416362062

$$$$
[H]c1nc(N([H])c2c([H])c(N([H])C(=O)c3c([H])c([H])c(C([H])([H])N4C([H])([H])C([H])([H])N(C([H])([H])[H])C([H])([H])C4([H])[H])c(C(F)(F)F)c3[H])c([H])c([H])c2C([H])([H])[H])nc(-c2c([H])nc([H])c([H])c2[H])c1[H]


 43 47  0  0  0  0  0  0  0  0999 V2000
   36.3657  -16.7966   36.5133 C   0  0  0  0  0  0  0  0  0  0  0  0
   36.5726  -16.5124   35.3168 O   0  0  0  0  0  0  0  0  0  0  0  0
   35.7947  -15.8863   37.4008 N   0  0  0  0  0  0  0  0  0  0  0  0
   35.6556  -16.2243   38.4219 H   0  0  0  0  0  0  0  0  0  0  0  0
   35.3548  -14.5698   37.1791 C   0  0  0  0  0  0  0  0  0  0  0  0
   36.3001  -13.5381   37.2493 C   0  0  0  0  0  0  0  0  0  0  0  0
   35.9150  -12.2354   37.0559 C   0  0  0  0  0  0  0  0  0  0  0  0
   34.5992  -11.9229   36.7910 C   0  0  0  0  0  0  0  0  0  0  0  0
   34.1898  -10.5193   36.5819 C   0  0  0  0  0  0  0  0  0  0  0  0
   33.6166  -12.9073   36.7100 C   0  0  0  0  0  0  0  0  0  0  0  0
   34.0301  -14.1994   36.9077 C   0  0  0  0  0  0  0  0  0  0  0  0
   32.3030  -12.5259   36.4444 N   0  0  0  0  0  0  0  0  0  0  0  0
   31.9846  -12.5743   35.4055 H   0  0  0  0  0  0  0  0  0  0  0  0
   31.2885  -12.0753   37.3047 C   0  0  0  0  0  0  0  0  0  0  0  0
   30.5806  -10.9468   37.1742 N   0  0  0  0  0  0  0  0  0  0  0  0
   29.6240  -10.5752   38.0328 C   0  0  0  0  0  0  0  0  0  0  0  0
   29.3177  -11.3819   39.1380 C   0  0  0  0  0  0  0  0  0  0  0  0
   30.0360  -12.5434   39.2850 C   0  0  0  0  0  0  0  0  0  0  0  0
   30.9743  -12.8318   38.3747 N   0  0  0  0  0  0  0  0  0  0  0  0
   29.7920  -13.4689   40.4165 C   0  0  0  0  0  0  0  0  0  0  0  0
   30.0132  -13.0775   41.7035 C   0  0  0  0  0  0  0  0  0  0  0  0
   29.7680  -13.9845   42.7410 C   0  0  0  0  0  0  0  0  0  0  0  0
   29.3109  -15.2539   42.4798 C   0  0  0  0  0  0  0  0  0  0  0  0
   29.1066  -15.5977   41.1980 N   0  0  0  0  0  0  0  0  0  0  0  0
   29.3328  -14.7493   40.1808 C   0  0  0  0  0  0  0  0  0  0  0  0
   37.5879  -20.7399   37.6802 C   0  0  0  0  0  0  0  0  0  0  0  0
   36.3677  -20.2338   38.0525 C   0  0  0  0  0  0  0  0  0  0  0  0
   35.9596  -18.9564   37.6775 C   0  0  0  0  0  0  0  0  0  0  0  0
   36.7632  -18.1473   36.9190 C   0  0  0  0  0  0  0  0  0  0  0  0
   37.9844  -18.6730   36.5563 C   0  0  0  0  0  0  0  0  0  0  0  0
   38.4156  -19.9286   36.9093 C   0  0  0  0  0  0  0  0  0  0  0  0
   39.7376  -20.4594   36.4960 C   0  0  0  0  0  0  0  0  0  0  0  0
   39.6499  -21.5750   35.6982 F   0  0  0  0  0  0  0  0  0  0  0  0
   40.3664  -19.4625   35.7586 F   0  0  0  0  0  0  0  0  0  0  0  0
   40.5594  -20.6879   37.5933 F   0  0  0  0  0  0  0  0  0  0  0  0
   38.0102  -22.0607   38.1398 C   0  0  0  0  0  0  0  0  0  0  0  0
   39.7927  -22.7031   42.7998 C   0  0  0  0  0  0  0  0  0  0  0  0
   39.6879  -23.4068   41.5363 N   0  0  0  0  0  0  0  0  0  0  0  0
   40.0313  -22.4421   40.4859 C   0  0  0  0  0  0  0  0  0  0  0  0
   38.8682  -21.5164   40.2928 C   0  0  0  0  0  0  0  0  0  0  0  0
   37.7368  -22.1756   39.5950 N   0  0  0  0  0  0  0  0  0  0  0  0
   37.8562  -23.6142   39.9354 C   0  0  0  0  0  0  0  0  0  0  0  0
   38.2821  -23.7882   41.3799 C   0  0  0  0  0  0  0  0  0  0  0  0
 37 38  1  0  0  0
 38 39  1  0  0  0
 39 40  1  0  0  0
 40 41  1  0  0  0
 41 36  1  0  0  0
 36 26  1  0  0  0
 26 27  2  0  0  0
 27 28  1  0  0  0
 28 29  2  0  0  0
 29 30  1  0  0  0
 30 31  2  0  0  0
 31 32  1  0  0  0
 32 33  1  0  0  0
 32 34  1  0  0  0
 32 35  1  0  0  0
 29  1  1  0  0  0
  1  2  2  0  0  0
  1  3  1  0  0  0
  3  5  1  0  0  0
  5  6  2  0  0  0
  6  7  1  0  0  0
  7  8  2  0  0  0
  8  9  1  0  0  0
  8 10  1  0  0  0
 10 12  1  0  0  0
 12 14  1  0  0  0
 14 15  2  0  0  0
 15 16  1  0  0  0
 16 17  2  0  0  0
 17 18  1  0  0  0
 18 19  2  0  0  0
 18 20  1  0  0  0
 20 21  2  0  0  0
 21 22  1  0  0  0
 22 23  2  0  0  0
 23 24  1  0  0  0
 24 25  2  0  0  0
 10 11  2  0  0  0
 41 42  1  0  0  0
 42 43  1  0  0  0
 43 38  1  0  0  0
 31 26  1  0  0  0
 11  5  1  0  0  0
 19 14  1  0  0  0
 25 20  1  0  0  0
  3  4  1  0  0  0
 12 13  1  0  0  0
M  END
> <minimizedAffinity>
-7.69414

> <CNNscore>
0.1650999635

> <CNNaffinity>
6.1024651527

> <CNN_VS>
1.0075167418

> <CNNaffinity_variance>
0.0735066161

$$$$
[H]c1nc(N([H])c2c([H])c(N([H])C(=O)c3c([H])c([H])c(C([H])([H])N4C([H])([H])C([H])([H])N(C([H])([H])[H])C([H])([H])C4([H])[H])c(C(F)(F)F)c3[H])c([H])c([H])c2C([H])([H])[H])nc(-c2c([H])nc([H])c([H])c2[H])c1[H]


 43 47  0  0  0  0  0  0  0  0999 V2000
   36.5072  -18.9243   36.0243 C   0  0  0  0  0  0  0  0  0  0  0  0
   36.0781  -18.1901   36.9365 O   0  0  0  0  0  0  0  0  0  0  0  0
   35.6518  -19.6123   35.1656 N   0  0  0  0  0  0  0  0  0  0  0  0
   36.1184  -20.2277   34.4043 H   0  0  0  0  0  0  0  0  0  0  0  0
   34.2469  -19.6339   35.1234 C   0  0  0  0  0  0  0  0  0  0  0  0
   33.6019  -18.7971   34.2031 C   0  0  0  0  0  0  0  0  0  0  0  0
   32.2317  -18.7719   34.1364 C   0  0  0  0  0  0  0  0  0  0  0  0
   31.4722  -19.5650   34.9689 C   0  0  0  0  0  0  0  0  0  0  0  0
   29.9975  -19.5357   34.8920 C   0  0  0  0  0  0  0  0  0  0  0  0
   32.0592  -20.4157   35.9031 C   0  0  0  0  0  0  0  0  0  0  0  0
   33.4295  -20.4200   35.9476 C   0  0  0  0  0  0  0  0  0  0  0  0
   31.2359  -21.1884   36.7196 N   0  0  0  0  0  0  0  0  0  0  0  0
   30.2233  -20.8221   36.8729 H   0  0  0  0  0  0  0  0  0  0  0  0
   31.4895  -22.3900   37.4010 C   0  0  0  0  0  0  0  0  0  0  0  0
   31.1990  -23.6233   36.9697 N   0  0  0  0  0  0  0  0  0  0  0  0
   31.4689  -24.7305   37.6711 C   0  0  0  0  0  0  0  0  0  0  0  0
   32.0870  -24.6356   38.9261 C   0  0  0  0  0  0  0  0  0  0  0  0
   32.3912  -23.3762   39.3819 C   0  0  0  0  0  0  0  0  0  0  0  0
   32.0828  -22.3272   38.6093 N   0  0  0  0  0  0  0  0  0  0  0  0
   33.0464  -23.1629   40.6940 C   0  0  0  0  0  0  0  0  0  0  0  0
   33.4656  -21.9231   41.0758 C   0  0  0  0  0  0  0  0  0  0  0  0
   34.0787  -21.7680   42.3245 C   0  0  0  0  0  0  0  0  0  0  0  0
   34.2613  -22.8415   43.1629 C   0  0  0  0  0  0  0  0  0  0  0  0
   33.8335  -24.0444   42.7472 N   0  0  0  0  0  0  0  0  0  0  0  0
   33.2417  -24.2247   41.5545 C   0  0  0  0  0  0  0  0  0  0  0  0
   40.7734  -19.1832   35.6535 C   0  0  0  0  0  0  0  0  0  0  0  0
   40.1769  -18.9655   36.8702 C   0  0  0  0  0  0  0  0  0  0  0  0
   38.7932  -18.8821   37.0027 C   0  0  0  0  0  0  0  0  0  0  0  0
   37.9659  -19.0131   35.9191 C   0  0  0  0  0  0  0  0  0  0  0  0
   38.5840  -19.2299   34.7065 C   0  0  0  0  0  0  0  0  0  0  0  0
   39.9451  -19.3179   34.5429 C   0  0  0  0  0  0  0  0  0  0  0  0
   40.5720  -19.5552   33.2197 C   0  0  0  0  0  0  0  0  0  0  0  0
   41.3131  -18.4887   32.7704 F   0  0  0  0  0  0  0  0  0  0  0  0
   41.4340  -20.6365   33.3635 F   0  0  0  0  0  0  0  0  0  0  0  0
   39.6319  -19.9493   32.2749 F   0  0  0  0  0  0  0  0  0  0  0  0
   42.2295  -19.2062   35.5393 C   0  0  0  0  0  0  0  0  0  0  0  0
   46.1379  -16.0527   35.2455 C   0  0  0  0  0  0  0  0  0  0  0  0
   45.5115  -16.9729   36.1749 N   0  0  0  0  0  0  0  0  0  0  0  0
   45.1729  -18.1789   35.4115 C   0  0  0  0  0  0  0  0  0  0  0  0
   43.9625  -17.8878   34.5765 C   0  0  0  0  0  0  0  0  0  0  0  0
   42.7243  -17.8138   35.3907 N   0  0  0  0  0  0  0  0  0  0  0  0
   43.1701  -17.3775   36.7362 C   0  0  0  0  0  0  0  0  0  0  0  0
   44.2694  -16.3395   36.6247 C   0  0  0  0  0  0  0  0  0  0  0  0
 37 38  1  0  0  0
 38 39  1  0  0  0
 39 40  1  0  0  0
 40 41  1  0  0  0
 41 36  1  0  0  0
 36 26  1  0  0  0
 26 27  2  0  0  0
 27 28  1  0  0  0
 28 29  2  0  0  0
 29 30  1  0  0  0
 30 31  2  0  0  0
 31 32  1  0  0  0
 32 33  1  0  0  0
 32 34  1  0  0  0
 32 35  1  0  0  0
 29  1  1  0  0  0
  1  2  2  0  0  0
  1  3  1  0  0  0
  3  5  1  0  0  0
  5  6  2  0  0  0
  6  7  1  0  0  0
  7  8  2  0  0  0
  8  9  1  0  0  0
  8 10  1  0  0  0
 10 12  1  0  0  0
 12 14  1  0  0  0
 14 15  2  0  0  0
 15 16  1  0  0  0
 16 17  2  0  0  0
 17 18  1  0  0  0
 18 19  2  0  0  0
 18 20  1  0  0  0
 20 21  2  0  0  0
 21 22  1  0  0  0
 22 23  2  0  0  0
 23 24  1  0  0  0
 24 25  2  0  0  0
 10 11  2  0  0  0
 41 42  1  0  0  0
 42 43  1  0  0  0
 43 38  1  0  0  0
 31 26  1  0  0  0
 11  5  1  0  0  0
 19 14  1  0  0  0
 25 20  1  0  0  0
  3  4  1  0  0  0
 12 13  1  0  0  0
M  END
> <minimizedAffinity>
-6.37764

> <CNNscore>
0.1521696448

> <CNNaffinity>
5.5618143082

> <CNN_VS>
0.8463392854

> <CNNaffinity_variance>
0.2320115864

$$$$
[H]c1c([H])c(S(=O)(=O)C([H])([H])[H])c([H])c([H])c1C#Cc1c([H])c(O[C@@]([H])(C([H])([H])[H])C([H])([H])OC([H])([H])[H])c([H])c(C(=O)N([H])c2nn(C([H])([H])[H])c([H])c2[H])c1[H]


 34 36  0  0  0  0  0  0  0  0999 V2000
   34.5034  -23.1418   39.9063 C   0  0  0  0  0  0  0  0  0  0  0  0
   35.6550  -23.3169   39.1225 C   0  0  0  0  0  0  0  0  0  0  0  0
   35.5093  -23.5844   37.7969 C   0  0  0  0  0  0  0  0  0  0  0  0
   34.2581  -23.6794   37.2466 C   0  0  0  0  0  0  0  0  0  0  0  0
   33.0900  -23.5156   37.9743 C   0  0  0  0  0  0  0  0  0  0  0  0
   33.2629  -23.2456   39.3130 C   0  0  0  0  0  0  0  0  0  0  0  0
   31.7964  -23.6259   37.3194 C   0  0  0  0  0  0  0  0  0  0  0  0
   31.3705  -22.6181   36.7098 O   0  0  0  0  0  0  0  0  0  0  0  0
   31.0431  -24.8058   37.3582 N   0  0  0  0  0  0  0  0  0  0  0  0
   31.4471  -25.6439   37.8911 H   0  0  0  0  0  0  0  0  0  0  0  0
   29.7756  -24.9919   36.7463 C   0  0  0  0  0  0  0  0  0  0  0  0
   28.5561  -24.5683   37.1971 C   0  0  0  0  0  0  0  0  0  0  0  0
   27.6275  -25.0019   36.2361 C   0  0  0  0  0  0  0  0  0  0  0  0
   28.3135  -25.6473   35.2804 N   0  0  0  0  0  0  0  0  0  0  0  0
   27.7365  -26.2591   34.0926 C   0  0  0  0  0  0  0  0  0  0  0  0
   29.5816  -25.6552   35.5578 N   0  0  0  0  0  0  0  0  0  0  0  0
   36.7043  -23.7682   36.9727 C   0  0  0  0  0  0  0  0  0  0  0  0
   37.6983  -23.9048   36.3044 C   0  0  0  0  0  0  0  0  0  0  0  0
   38.8915  -24.0566   35.5196 C   0  0  0  0  0  0  0  0  0  0  0  0
   38.8018  -24.2177   34.1703 C   0  0  0  0  0  0  0  0  0  0  0  0
   39.9471  -24.3636   33.4153 C   0  0  0  0  0  0  0  0  0  0  0  0
   41.2152  -24.3561   33.9602 C   0  0  0  0  0  0  0  0  0  0  0  0
   41.3013  -24.1922   35.3306 C   0  0  0  0  0  0  0  0  0  0  0  0
   40.1529  -24.0460   36.0872 C   0  0  0  0  0  0  0  0  0  0  0  0
   42.6314  -24.5460   32.9490 S   0  0  0  0  0  0  0  0  0  0  0  0
   42.7444  -26.2015   32.3240 C   0  0  0  0  0  0  0  0  0  0  0  0
   43.8480  -24.1626   33.7307 O   0  0  0  0  0  0  0  0  0  0  0  0
   42.5015  -23.5377   31.8264 O   0  0  0  0  0  0  0  0  0  0  0  0
   34.6669  -22.8747   41.2306 O   0  0  0  0  0  0  0  0  0  0  0  0
   35.8737  -22.7603   41.9016 C   0  0  0  0  0  0  0  0  0  0  0  0
   35.6859  -21.6911   42.9926 C   0  0  0  0  0  0  0  0  0  0  0  0
   36.1854  -24.1010   42.5550 C   0  0  0  0  0  0  0  0  0  0  0  0
   37.8795  -24.3882   44.0014 C   0  0  0  0  0  0  0  0  0  0  0  0
   37.5555  -24.3041   42.6604 O   0  0  0  0  0  0  0  0  0  0  0  0
 33 34  1  0  0  0
 34 32  1  0  0  0
 32 30  1  0  0  0
 30 31  1  0  0  0
 30 29  1  0  0  0
 29  1  1  0  0  0
  1  2  2  0  0  0
  2  3  1  0  0  0
  3  4  2  0  0  0
  4  5  1  0  0  0
  5  6  2  0  0  0
  5  7  1  0  0  0
  7  8  2  0  0  0
  7  9  1  0  0  0
  9 11  1  0  0  0
 11 12  1  0  0  0
 12 13  2  0  0  0
 13 14  1  0  0  0
 14 15  1  0  0  0
 14 16  1  0  0  0
  3 17  1  0  0  0
 17 18  3  0  0  0
 18 19  1  0  0  0
 19 20  2  0  0  0
 20 21  1  0  0  0
 21 22  2  0  0  0
 22 23  1  0  0  0
 23 24  2  0  0  0
 22 25  1  0  0  0
 25 26  1  0  0  0
 25 27  2  0  0  0
 25 28  2  0  0  0
  6  1  1  0  0  0
 16 11  2  0  0  0
 24 19  1  0  0  0
  9 10  1  0  0  0
M  END
> <minimizedAffinity>
-1.95535

> <CNNscore>
0.5641566515

> <CNNaffinity>
5.2617211342

> <CNN_VS>
2.9684350491

> <CNNaffinity_variance>
1.1574122906

$$$$
[H]c1c([H])c(S(=O)(=O)C([H])([H])[H])c([H])c([H])c1C#Cc1c([H])c(O[C@@]([H])(C([H])([H])[H])C([H])([H])OC([H])([H])[H])c([H])c(C(=O)N([H])c2nn(C([H])([H])[H])c([H])c2[H])c1[H]


 34 36  0  0  0  0  0  0  0  0999 V2000
   35.1542  -23.1020   39.6136 C   0  0  0  0  0  0  0  0  0  0  0  0
   36.2036  -23.2738   38.6968 C   0  0  0  0  0  0  0  0  0  0  0  0
   35.9331  -23.8462   37.4929 C   0  0  0  0  0  0  0  0  0  0  0  0
   34.6575  -24.2444   37.1904 C   0  0  0  0  0  0  0  0  0  0  0  0
   33.5865  -24.0984   38.0580 C   0  0  0  0  0  0  0  0  0  0  0  0
   33.8848  -23.5166   39.2694 C   0  0  0  0  0  0  0  0  0  0  0  0
   32.2584  -24.5407   37.6645 C   0  0  0  0  0  0  0  0  0  0  0  0
   31.6242  -25.2544   38.4751 O   0  0  0  0  0  0  0  0  0  0  0  0
   31.6948  -24.1910   36.4312 N   0  0  0  0  0  0  0  0  0  0  0  0
   32.2735  -23.5779   35.7688 H   0  0  0  0  0  0  0  0  0  0  0  0
   30.4084  -24.5821   35.9752 C   0  0  0  0  0  0  0  0  0  0  0  0
   30.0857  -25.6600   35.1980 C   0  0  0  0  0  0  0  0  0  0  0  0
   28.6920  -25.6003   35.0308 C   0  0  0  0  0  0  0  0  0  0  0  0
   28.2556  -24.5202   35.6966 N   0  0  0  0  0  0  0  0  0  0  0  0
   26.8697  -24.0845   35.7850 C   0  0  0  0  0  0  0  0  0  0  0  0
   29.2479  -23.9030   36.2618 N   0  0  0  0  0  0  0  0  0  0  0  0
   37.0210  -24.0289   36.5315 C   0  0  0  0  0  0  0  0  0  0  0  0
   37.9067  -24.1682   35.7258 C   0  0  0  0  0  0  0  0  0  0  0  0
   38.9539  -24.3219   34.7549 C   0  0  0  0  0  0  0  0  0  0  0  0
   40.2116  -23.8816   35.0362 C   0  0  0  0  0  0  0  0  0  0  0  0
   41.2183  -24.0286   34.1046 C   0  0  0  0  0  0  0  0  0  0  0  0
   41.0228  -24.6117   32.8690 C   0  0  0  0  0  0  0  0  0  0  0  0
   39.7443  -25.0572   32.5879 C   0  0  0  0  0  0  0  0  0  0  0  0
   38.7351  -24.9097   33.5221 C   0  0  0  0  0  0  0  0  0  0  0  0
   42.3414  -24.7697   31.7286 S   0  0  0  0  0  0  0  0  0  0  0  0
   41.7298  -24.9043   30.0698 C   0  0  0  0  0  0  0  0  0  0  0  0
   43.1810  -25.9481   32.1090 O   0  0  0  0  0  0  0  0  0  0  0  0
   43.2128  -23.5429   31.9000 O   0  0  0  0  0  0  0  0  0  0  0  0
   35.4421  -22.5277   40.8132 O   0  0  0  0  0  0  0  0  0  0  0  0
   35.5752  -21.1714   41.0627 C   0  0  0  0  0  0  0  0  0  0  0  0
   35.1004  -20.4298   39.8004 C   0  0  0  0  0  0  0  0  0  0  0  0
   34.6690  -20.8101   42.2331 C   0  0  0  0  0  0  0  0  0  0  0  0
   34.5832  -18.7345   43.0867 C   0  0  0  0  0  0  0  0  0  0  0  0
   35.2932  -19.9202   43.0981 O   0  0  0  0  0  0  0  0  0  0  0  0
 33 34  1  0  0  0
 34 32  1  0  0  0
 32 30  1  0  0  0
 30 31  1  0  0  0
 30 29  1  0  0  0
 29  1  1  0  0  0
  1  2  2  0  0  0
  2  3  1  0  0  0
  3  4  2  0  0  0
  4  5  1  0  0  0
  5  6  2  0  0  0
  5  7  1  0  0  0
  7  8  2  0  0  0
  7  9  1  0  0  0
  9 11  1  0  0  0
 11 12  1  0  0  0
 12 13  2  0  0  0
 13 14  1  0  0  0
 14 15  1  0  0  0
 14 16  1  0  0  0
  3 17  1  0  0  0
 17 18  3  0  0  0
 18 19  1  0  0  0
 19 20  2  0  0  0
 20 21  1  0  0  0
 21 22  2  0  0  0
 22 23  1  0  0  0
 23 24  2  0  0  0
 22 25  1  0  0  0
 25 26  1  0  0  0
 25 27  2  0  0  0
 25 28  2  0  0  0
  6  1  1  0  0  0
 16 11  2  0  0  0
 24 19  1  0  0  0
  9 10  1  0  0  0
M  END
> <minimizedAffinity>
-2.77789

> <CNNscore>
0.5537752509

> <CNNaffinity>
5.3038835526

> <CNN_VS>
2.9371595383

> <CNNaffinity_variance>
0.7318394780

$$$$
[H]c1c([H])c(S(=O)(=O)C([H])([H])[H])c([H])c([H])c1C#Cc1c([H])c(O[C@@]([H])(C([H])([H])[H])C([H])([H])OC([H])([H])[H])c([H])c(C(=O)N([H])c2nn(C([H])([H])[H])c([H])c2[H])c1[H]


 34 36  0  0  0  0  0  0  0  0999 V2000
   35.9807  -16.2171   36.6362 C   0  0  0  0  0  0  0  0  0  0  0  0
   36.4185  -17.3414   37.3542 C   0  0  0  0  0  0  0  0  0  0  0  0
   37.0657  -18.3333   36.6852 C   0  0  0  0  0  0  0  0  0  0  0  0
   37.2812  -18.2277   35.3363 C   0  0  0  0  0  0  0  0  0  0  0  0
   36.8703  -17.1409   34.5806 C   0  0  0  0  0  0  0  0  0  0  0  0
   36.2180  -16.1504   35.2794 C   0  0  0  0  0  0  0  0  0  0  0  0
   37.1396  -17.0970   33.1523 C   0  0  0  0  0  0  0  0  0  0  0  0
   37.8707  -17.9949   32.6751 O   0  0  0  0  0  0  0  0  0  0  0  0
   36.6097  -16.0969   32.3276 N   0  0  0  0  0  0  0  0  0  0  0  0
   35.9884  -15.3487   32.7790 H   0  0  0  0  0  0  0  0  0  0  0  0
   36.8257  -15.9853   30.9289 C   0  0  0  0  0  0  0  0  0  0  0  0
   36.0255  -16.4401   29.9175 C   0  0  0  0  0  0  0  0  0  0  0  0
   36.6809  -16.0811   28.7278 C   0  0  0  0  0  0  0  0  0  0  0  0
   37.8119  -15.4457   29.0708 N   0  0  0  0  0  0  0  0  0  0  0  0
   38.7918  -14.9033   28.1415 C   0  0  0  0  0  0  0  0  0  0  0  0
   37.9204  -15.3763   30.3625 N   0  0  0  0  0  0  0  0  0  0  0  0
   37.5254  -19.5085   37.4259 C   0  0  0  0  0  0  0  0  0  0  0  0
   37.8888  -20.4740   38.0496 C   0  0  0  0  0  0  0  0  0  0  0  0
   38.3064  -21.6236   38.8025 C   0  0  0  0  0  0  0  0  0  0  0  0
   37.9009  -21.7743   40.0938 C   0  0  0  0  0  0  0  0  0  0  0  0
   38.3013  -22.8779   40.8182 C   0  0  0  0  0  0  0  0  0  0  0  0
   39.1114  -23.8674   40.2986 C   0  0  0  0  0  0  0  0  0  0  0  0
   39.5205  -23.7100   38.9872 C   0  0  0  0  0  0  0  0  0  0  0  0
   39.1190  -22.6034   38.2612 C   0  0  0  0  0  0  0  0  0  0  0  0
   39.5858  -25.2450   41.2687 S   0  0  0  0  0  0  0  0  0  0  0  0
   38.1731  -26.2166   41.7204 C   0  0  0  0  0  0  0  0  0  0  0  0
   40.3372  -24.7645   42.4698 O   0  0  0  0  0  0  0  0  0  0  0  0
   40.5654  -26.0455   40.4358 O   0  0  0  0  0  0  0  0  0  0  0  0
   35.3350  -15.2341   37.3207 O   0  0  0  0  0  0  0  0  0  0  0  0
   34.2151  -14.5379   36.8956 C   0  0  0  0  0  0  0  0  0  0  0  0
   33.5743  -13.9051   38.1436 C   0  0  0  0  0  0  0  0  0  0  0  0
   34.6697  -13.4364   35.9461 C   0  0  0  0  0  0  0  0  0  0  0  0
   35.5721  -11.3803   35.8954 C   0  0  0  0  0  0  0  0  0  0  0  0
   35.5920  -12.5948   36.5549 O   0  0  0  0  0  0  0  0  0  0  0  0
 33 34  1  0  0  0
 34 32  1  0  0  0
 32 30  1  0  0  0
 30 31  1  0  0  0
 30 29  1  0  0  0
 29  1  1  0  0  0
  1  2  2  0  0  0
  2  3  1  0  0  0
  3  4  2  0  0  0
  4  5  1  0  0  0
  5  6  2  0  0  0
  5  7  1  0  0  0
  7  8  2  0  0  0
  7  9  1  0  0  0
  9 11  1  0  0  0
 11 12  1  0  0  0
 12 13  2  0  0  0
 13 14  1  0  0  0
 14 15  1  0  0  0
 14 16  1  0  0  0
  3 17  1  0  0  0
 17 18  3  0  0  0
 18 19  1  0  0  0
 19 20  2  0  0  0
 20 21  1  0  0  0
 21 22  2  0  0  0
 22 23  1  0  0  0
 23 24  2  0  0  0
 22 25  1  0  0  0
 25 26  1  0  0  0
 25 27  2  0  0  0
 25 28  2  0  0  0
  6  1  1  0  0  0
 16 11  2  0  0  0
 24 19  1  0  0  0
  9 10  1  0  0  0
M  END
> <minimizedAffinity>
4.83767

> <CNNscore>
0.5493751168

> <CNNaffinity>
5.8277864456

> <CNN_VS>
3.2016408443

> <CNNaffinity_variance>
1.4519524574

$$$$
[H]c1c([H])c(S(=O)(=O)C([H])([H])[H])c([H])c([H])c1C#Cc1c([H])c(O[C@@]([H])(C([H])([H])[H])C([H])([H])OC([H])([H])[H])c([H])c(C(=O)N([H])c2nn(C([H])([H])[H])c([H])c2[H])c1[H]


 34 36  0  0  0  0  0  0  0  0999 V2000
   34.9556  -23.3097   39.1460 C   0  0  0  0  0  0  0  0  0  0  0  0
   36.1396  -23.4676   38.4082 C   0  0  0  0  0  0  0  0  0  0  0  0
   36.0951  -24.1658   37.2418 C   0  0  0  0  0  0  0  0  0  0  0  0
   34.9123  -24.7011   36.8038 C   0  0  0  0  0  0  0  0  0  0  0  0
   33.7163  -24.5751   37.4927 C   0  0  0  0  0  0  0  0  0  0  0  0
   33.7864  -23.8644   38.6696 C   0  0  0  0  0  0  0  0  0  0  0  0
   32.4986  -25.1669   36.9622 C   0  0  0  0  0  0  0  0  0  0  0  0
   32.0949  -26.2280   37.4910 O   0  0  0  0  0  0  0  0  0  0  0  0
   31.7919  -24.5858   35.9020 N   0  0  0  0  0  0  0  0  0  0  0  0
   32.1738  -23.6771   35.4803 H   0  0  0  0  0  0  0  0  0  0  0  0
   30.5992  -25.1009   35.3294 C   0  0  0  0  0  0  0  0  0  0  0  0
   30.4782  -25.9423   34.2582 C   0  0  0  0  0  0  0  0  0  0  0  0
   29.0981  -26.1490   34.0953 C   0  0  0  0  0  0  0  0  0  0  0  0
   28.4729  -25.4423   35.0493 N   0  0  0  0  0  0  0  0  0  0  0  0
   27.0321  -25.3744   35.2437 C   0  0  0  0  0  0  0  0  0  0  0  0
   29.3356  -24.8156   35.7897 N   0  0  0  0  0  0  0  0  0  0  0  0
   37.3246  -24.3350   36.4666 C   0  0  0  0  0  0  0  0  0  0  0  0
   38.3276  -24.4678   35.8111 C   0  0  0  0  0  0  0  0  0  0  0  0
   39.5145  -24.6174   35.0163 C   0  0  0  0  0  0  0  0  0  0  0  0
   40.5614  -25.3489   35.4891 C   0  0  0  0  0  0  0  0  0  0  0  0
   41.7020  -25.4934   34.7267 C   0  0  0  0  0  0  0  0  0  0  0  0
   41.8509  -24.9252   33.4777 C   0  0  0  0  0  0  0  0  0  0  0  0
   40.7853  -24.1833   33.0019 C   0  0  0  0  0  0  0  0  0  0  0  0
   39.6419  -24.0387   33.7665 C   0  0  0  0  0  0  0  0  0  0  0  0
   43.3239  -25.1448   32.5579 S   0  0  0  0  0  0  0  0  0  0  0  0
   44.6349  -25.7352   33.5954 C   0  0  0  0  0  0  0  0  0  0  0  0
   43.6821  -23.8554   31.8890 O   0  0  0  0  0  0  0  0  0  0  0  0
   43.0035  -26.1315   31.4544 O   0  0  0  0  0  0  0  0  0  0  0  0
   35.0176  -22.6085   40.3106 O   0  0  0  0  0  0  0  0  0  0  0  0
   34.8587  -21.2396   40.4535 C   0  0  0  0  0  0  0  0  0  0  0  0
   35.5603  -20.8362   41.7626 C   0  0  0  0  0  0  0  0  0  0  0  0
   35.5457  -20.5541   39.2788 C   0  0  0  0  0  0  0  0  0  0  0  0
   35.2620  -19.0401   37.6443 C   0  0  0  0  0  0  0  0  0  0  0  0
   34.6184  -19.9949   38.4088 O   0  0  0  0  0  0  0  0  0  0  0  0
 33 34  1  0  0  0
 34 32  1  0  0  0
 32 30  1  0  0  0
 30 31  1  0  0  0
 30 29  1  0  0  0
 29  1  1  0  0  0
  1  2  2  0  0  0
  2  3  1  0  0  0
  3  4  2  0  0  0
  4  5  1  0  0  0
  5  6  2  0  0  0
  5  7  1  0  0  0
  7  8  2  0  0  0
  7  9  1  0  0  0
  9 11  1  0  0  0
 11 12  1  0  0  0
 12 13  2  0  0  0
 13 14  1  0  0  0
 14 15  1  0  0  0
 14 16  1  0  0  0
  3 17  1  0  0  0
 17 18  3  0  0  0
 18 19  1  0  0  0
 19 20  2  0  0  0
 20 21  1  0  0  0
 21 22  2  0  0  0
 22 23  1  0  0  0
 23 24  2  0  0  0
 22 25  1  0  0  0
 25 26  1  0  0  0
 25 27  2  0  0  0
 25 28  2  0  0  0
  6  1  1  0  0  0
 16 11  2  0  0  0
 24 19  1  0  0  0
  9 10  1  0  0  0
M  END
> <minimizedAffinity>
-2.45586

> <CNNscore>
0.5483173728

> <CNNaffinity>
5.1793966293

> <CNN_VS>
2.8399531841

> <CNNaffinity_variance>
0.3534309268

$$$$
[H]c1c([H])c(S(=O)(=O)C([H])([H])[H])c([H])c([H])c1C#Cc1c([H])c(O[C@@]([H])(C([H])([H])[H])C([H])([H])OC([H])([H])[H])c([H])c(C(=O)N([H])c2nn(C([H])([H])[H])c([H])c2[H])c1[H]


 34 36  0  0  0  0  0  0  0  0999 V2000
   36.5396  -17.5258   36.3698 C   0  0  0  0  0  0  0  0  0  0  0  0
   37.3808  -18.5296   36.8759 C   0  0  0  0  0  0  0  0  0  0  0  0
   38.2600  -19.1331   36.0317 C   0  0  0  0  0  0  0  0  0  0  0  0
   38.3158  -18.7615   34.7140 C   0  0  0  0  0  0  0  0  0  0  0  0
   37.5090  -17.7781   34.1637 C   0  0  0  0  0  0  0  0  0  0  0  0
   36.6279  -17.1819   35.0373 C   0  0  0  0  0  0  0  0  0  0  0  0
   37.6291  -17.4337   32.7561 C   0  0  0  0  0  0  0  0  0  0  0  0
   38.5415  -17.9890   32.1020 O   0  0  0  0  0  0  0  0  0  0  0  0
   36.7661  -16.5193   32.1395 N   0  0  0  0  0  0  0  0  0  0  0  0
   35.9990  -16.0687   32.7379 H   0  0  0  0  0  0  0  0  0  0  0  0
   36.8185  -16.1317   30.7748 C   0  0  0  0  0  0  0  0  0  0  0  0
   35.9230  -16.4260   29.7841 C   0  0  0  0  0  0  0  0  0  0  0  0
   36.4279  -15.8130   28.6252 C   0  0  0  0  0  0  0  0  0  0  0  0
   37.5705  -15.1968   28.9647 N   0  0  0  0  0  0  0  0  0  0  0  0
   38.4217  -14.4367   28.0613 C   0  0  0  0  0  0  0  0  0  0  0  0
   37.8227  -15.3697   30.2263 N   0  0  0  0  0  0  0  0  0  0  0  0
   39.1405  -20.1801   36.5510 C   0  0  0  0  0  0  0  0  0  0  0  0
   39.8523  -21.0465   36.9936 C   0  0  0  0  0  0  0  0  0  0  0  0
   40.6868  -22.0840   37.5322 C   0  0  0  0  0  0  0  0  0  0  0  0
   40.7392  -22.2840   38.8783 C   0  0  0  0  0  0  0  0  0  0  0  0
   41.5403  -23.2802   39.3969 C   0  0  0  0  0  0  0  0  0  0  0  0
   42.3143  -24.1105   38.6117 C   0  0  0  0  0  0  0  0  0  0  0  0
   42.2578  -23.9036   37.2456 C   0  0  0  0  0  0  0  0  0  0  0  0
   41.4546  -22.9048   36.7260 C   0  0  0  0  0  0  0  0  0  0  0  0
   43.3112  -25.3575   39.3295 S   0  0  0  0  0  0  0  0  0  0  0  0
   44.1978  -26.2537   38.0827 C   0  0  0  0  0  0  0  0  0  0  0  0
   42.4501  -26.2594   40.1561 O   0  0  0  0  0  0  0  0  0  0  0  0
   44.2548  -24.6608   40.2877 O   0  0  0  0  0  0  0  0  0  0  0  0
   35.6659  -16.9323   37.2278 O   0  0  0  0  0  0  0  0  0  0  0  0
   35.6784  -15.6045   37.6234 C   0  0  0  0  0  0  0  0  0  0  0  0
   37.1385  -15.1236   37.5497 C   0  0  0  0  0  0  0  0  0  0  0  0
   34.8320  -14.8056   36.6400 C   0  0  0  0  0  0  0  0  0  0  0  0
   34.9833  -12.5648   36.6241 C   0  0  0  0  0  0  0  0  0  0  0  0
   35.5403  -13.7272   36.1252 O   0  0  0  0  0  0  0  0  0  0  0  0
 33 34  1  0  0  0
 34 32  1  0  0  0
 32 30  1  0  0  0
 30 31  1  0  0  0
 30 29  1  0  0  0
 29  1  1  0  0  0
  1  2  2  0  0  0
  2  3  1  0  0  0
  3  4  2  0  0  0
  4  5  1  0  0  0
  5  6  2  0  0  0
  5  7  1  0  0  0
  7  8  2  0  0  0
  7  9  1  0  0  0
  9 11  1  0  0  0
 11 12  1  0  0  0
 12 13  2  0  0  0
 13 14  1  0  0  0
 14 15  1  0  0  0
 14 16  1  0  0  0
  3 17  1  0  0  0
 17 18  3  0  0  0
 18 19  1  0  0  0
 19 20  2  0  0  0
 20 21  1  0  0  0
 21 22  2  0  0  0
 22 23  1  0  0  0
 23 24  2  0  0  0
 22 25  1  0  0  0
 25 26  1  0  0  0
 25 27  2  0  0  0
 25 28  2  0  0  0
  6  1  1  0  0  0
 16 11  2  0  0  0
 24 19  1  0  0  0
  9 10  1  0  0  0
M  END
> <minimizedAffinity>
2.35449

> <CNNscore>
0.5325735807

> <CNNaffinity>
5.5961637497

> <CNN_VS>
2.9803688526

> <CNNaffinity_variance>
0.7032313943

$$$$
[H]c1c([H])c(S(=O)(=O)C([H])([H])[H])c([H])c([H])c1C#Cc1c([H])c(O[C@@]([H])(C([H])([H])[H])C([H])([H])OC([H])([H])[H])c([H])c(C(=O)N([H])c2nn(C([H])([H])[H])c([H])c2[H])c1[H]


 34 36  0  0  0  0  0  0  0  0999 V2000
   34.7940  -10.8353   36.2583 C   0  0  0  0  0  0  0  0  0  0  0  0
   35.3891  -12.1055   36.1953 C   0  0  0  0  0  0  0  0  0  0  0  0
   34.7284  -13.1647   36.7354 C   0  0  0  0  0  0  0  0  0  0  0  0
   33.5058  -12.9850   37.3274 C   0  0  0  0  0  0  0  0  0  0  0  0
   32.8746  -11.7544   37.4165 C   0  0  0  0  0  0  0  0  0  0  0  0
   33.5623  -10.6981   36.8630 C   0  0  0  0  0  0  0  0  0  0  0  0
   31.5733  -11.6422   38.0557 C   0  0  0  0  0  0  0  0  0  0  0  0
   31.3003  -12.4675   38.9574 O   0  0  0  0  0  0  0  0  0  0  0  0
   30.6495  -10.6554   37.6900 N   0  0  0  0  0  0  0  0  0  0  0  0
   30.9260   -9.9696   36.9136 H   0  0  0  0  0  0  0  0  0  0  0  0
   29.3629  -10.4811   38.2643 C   0  0  0  0  0  0  0  0  0  0  0  0
   28.2506  -11.2553   38.0813 C   0  0  0  0  0  0  0  0  0  0  0  0
   27.2460  -10.6630   38.8648 C   0  0  0  0  0  0  0  0  0  0  0  0
   27.7867   -9.5914   39.4645 N   0  0  0  0  0  0  0  0  0  0  0  0
   27.0911   -8.6883   40.3694 C   0  0  0  0  0  0  0  0  0  0  0  0
   29.0335   -9.4624   39.1269 N   0  0  0  0  0  0  0  0  0  0  0  0
   35.3413  -14.4919   36.6740 C   0  0  0  0  0  0  0  0  0  0  0  0
   35.8277  -15.5937   36.6215 C   0  0  0  0  0  0  0  0  0  0  0  0
   36.3908  -16.9132   36.5544 C   0  0  0  0  0  0  0  0  0  0  0  0
   37.1516  -17.2739   35.4839 C   0  0  0  0  0  0  0  0  0  0  0  0
   37.6930  -18.5410   35.4181 C   0  0  0  0  0  0  0  0  0  0  0  0
   37.5052  -19.4930   36.3997 C   0  0  0  0  0  0  0  0  0  0  0  0
   36.7320  -19.1222   37.4845 C   0  0  0  0  0  0  0  0  0  0  0  0
   36.1893  -17.8518   37.5502 C   0  0  0  0  0  0  0  0  0  0  0  0
   38.2190  -21.0851   36.2589 S   0  0  0  0  0  0  0  0  0  0  0  0
   39.7147  -21.1931   37.2050 C   0  0  0  0  0  0  0  0  0  0  0  0
   38.4520  -21.3928   34.8135 O   0  0  0  0  0  0  0  0  0  0  0  0
   37.1801  -22.0715   36.7504 O   0  0  0  0  0  0  0  0  0  0  0  0
   35.4684   -9.7866   35.7132 O   0  0  0  0  0  0  0  0  0  0  0  0
   35.1455   -8.4457   35.8452 C   0  0  0  0  0  0  0  0  0  0  0  0
   36.4610   -7.6847   36.0882 C   0  0  0  0  0  0  0  0  0  0  0  0
   34.5218   -7.9740   34.5375 C   0  0  0  0  0  0  0  0  0  0  0  0
   32.9684   -7.5120   36.0924 C   0  0  0  0  0  0  0  0  0  0  0  0
   33.2276   -7.5095   34.7348 O   0  0  0  0  0  0  0  0  0  0  0  0
 33 34  1  0  0  0
 34 32  1  0  0  0
 32 30  1  0  0  0
 30 31  1  0  0  0
 30 29  1  0  0  0
 29  1  1  0  0  0
  1  2  2  0  0  0
  2  3  1  0  0  0
  3  4  2  0  0  0
  4  5  1  0  0  0
  5  6  2  0  0  0
  5  7  1  0  0  0
  7  8  2  0  0  0
  7  9  1  0  0  0
  9 11  1  0  0  0
 11 12  1  0  0  0
 12 13  2  0  0  0
 13 14  1  0  0  0
 14 15  1  0  0  0
 14 16  1  0  0  0
  3 17  1  0  0  0
 17 18  3  0  0  0
 18 19  1  0  0  0
 19 20  2  0  0  0
 20 21  1  0  0  0
 21 22  2  0  0  0
 22 23  1  0  0  0
 23 24  2  0  0  0
 22 25  1  0  0  0
 25 26  1  0  0  0
 25 27  2  0  0  0
 25 28  2  0  0  0
  6  1  1  0  0  0
 16 11  2  0  0  0
 24 19  1  0  0  0
  9 10  1  0  0  0
M  END
> <minimizedAffinity>
-6.38499

> <CNNscore>
0.5167158842

> <CNNaffinity>
6.7098860741

> <CNN_VS>
3.4671046734

> <CNNaffinity_variance>
0.4532323480

$$$$
[H]c1c([H])c(S(=O)(=O)C([H])([H])[H])c([H])c([H])c1C#Cc1c([H])c(O[C@@]([H])(C([H])([H])[H])C([H])([H])OC([H])([H])[H])c([H])c(C(=O)N([H])c2nn(C([H])([H])[H])c([H])c2[H])c1[H]


 34 36  0  0  0  0  0  0  0  0999 V2000
   40.6682  -19.5168   37.1603 C   0  0  0  0  0  0  0  0  0  0  0  0
   39.3011  -19.8101   37.0326 C   0  0  0  0  0  0  0  0  0  0  0  0
   38.6807  -20.4862   38.0367 C   0  0  0  0  0  0  0  0  0  0  0  0
   39.3855  -20.8694   39.1474 C   0  0  0  0  0  0  0  0  0  0  0  0
   40.7347  -20.6058   39.3236 C   0  0  0  0  0  0  0  0  0  0  0  0
   41.3403  -19.9206   38.2947 C   0  0  0  0  0  0  0  0  0  0  0  0
   41.4150  -21.0399   40.5332 C   0  0  0  0  0  0  0  0  0  0  0  0
   41.0098  -20.5728   41.6224 O   0  0  0  0  0  0  0  0  0  0  0  0
   42.4830  -21.9450   40.4999 N   0  0  0  0  0  0  0  0  0  0  0  0
   42.7959  -22.3198   39.5453 H   0  0  0  0  0  0  0  0  0  0  0  0
   43.1968  -22.4158   41.6333 C   0  0  0  0  0  0  0  0  0  0  0  0
   44.2836  -21.8458   42.2365 C   0  0  0  0  0  0  0  0  0  0  0  0
   44.6092  -22.6953   43.3071 C   0  0  0  0  0  0  0  0  0  0  0  0
   43.7276  -23.7068   43.2969 N   0  0  0  0  0  0  0  0  0  0  0  0
   43.7026  -24.8158   44.2390 C   0  0  0  0  0  0  0  0  0  0  0  0
   42.8847  -23.5652   42.3199 N   0  0  0  0  0  0  0  0  0  0  0  0
   37.2561  -20.7958   37.9118 C   0  0  0  0  0  0  0  0  0  0  0  0
   36.0872  -21.0684   37.7992 C   0  0  0  0  0  0  0  0  0  0  0  0
   34.6992  -21.4099   37.6593 C   0  0  0  0  0  0  0  0  0  0  0  0
   34.0305  -21.0836   36.5187 C   0  0  0  0  0  0  0  0  0  0  0  0
   32.6973  -21.4109   36.3830 C   0  0  0  0  0  0  0  0  0  0  0  0
   31.9791  -22.0683   37.3614 C   0  0  0  0  0  0  0  0  0  0  0  0
   32.6623  -22.3976   38.5177 C   0  0  0  0  0  0  0  0  0  0  0  0
   33.9989  -22.0692   38.6534 C   0  0  0  0  0  0  0  0  0  0  0  0
   30.2880  -22.4565   37.1301 S   0  0  0  0  0  0  0  0  0  0  0  0
   29.9854  -22.9992   35.4695 C   0  0  0  0  0  0  0  0  0  0  0  0
   29.4574  -21.2640   37.4853 O   0  0  0  0  0  0  0  0  0  0  0  0
   29.9491  -23.5364   38.1364 O   0  0  0  0  0  0  0  0  0  0  0  0
   41.2733  -18.8399   36.1467 O   0  0  0  0  0  0  0  0  0  0  0  0
   42.6338  -18.6203   36.0040 C   0  0  0  0  0  0  0  0  0  0  0  0
   43.2133  -19.8362   35.2593 C   0  0  0  0  0  0  0  0  0  0  0  0
   42.8291  -17.3682   35.1581 C   0  0  0  0  0  0  0  0  0  0  0  0
   44.8135  -16.3593   34.8601 C   0  0  0  0  0  0  0  0  0  0  0  0
   44.0244  -17.4181   34.4520 O   0  0  0  0  0  0  0  0  0  0  0  0
 33 34  1  0  0  0
 34 32  1  0  0  0
 32 30  1  0  0  0
 30 31  1  0  0  0
 30 29  1  0  0  0
 29  1  1  0  0  0
  1  2  2  0  0  0
  2  3  1  0  0  0
  3  4  2  0  0  0
  4  5  1  0  0  0
  5  6  2  0  0  0
  5  7  1  0  0  0
  7  8  2  0  0  0
  7  9  1  0  0  0
  9 11  1  0  0  0
 11 12  1  0  0  0
 12 13  2  0  0  0
 13 14  1  0  0  0
 14 15  1  0  0  0
 14 16  1  0  0  0
  3 17  1  0  0  0
 17 18  3  0  0  0
 18 19  1  0  0  0
 19 20  2  0  0  0
 20 21  1  0  0  0
 21 22  2  0  0  0
 22 23  1  0  0  0
 23 24  2  0  0  0
 22 25  1  0  0  0
 25 26  1  0  0  0
 25 27  2  0  0  0
 25 28  2  0  0  0
  6  1  1  0  0  0
 16 11  2  0  0  0
 24 19  1  0  0  0
  9 10  1  0  0  0
M  END
> <minimizedAffinity>
-3.83070

> <CNNscore>
0.4984061420

> <CNNaffinity>
5.2305359840

> <CNN_VS>
2.6069312096

> <CNNaffinity_variance>
0.3789441586

$$$$
[H]c1c([H])c(S(=O)(=O)C([H])([H])[H])c([H])c([H])c1C#Cc1c([H])c(O[C@@]([H])(C([H])([H])[H])C([H])([H])OC([H])([H])[H])c([H])c(C(=O)N([H])c2nn(C([H])([H])[H])c([H])c2[H])c1[H]


 34 36  0  0  0  0  0  0  0  0999 V2000
   36.4027  -17.6668   34.9570 C   0  0  0  0  0  0  0  0  0  0  0  0
   35.3878  -18.6357   35.0075 C   0  0  0  0  0  0  0  0  0  0  0  0
   34.1443  -18.2598   35.4103 C   0  0  0  0  0  0  0  0  0  0  0  0
   33.8969  -16.9578   35.7582 C   0  0  0  0  0  0  0  0  0  0  0  0
   34.8615  -15.9630   35.7265 C   0  0  0  0  0  0  0  0  0  0  0  0
   36.1115  -16.3675   35.3156 C   0  0  0  0  0  0  0  0  0  0  0  0
   34.5227  -14.6007   36.1055 C   0  0  0  0  0  0  0  0  0  0  0  0
   35.3652  -13.7071   35.8600 O   0  0  0  0  0  0  0  0  0  0  0  0
   33.3061  -14.2825   36.7216 N   0  0  0  0  0  0  0  0  0  0  0  0
   32.6145  -15.0794   36.9121 H   0  0  0  0  0  0  0  0  0  0  0  0
   32.9029  -12.9812   37.1209 C   0  0  0  0  0  0  0  0  0  0  0  0
   33.6504  -12.0300   37.7586 C   0  0  0  0  0  0  0  0  0  0  0  0
   32.7950  -10.9282   37.9263 C   0  0  0  0  0  0  0  0  0  0  0  0
   31.6077  -11.2599   37.3964 N   0  0  0  0  0  0  0  0  0  0  0  0
   30.4311  -10.4041   37.3565 C   0  0  0  0  0  0  0  0  0  0  0  0
   31.6454  -12.4649   36.9152 N   0  0  0  0  0  0  0  0  0  0  0  0
   33.0807  -19.2632   35.4657 C   0  0  0  0  0  0  0  0  0  0  0  0
   32.2100  -20.0944   35.5307 C   0  0  0  0  0  0  0  0  0  0  0  0
   31.1758  -21.0864   35.6260 C   0  0  0  0  0  0  0  0  0  0  0  0
   31.4954  -22.4091   35.5707 C   0  0  0  0  0  0  0  0  0  0  0  0
   30.5030  -23.3629   35.6621 C   0  0  0  0  0  0  0  0  0  0  0  0
   29.1671  -23.0491   35.8104 C   0  0  0  0  0  0  0  0  0  0  0  0
   28.8474  -21.7049   35.8660 C   0  0  0  0  0  0  0  0  0  0  0  0
   29.8426  -20.7488   35.7744 C   0  0  0  0  0  0  0  0  0  0  0  0
   27.9534  -24.3056   35.9208 S   0  0  0  0  0  0  0  0  0  0  0  0
   28.4222  -25.7231   34.9643 C   0  0  0  0  0  0  0  0  0  0  0  0
   26.6332  -23.7528   35.4851 O   0  0  0  0  0  0  0  0  0  0  0  0
   27.8164  -24.6489   37.3895 O   0  0  0  0  0  0  0  0  0  0  0  0
   37.6410  -18.0598   34.5519 O   0  0  0  0  0  0  0  0  0  0  0  0
   38.2013  -19.3149   34.7258 C   0  0  0  0  0  0  0  0  0  0  0  0
   39.0038  -19.6333   33.4517 C   0  0  0  0  0  0  0  0  0  0  0  0
   39.1478  -19.2540   35.9183 C   0  0  0  0  0  0  0  0  0  0  0  0
   37.8508  -20.9435   36.6309 C   0  0  0  0  0  0  0  0  0  0  0  0
   38.5827  -19.8452   37.0412 O   0  0  0  0  0  0  0  0  0  0  0  0
 33 34  1  0  0  0
 34 32  1  0  0  0
 32 30  1  0  0  0
 30 31  1  0  0  0
 30 29  1  0  0  0
 29  1  1  0  0  0
  1  2  2  0  0  0
  2  3  1  0  0  0
  3  4  2  0  0  0
  4  5  1  0  0  0
  5  6  2  0  0  0
  5  7  1  0  0  0
  7  8  2  0  0  0
  7  9  1  0  0  0
  9 11  1  0  0  0
 11 12  1  0  0  0
 12 13  2  0  0  0
 13 14  1  0  0  0
 14 15  1  0  0  0
 14 16  1  0  0  0
  3 17  1  0  0  0
 17 18  3  0  0  0
 18 19  1  0  0  0
 19 20  2  0  0  0
 20 21  1  0  0  0
 21 22  2  0  0  0
 22 23  1  0  0  0
 23 24  2  0  0  0
 22 25  1  0  0  0
 25 26  1  0  0  0
 25 27  2  0  0  0
 25 28  2  0  0  0
  6  1  1  0  0  0
 16 11  2  0  0  0
 24 19  1  0  0  0
  9 10  1  0  0  0
M  END
> <minimizedAffinity>
-7.04293

> <CNNscore>
0.4259812832

> <CNNaffinity>
5.7391905785

> <CNN_VS>
2.4447877407

> <CNNaffinity_variance>
0.1317053288

$$$$
[H]c1c([H])c(S(=O)(=O)C([H])([H])[H])c([H])c([H])c1C#Cc1c([H])c(O[C@@]([H])(C([H])([H])[H])C([H])([H])OC([H])([H])[H])c([H])c(C(=O)N([H])c2nn(C([H])([H])[H])c([H])c2[H])c1[H]


 34 36  0  0  0  0  0  0  0  0999 V2000
   34.0164  -18.1774   34.7201 C   0  0  0  0  0  0  0  0  0  0  0  0
   35.1036  -18.9019   35.2343 C   0  0  0  0  0  0  0  0  0  0  0  0
   35.9084  -18.3076   36.1558 C   0  0  0  0  0  0  0  0  0  0  0  0
   35.6545  -17.0257   36.5677 C   0  0  0  0  0  0  0  0  0  0  0  0
   34.5964  -16.2670   36.0927 C   0  0  0  0  0  0  0  0  0  0  0  0
   33.7963  -16.8896   35.1616 C   0  0  0  0  0  0  0  0  0  0  0  0
   34.3870  -14.9135   36.5813 C   0  0  0  0  0  0  0  0  0  0  0  0
   35.3711  -14.3220   37.0816 O   0  0  0  0  0  0  0  0  0  0  0  0
   33.1403  -14.2807   36.5028 N   0  0  0  0  0  0  0  0  0  0  0  0
   32.3261  -14.8247   36.0661 H   0  0  0  0  0  0  0  0  0  0  0  0
   32.8562  -12.9657   36.9562 C   0  0  0  0  0  0  0  0  0  0  0  0
   31.6799  -12.4899   37.4661 C   0  0  0  0  0  0  0  0  0  0  0  0
   31.9172  -11.1371   37.7620 C   0  0  0  0  0  0  0  0  0  0  0  0
   33.1887  -10.8716   37.4256 N   0  0  0  0  0  0  0  0  0  0  0  0
   33.8491   -9.5825   37.5678 C   0  0  0  0  0  0  0  0  0  0  0  0
   33.7637  -11.9330   36.9482 N   0  0  0  0  0  0  0  0  0  0  0  0
   37.0435  -19.0556   36.6970 C   0  0  0  0  0  0  0  0  0  0  0  0
   37.9797  -19.6588   37.1586 C   0  0  0  0  0  0  0  0  0  0  0  0
   39.0938  -20.3674   37.7238 C   0  0  0  0  0  0  0  0  0  0  0  0
   40.3627  -20.0579   37.3379 C   0  0  0  0  0  0  0  0  0  0  0  0
   41.4337  -20.7378   37.8799 C   0  0  0  0  0  0  0  0  0  0  0  0
   41.2933  -21.7416   38.8168 C   0  0  0  0  0  0  0  0  0  0  0  0
   40.0032  -22.0523   39.2055 C   0  0  0  0  0  0  0  0  0  0  0  0
   38.9296  -21.3705   38.6618 C   0  0  0  0  0  0  0  0  0  0  0  0
   42.6922  -22.5680   39.4681 S   0  0  0  0  0  0  0  0  0  0  0  0
   43.2202  -23.8677   38.3838 C   0  0  0  0  0  0  0  0  0  0  0  0
   42.3667  -23.0821   40.8348 O   0  0  0  0  0  0  0  0  0  0  0  0
   43.7720  -21.5207   39.6444 O   0  0  0  0  0  0  0  0  0  0  0  0
   33.2213  -18.7868   33.7991 O   0  0  0  0  0  0  0  0  0  0  0  0
   32.1258  -19.5922   34.0654 C   0  0  0  0  0  0  0  0  0  0  0  0
   32.6273  -21.0472   34.0850 C   0  0  0  0  0  0  0  0  0  0  0  0
   31.5863  -19.2241   35.4420 C   0  0  0  0  0  0  0  0  0  0  0  0
   29.5725  -20.2027   35.6192 C   0  0  0  0  0  0  0  0  0  0  0  0
   30.2161  -18.9988   35.4028 O   0  0  0  0  0  0  0  0  0  0  0  0
 33 34  1  0  0  0
 34 32  1  0  0  0
 32 30  1  0  0  0
 30 31  1  0  0  0
 30 29  1  0  0  0
 29  1  1  0  0  0
  1  2  2  0  0  0
  2  3  1  0  0  0
  3  4  2  0  0  0
  4  5  1  0  0  0
  5  6  2  0  0  0
  5  7  1  0  0  0
  7  8  2  0  0  0
  7  9  1  0  0  0
  9 11  1  0  0  0
 11 12  1  0  0  0
 12 13  2  0  0  0
 13 14  1  0  0  0
 14 15  1  0  0  0
 14 16  1  0  0  0
  3 17  1  0  0  0
 17 18  3  0  0  0
 18 19  1  0  0  0
 19 20  2  0  0  0
 20 21  1  0  0  0
 21 22  2  0  0  0
 22 23  1  0  0  0
 23 24  2  0  0  0
 22 25  1  0  0  0
 25 26  1  0  0  0
 25 27  2  0  0  0
 25 28  2  0  0  0
  6  1  1  0  0  0
 16 11  2  0  0  0
 24 19  1  0  0  0
  9 10  1  0  0  0
M  END
> <minimizedAffinity>
-6.30855

> <CNNscore>
0.4209830463

> <CNNaffinity>
5.7257156372

> <CNN_VS>
2.4104292393

> <CNNaffinity_variance>
0.0681266934

$$$$
[H]c1c([H])c(-c2c(N([H])[H])nc(N([H])[H])nc2C([H])([H])C([H])([H])[H])c([H])c([N+](=O)[O-])c1Cl


 24 25  0  0  0  0  0  0  0  0999 V2000
   36.0087  -14.3005   37.2435 C   0  0  0  0  0  0  0  0  0  0  0  0
   35.3843  -13.0808   37.3704 N   0  0  0  0  0  0  0  0  0  0  0  0
   34.1467  -12.8595   36.9166 C   0  0  0  0  0  0  0  0  0  0  0  0
   33.5101  -11.5856   37.0622 N   0  0  0  0  0  0  0  0  0  0  0  0
   33.5121  -13.8808   36.3184 N   0  0  0  0  0  0  0  0  0  0  0  0
   34.0758  -15.0939   36.1656 C   0  0  0  0  0  0  0  0  0  0  0  0
   33.4174  -16.1753   35.5459 N   0  0  0  0  0  0  0  0  0  0  0  0
   35.3762  -15.3415   36.6364 C   0  0  0  0  0  0  0  0  0  0  0  0
   33.8769  -10.8632   37.7151 H   0  0  0  0  0  0  0  0  0  0  0  0
   32.6508  -11.3246   36.5234 H   0  0  0  0  0  0  0  0  0  0  0  0
   33.4166  -16.4304   34.5602 H   0  0  0  0  0  0  0  0  0  0  0  0
   32.8547  -16.7988   36.1982 H   0  0  0  0  0  0  0  0  0  0  0  0
   35.9633  -16.6625   36.4140 C   0  0  0  0  0  0  0  0  0  0  0  0
   36.6502  -16.9423   35.2188 C   0  0  0  0  0  0  0  0  0  0  0  0
   37.1881  -18.1586   34.9681 C   0  0  0  0  0  0  0  0  0  0  0  0
   37.0803  -19.1819   35.8897 C   0  0  0  0  0  0  0  0  0  0  0  0
   37.7676  -20.7470   35.5835 Cl  0  0  0  0  0  0  0  0  0  0  0  0
   36.4199  -18.9472   37.0638 C   0  0  0  0  0  0  0  0  0  0  0  0
   35.8796  -17.6939   37.2940 C   0  0  0  0  0  0  0  0  0  0  0  0
   36.2806  -19.9437   38.0559 N   0  0  0  0  0  0  0  0  0  0  0  0
   37.3688  -20.4635   38.6934 O   0  0  0  0  0  0  0  0  0  0  0  0
   35.1507  -20.3581   38.3575 O   0  0  0  0  0  0  0  0  0  0  0  0
   38.1625  -13.2299   37.4564 C   0  0  0  0  0  0  0  0  0  0  0  0
   37.3599  -14.4789   37.8422 C   0  0  0  0  0  0  0  0  0  0  0  0
 23 24  1  0  0  0
 24  1  1  0  0  0
  1  2  2  0  0  0
  2  3  1  0  0  0
  3  4  1  0  0  0
  3  5  2  0  0  0
  5  6  1  0  0  0
  6  7  1  0  0  0
  6  8  2  0  0  0
  8 13  1  0  0  0
 13 14  2  0  0  0
 14 15  1  0  0  0
 15 16  2  0  0  0
 16 17  1  0  0  0
 16 18  1  0  0  0
 18 19  2  0  0  0
 18 20  1  0  0  0
 20 21  1  0  0  0
 20 22  2  0  0  0
  8  1  1  0  0  0
 19 13  1  0  0  0
  4  9  1  0  0  0
  4 10  1  0  0  0
  7 11  1  0  0  0
  7 12  1  0  0  0
M  CHG 1  20   1
M  CHG 1  21  -1
M  END
> <minimizedAffinity>
-7.27933

> <CNNscore>
0.5003553033

> <CNNaffinity>
4.9305834770

> <CNN_VS>
2.4670436382

> <CNNaffinity_variance>
0.5685539842

$$$$
[H]c1c([H])c(-c2c(N([H])[H])nc(N([H])[H])nc2C([H])([H])C([H])([H])[H])c([H])c([N+](=O)[O-])c1Cl


 24 25  0  0  0  0  0  0  0  0999 V2000
   34.5114  -17.2453   35.5409 C   0  0  0  0  0  0  0  0  0  0  0  0
   33.6400  -16.1803   35.5520 N   0  0  0  0  0  0  0  0  0  0  0  0
   33.9723  -14.9888   36.0586 C   0  0  0  0  0  0  0  0  0  0  0  0
   33.0548  -13.8899   36.0568 N   0  0  0  0  0  0  0  0  0  0  0  0
   35.2067  -14.8530   36.5696 N   0  0  0  0  0  0  0  0  0  0  0  0
   36.0985  -15.8615   36.5865 C   0  0  0  0  0  0  0  0  0  0  0  0
   37.3991  -15.7292   37.1138 N   0  0  0  0  0  0  0  0  0  0  0  0
   35.7636  -17.1198   36.0588 C   0  0  0  0  0  0  0  0  0  0  0  0
   32.1963  -13.8961   35.4689 H   0  0  0  0  0  0  0  0  0  0  0  0
   33.2054  -13.0342   36.6417 H   0  0  0  0  0  0  0  0  0  0  0  0
   37.7108  -15.8933   38.0690 H   0  0  0  0  0  0  0  0  0  0  0  0
   38.1421  -15.4205   36.4184 H   0  0  0  0  0  0  0  0  0  0  0  0
   36.7500  -18.1972   36.1336 C   0  0  0  0  0  0  0  0  0  0  0  0
   37.6549  -18.4062   35.0772 C   0  0  0  0  0  0  0  0  0  0  0  0
   38.5671  -19.4056   35.1008 C   0  0  0  0  0  0  0  0  0  0  0  0
   38.6430  -20.2671   36.1779 C   0  0  0  0  0  0  0  0  0  0  0  0
   39.8100  -21.5523   36.2240 Cl  0  0  0  0  0  0  0  0  0  0  0  0
   37.7798  -20.0947   37.2243 C   0  0  0  0  0  0  0  0  0  0  0  0
   36.8570  -19.0643   37.1737 C   0  0  0  0  0  0  0  0  0  0  0  0
   37.8077  -20.9313   38.3627 N   0  0  0  0  0  0  0  0  0  0  0  0
   36.8294  -21.8557   38.5848 O   0  0  0  0  0  0  0  0  0  0  0  0
   38.7358  -20.8283   39.1795 O   0  0  0  0  0  0  0  0  0  0  0  0
   33.2004  -19.2379   35.9165 C   0  0  0  0  0  0  0  0  0  0  0  0
   34.0827  -18.5144   34.8914 C   0  0  0  0  0  0  0  0  0  0  0  0
 23 24  1  0  0  0
 24  1  1  0  0  0
  1  2  2  0  0  0
  2  3  1  0  0  0
  3  4  1  0  0  0
  3  5  2  0  0  0
  5  6  1  0  0  0
  6  7  1  0  0  0
  6  8  2  0  0  0
  8 13  1  0  0  0
 13 14  2  0  0  0
 14 15  1  0  0  0
 15 16  2  0  0  0
 16 17  1  0  0  0
 16 18  1  0  0  0
 18 19  2  0  0  0
 18 20  1  0  0  0
 20 21  1  0  0  0
 20 22  2  0  0  0
  8  1  1  0  0  0
 19 13  1  0  0  0
  4  9  1  0  0  0
  4 10  1  0  0  0
  7 11  1  0  0  0
  7 12  1  0  0  0
M  CHG 1  20   1
M  CHG 1  21  -1
M  END
> <minimizedAffinity>
-5.43111

> <CNNscore>
0.3742080331

> <CNNaffinity>
4.5049967766

> <CNN_VS>
1.6858060360

> <CNNaffinity_variance>
0.3635952473

$$$$
[H]c1c([H])c(-c2c(N([H])[H])nc(N([H])[H])nc2C([H])([H])C([H])([H])[H])c([H])c([N+](=O)[O-])c1Cl


 24 25  0  0  0  0  0  0  0  0999 V2000
   35.9104  -14.3047   37.3003 C   0  0  0  0  0  0  0  0  0  0  0  0
   35.2560  -13.0971   37.3849 N   0  0  0  0  0  0  0  0  0  0  0  0
   34.0348  -12.9074   36.8755 C   0  0  0  0  0  0  0  0  0  0  0  0
   33.3664  -11.6456   36.9776 N   0  0  0  0  0  0  0  0  0  0  0  0
   33.4480  -13.9488   36.2634 N   0  0  0  0  0  0  0  0  0  0  0  0
   34.0428  -15.1513   36.1503 C   0  0  0  0  0  0  0  0  0  0  0  0
   33.4344  -16.2536   35.5163 N   0  0  0  0  0  0  0  0  0  0  0  0
   35.3265  -15.3658   36.6796 C   0  0  0  0  0  0  0  0  0  0  0  0
   33.6895  -10.9081   37.6366 H   0  0  0  0  0  0  0  0  0  0  0  0
   32.5260  -11.4092   36.3991 H   0  0  0  0  0  0  0  0  0  0  0  0
   33.4815  -16.5201   34.5348 H   0  0  0  0  0  0  0  0  0  0  0  0
   32.8570  -16.8812   36.1515 H   0  0  0  0  0  0  0  0  0  0  0  0
   35.9499  -16.6765   36.4993 C   0  0  0  0  0  0  0  0  0  0  0  0
   35.6978  -17.7147   37.4143 C   0  0  0  0  0  0  0  0  0  0  0  0
   36.2728  -18.9338   37.2926 C   0  0  0  0  0  0  0  0  0  0  0  0
   37.1390  -19.2052   36.2514 C   0  0  0  0  0  0  0  0  0  0  0  0
   37.8822  -20.7654   36.0804 Cl  0  0  0  0  0  0  0  0  0  0  0  0
   37.4080  -18.2206   35.3415 C   0  0  0  0  0  0  0  0  0  0  0  0
   36.8060  -16.9831   35.4902 C   0  0  0  0  0  0  0  0  0  0  0  0
   38.2754  -18.4309   34.2461 N   0  0  0  0  0  0  0  0  0  0  0  0
   39.5728  -18.8082   34.4339 O   0  0  0  0  0  0  0  0  0  0  0  0
   37.8558  -18.2710   33.0895 O   0  0  0  0  0  0  0  0  0  0  0  0
   38.0962  -13.2880   37.4373 C   0  0  0  0  0  0  0  0  0  0  0  0
   37.2378  -14.4473   37.9589 C   0  0  0  0  0  0  0  0  0  0  0  0
 23 24  1  0  0  0
 24  1  1  0  0  0
  1  2  2  0  0  0
  2  3  1  0  0  0
  3  4  1  0  0  0
  3  5  2  0  0  0
  5  6  1  0  0  0
  6  7  1  0  0  0
  6  8  2  0  0  0
  8 13  1  0  0  0
 13 14  2  0  0  0
 14 15  1  0  0  0
 15 16  2  0  0  0
 16 17  1  0  0  0
 16 18  1  0  0  0
 18 19  2  0  0  0
 18 20  1  0  0  0
 20 21  1  0  0  0
 20 22  2  0  0  0
  8  1  1  0  0  0
 19 13  1  0  0  0
  4  9  1  0  0  0
  4 10  1  0  0  0
  7 11  1  0  0  0
  7 12  1  0  0  0
M  CHG 1  20   1
M  CHG 1  21  -1
M  END
> <minimizedAffinity>
-7.27888

> <CNNscore>
0.3595339060

> <CNNaffinity>
4.7871298790

> <CNN_VS>
1.7211354971

> <CNNaffinity_variance>
0.6257811785

$$$$
[H]c1c([H])c(-c2c(N([H])[H])nc(N([H])[H])nc2C([H])([H])C([H])([H])[H])c([H])c([N+](=O)[O-])c1Cl


 24 25  0  0  0  0  0  0  0  0999 V2000
   36.4480  -15.0032   37.4556 C   0  0  0  0  0  0  0  0  0  0  0  0
   37.0815  -16.2056   37.2399 N   0  0  0  0  0  0  0  0  0  0  0  0
   36.5477  -17.1705   36.4844 C   0  0  0  0  0  0  0  0  0  0  0  0
   37.2235  -18.4135   36.2661 N   0  0  0  0  0  0  0  0  0  0  0  0
   35.3488  -16.9329   35.9281 N   0  0  0  0  0  0  0  0  0  0  0  0
   34.6838  -15.7759   36.1072 C   0  0  0  0  0  0  0  0  0  0  0  0
   33.4283  -15.5121   35.5232 N   0  0  0  0  0  0  0  0  0  0  0  0
   35.2314  -14.7528   36.8993 C   0  0  0  0  0  0  0  0  0  0  0  0
   38.2340  -18.5315   36.4844 H   0  0  0  0  0  0  0  0  0  0  0  0
   36.7358  -19.2549   35.8774 H   0  0  0  0  0  0  0  0  0  0  0  0
   32.5040  -15.7051   35.9039 H   0  0  0  0  0  0  0  0  0  0  0  0
   33.4606  -15.0518   34.5651 H   0  0  0  0  0  0  0  0  0  0  0  0
   34.4565  -13.5284   37.0981 C   0  0  0  0  0  0  0  0  0  0  0  0
   34.9878  -12.2823   36.7190 C   0  0  0  0  0  0  0  0  0  0  0  0
   34.3099  -11.1262   36.9067 C   0  0  0  0  0  0  0  0  0  0  0  0
   33.0553  -11.1290   37.4846 C   0  0  0  0  0  0  0  0  0  0  0  0
   32.1721   -9.6539   37.7294 Cl  0  0  0  0  0  0  0  0  0  0  0  0
   32.5058  -12.3217   37.8658 C   0  0  0  0  0  0  0  0  0  0  0  0
   33.2213  -13.4888   37.6619 C   0  0  0  0  0  0  0  0  0  0  0  0
   31.2231  -12.4007   38.4530 N   0  0  0  0  0  0  0  0  0  0  0  0
   30.0999  -12.0948   37.7418 O   0  0  0  0  0  0  0  0  0  0  0  0
   31.1090  -12.7539   39.6369 O   0  0  0  0  0  0  0  0  0  0  0  0
   38.2994  -13.4555   37.3711 C   0  0  0  0  0  0  0  0  0  0  0  0
   37.1480  -13.9578   38.2513 C   0  0  0  0  0  0  0  0  0  0  0  0
 23 24  1  0  0  0
 24  1  1  0  0  0
  1  2  2  0  0  0
  2  3  1  0  0  0
  3  4  1  0  0  0
  3  5  2  0  0  0
  5  6  1  0  0  0
  6  7  1  0  0  0
  6  8  2  0  0  0
  8 13  1  0  0  0
 13 14  2  0  0  0
 14 15  1  0  0  0
 15 16  2  0  0  0
 16 17  1  0  0  0
 16 18  1  0  0  0
 18 19  2  0  0  0
 18 20  1  0  0  0
 20 21  1  0  0  0
 20 22  2  0  0  0
  8  1  1  0  0  0
 19 13  1  0  0  0
  4  9  1  0  0  0
  4 10  1  0  0  0
  7 11  1  0  0  0
  7 12  1  0  0  0
M  CHG 1  20   1
M  CHG 1  21  -1
M  END
> <minimizedAffinity>
-7.68457

> <CNNscore>
0.3280301988

> <CNNaffinity>
5.1777644157

> <CNN_VS>
1.6984630823

> <CNNaffinity_variance>
0.4315628111

$$$$
[H]c1c([H])c(-c2c(N([H])[H])nc(N([H])[H])nc2C([H])([H])C([H])([H])[H])c([H])c([N+](=O)[O-])c1Cl


 24 25  0  0  0  0  0  0  0  0999 V2000
   35.2656  -19.4461   36.4069 C   0  0  0  0  0  0  0  0  0  0  0  0
   36.1581  -18.4012   36.4797 N   0  0  0  0  0  0  0  0  0  0  0  0
   35.8606  -17.1739   36.0417 C   0  0  0  0  0  0  0  0  0  0  0  0
   36.7996  -16.0970   36.1305 N   0  0  0  0  0  0  0  0  0  0  0  0
   34.6405  -16.9805   35.5151 N   0  0  0  0  0  0  0  0  0  0  0  0
   33.7293  -17.9669   35.4174 C   0  0  0  0  0  0  0  0  0  0  0  0
   32.4433  -17.7746   34.8731 N   0  0  0  0  0  0  0  0  0  0  0  0
   34.0275  -19.2622   35.8724 C   0  0  0  0  0  0  0  0  0  0  0  0
   37.6449  -16.1577   36.7342 H   0  0  0  0  0  0  0  0  0  0  0  0
   36.6787  -15.2038   35.5971 H   0  0  0  0  0  0  0  0  0  0  0  0
   32.1491  -17.8727   33.9034 H   0  0  0  0  0  0  0  0  0  0  0  0
   31.6918  -17.4938   35.5712 H   0  0  0  0  0  0  0  0  0  0  0  0
   33.0217  -20.3117   35.7107 C   0  0  0  0  0  0  0  0  0  0  0  0
   32.9595  -21.0583   34.5202 C   0  0  0  0  0  0  0  0  0  0  0  0
   32.0298  -22.0223   34.3255 C   0  0  0  0  0  0  0  0  0  0  0  0
   31.0967  -22.3110   35.3022 C   0  0  0  0  0  0  0  0  0  0  0  0
   29.8994  -23.5469   35.0682 Cl  0  0  0  0  0  0  0  0  0  0  0  0
   31.1262  -21.6062   36.4736 C   0  0  0  0  0  0  0  0  0  0  0  0
   32.0880  -20.6259   36.6460 C   0  0  0  0  0  0  0  0  0  0  0  0
   30.2098  -21.8553   37.5199 N   0  0  0  0  0  0  0  0  0  0  0  0
   30.4818  -22.7695   38.4952 O   0  0  0  0  0  0  0  0  0  0  0  0
   29.1362  -21.2348   37.5583 O   0  0  0  0  0  0  0  0  0  0  0  0
   35.6373  -20.5774   38.5074 C   0  0  0  0  0  0  0  0  0  0  0  0
   35.6547  -20.7617   36.9847 C   0  0  0  0  0  0  0  0  0  0  0  0
 23 24  1  0  0  0
 24  1  1  0  0  0
  1  2  2  0  0  0
  2  3  1  0  0  0
  3  4  1  0  0  0
  3  5  2  0  0  0
  5  6  1  0  0  0
  6  7  1  0  0  0
  6  8  2  0  0  0
  8 13  1  0  0  0
 13 14  2  0  0  0
 14 15  1  0  0  0
 15 16  2  0  0  0
 16 17  1  0  0  0
 16 18  1  0  0  0
 18 19  2  0  0  0
 18 20  1  0  0  0
 20 21  1  0  0  0
 20 22  2  0  0  0
  8  1  1  0  0  0
 19 13  1  0  0  0
  4  9  1  0  0  0
  4 10  1  0  0  0
  7 11  1  0  0  0
  7 12  1  0  0  0
M  CHG 1  20   1
M  CHG 1  21  -1
M  END
> <minimizedAffinity>
-4.98649

> <CNNscore>
0.3072364628

> <CNNaffinity>
4.2576208115

> <CNN_VS>
1.3080964088

> <CNNaffinity_variance>
0.3077836037

$$$$
[H]c1c([H])c(-c2c(N([H])[H])nc(N([H])[H])nc2C([H])([H])C([H])([H])[H])c([H])c([N+](=O)[O-])c1Cl


 24 25  0  0  0  0  0  0  0  0999 V2000
   35.0394  -15.4585   36.4155 C   0  0  0  0  0  0  0  0  0  0  0  0
   35.7906  -14.4718   37.0120 N   0  0  0  0  0  0  0  0  0  0  0  0
   37.0128  -14.7004   37.5024 C   0  0  0  0  0  0  0  0  0  0  0  0
   37.7828  -13.6604   38.1147 N   0  0  0  0  0  0  0  0  0  0  0  0
   37.5017  -15.9468   37.3973 N   0  0  0  0  0  0  0  0  0  0  0  0
   36.8097  -16.9502   36.8254 C   0  0  0  0  0  0  0  0  0  0  0  0
   37.3147  -18.2606   36.7031 N   0  0  0  0  0  0  0  0  0  0  0  0
   35.5235  -16.7257   36.3064 C   0  0  0  0  0  0  0  0  0  0  0  0
   37.5332  -12.6567   38.0009 H   0  0  0  0  0  0  0  0  0  0  0  0
   38.6280  -13.8605   38.6999 H   0  0  0  0  0  0  0  0  0  0  0  0
   37.2270  -19.0329   37.3607 H   0  0  0  0  0  0  0  0  0  0  0  0
   37.8519  -18.4587   35.8070 H   0  0  0  0  0  0  0  0  0  0  0  0
   34.7930  -17.8537   35.7293 C   0  0  0  0  0  0  0  0  0  0  0  0
   34.8913  -18.1348   34.3545 C   0  0  0  0  0  0  0  0  0  0  0  0
   34.2139  -19.1562   33.7807 C   0  0  0  0  0  0  0  0  0  0  0  0
   33.3911  -19.9699   34.5350 C   0  0  0  0  0  0  0  0  0  0  0  0
   32.5177  -21.2861   33.8135 Cl  0  0  0  0  0  0  0  0  0  0  0  0
   33.2706  -19.7277   35.8754 C   0  0  0  0  0  0  0  0  0  0  0  0
   33.9750  -18.6763   36.4360 C   0  0  0  0  0  0  0  0  0  0  0  0
   32.4557  -20.5256   36.7095 N   0  0  0  0  0  0  0  0  0  0  0  0
   31.0968  -20.5138   36.5906 O   0  0  0  0  0  0  0  0  0  0  0  0
   32.9791  -21.2523   37.5681 O   0  0  0  0  0  0  0  0  0  0  0  0
   33.3686  -13.7153   36.3963 C   0  0  0  0  0  0  0  0  0  0  0  0
   33.7179  -15.0984   35.8323 C   0  0  0  0  0  0  0  0  0  0  0  0
 23 24  1  0  0  0
 24  1  1  0  0  0
  1  2  2  0  0  0
  2  3  1  0  0  0
  3  4  1  0  0  0
  3  5  2  0  0  0
  5  6  1  0  0  0
  6  7  1  0  0  0
  6  8  2  0  0  0
  8 13  1  0  0  0
 13 14  2  0  0  0
 14 15  1  0  0  0
 15 16  2  0  0  0
 16 17  1  0  0  0
 16 18  1  0  0  0
 18 19  2  0  0  0
 18 20  1  0  0  0
 20 21  1  0  0  0
 20 22  2  0  0  0
  8  1  1  0  0  0
 19 13  1  0  0  0
  4  9  1  0  0  0
  4 10  1  0  0  0
  7 11  1  0  0  0
  7 12  1  0  0  0
M  CHG 1  20   1
M  CHG 1  21  -1
M  END
> <minimizedAffinity>
-5.91501

> <CNNscore>
0.2939845920

> <CNNaffinity>
4.5200009346

> <CNN_VS>
1.3288105726

> <CNNaffinity_variance>
0.5103343129

$$$$
[H]c1c([H])c(-c2c(N([H])[H])nc(N([H])[H])nc2C([H])([H])C([H])([H])[H])c([H])c([N+](=O)[O-])c1Cl


 24 25  0  0  0  0  0  0  0  0999 V2000
   38.7260  -19.2436   35.9007 C   0  0  0  0  0  0  0  0  0  0  0  0
   38.1529  -18.6527   34.7979 N   0  0  0  0  0  0  0  0  0  0  0  0
   38.8399  -18.4109   33.6771 C   0  0  0  0  0  0  0  0  0  0  0  0
   38.2261  -17.8003   32.5371 N   0  0  0  0  0  0  0  0  0  0  0  0
   40.1347  -18.7664   33.6528 N   0  0  0  0  0  0  0  0  0  0  0  0
   40.7465  -19.3456   34.7031 C   0  0  0  0  0  0  0  0  0  0  0  0
   42.1028  -19.7294   34.6872 N   0  0  0  0  0  0  0  0  0  0  0  0
   40.0379  -19.6051   35.8882 C   0  0  0  0  0  0  0  0  0  0  0  0
   37.1919  -17.7319   32.4447 H   0  0  0  0  0  0  0  0  0  0  0  0
   38.7857  -17.3987   31.7482 H   0  0  0  0  0  0  0  0  0  0  0  0
   42.9160  -19.1785   34.9549 H   0  0  0  0  0  0  0  0  0  0  0  0
   42.2903  -20.7217   34.3539 H   0  0  0  0  0  0  0  0  0  0  0  0
   40.7527  -20.2001   37.0171 C   0  0  0  0  0  0  0  0  0  0  0  0
   40.7075  -21.5892   37.2337 C   0  0  0  0  0  0  0  0  0  0  0  0
   41.3380  -22.1733   38.2790 C   0  0  0  0  0  0  0  0  0  0  0  0
   42.0580  -21.4158   39.1822 C   0  0  0  0  0  0  0  0  0  0  0  0
   42.8747  -22.1512   40.5268 Cl  0  0  0  0  0  0  0  0  0  0  0  0
   42.1251  -20.0617   39.0040 C   0  0  0  0  0  0  0  0  0  0  0  0
   41.4708  -19.4908   37.9262 C   0  0  0  0  0  0  0  0  0  0  0  0
   42.8519  -19.2267   39.8821 N   0  0  0  0  0  0  0  0  0  0  0  0
   42.3147  -18.8046   41.0629 O   0  0  0  0  0  0  0  0  0  0  0  0
   44.0001  -18.8668   39.5798 O   0  0  0  0  0  0  0  0  0  0  0  0
   36.7318  -18.5115   37.0485 C   0  0  0  0  0  0  0  0  0  0  0  0
   37.8682  -19.5413   37.0804 C   0  0  0  0  0  0  0  0  0  0  0  0
 23 24  1  0  0  0
 24  1  1  0  0  0
  1  2  2  0  0  0
  2  3  1  0  0  0
  3  4  1  0  0  0
  3  5  2  0  0  0
  5  6  1  0  0  0
  6  7  1  0  0  0
  6  8  2  0  0  0
  8 13  1  0  0  0
 13 14  2  0  0  0
 14 15  1  0  0  0
 15 16  2  0  0  0
 16 17  1  0  0  0
 16 18  1  0  0  0
 18 19  2  0  0  0
 18 20  1  0  0  0
 20 21  1  0  0  0
 20 22  2  0  0  0
  8  1  1  0  0  0
 19 13  1  0  0  0
  4  9  1  0  0  0
  4 10  1  0  0  0
  7 11  1  0  0  0
  7 12  1  0  0  0
M  CHG 1  20   1
M  CHG 1  21  -1
M  END
> <minimizedAffinity>
-4.26794

> <CNNscore>
0.2833290398

> <CNNaffinity>
4.3783025742

> <CNN_VS>
1.2405002117

> <CNNaffinity_variance>
0.0274559911

$$$$
[H]c1c([H])c(-c2c(N([H])[H])nc(N([H])[H])nc2C([H])([H])C([H])([H])[H])c([H])c([N+](=O)[O-])c1Cl


 24 25  0  0  0  0  0  0  0  0999 V2000
   36.4968  -17.2613   36.7181 C   0  0  0  0  0  0  0  0  0  0  0  0
   37.1321  -16.1058   37.1116 N   0  0  0  0  0  0  0  0  0  0  0  0
   36.5568  -14.9033   37.0129 C   0  0  0  0  0  0  0  0  0  0  0  0
   37.2305  -13.7120   37.4325 N   0  0  0  0  0  0  0  0  0  0  0  0
   35.3138  -14.8485   36.5074 N   0  0  0  0  0  0  0  0  0  0  0  0
   34.6466  -15.9466   36.1051 C   0  0  0  0  0  0  0  0  0  0  0  0
   33.3394  -15.9026   35.5795 N   0  0  0  0  0  0  0  0  0  0  0  0
   35.2384  -17.2171   36.2016 C   0  0  0  0  0  0  0  0  0  0  0  0
   38.0800  -13.7473   38.0323 H   0  0  0  0  0  0  0  0  0  0  0  0
   36.9005  -12.7565   37.1586 H   0  0  0  0  0  0  0  0  0  0  0  0
   33.0550  -15.7924   34.6081 H   0  0  0  0  0  0  0  0  0  0  0  0
   32.5585  -15.9992   36.2948 H   0  0  0  0  0  0  0  0  0  0  0  0
   34.4919  -18.3776   35.7165 C   0  0  0  0  0  0  0  0  0  0  0  0
   34.5187  -18.7198   34.3524 C   0  0  0  0  0  0  0  0  0  0  0  0
   33.8240  -19.7730   33.8630 C   0  0  0  0  0  0  0  0  0  0  0  0
   33.0540  -20.5600   34.6971 C   0  0  0  0  0  0  0  0  0  0  0  0
   32.1593  -21.9165   34.0844 Cl  0  0  0  0  0  0  0  0  0  0  0  0
   33.0037  -20.2585   36.0299 C   0  0  0  0  0  0  0  0  0  0  0  0
   33.7241  -19.1756   36.5033 C   0  0  0  0  0  0  0  0  0  0  0  0
   32.2456  -21.0260   36.9425 N   0  0  0  0  0  0  0  0  0  0  0  0
   30.8827  -20.9675   36.9541 O   0  0  0  0  0  0  0  0  0  0  0  0
   32.8237  -21.7687   37.7509 O   0  0  0  0  0  0  0  0  0  0  0  0
   38.1423  -18.7365   35.7454 C   0  0  0  0  0  0  0  0  0  0  0  0
   37.1842  -18.5645   36.9309 C   0  0  0  0  0  0  0  0  0  0  0  0
 23 24  1  0  0  0
 24  1  1  0  0  0
  1  2  2  0  0  0
  2  3  1  0  0  0
  3  4  1  0  0  0
  3  5  2  0  0  0
  5  6  1  0  0  0
  6  7  1  0  0  0
  6  8  2  0  0  0
  8 13  1  0  0  0
 13 14  2  0  0  0
 14 15  1  0  0  0
 15 16  2  0  0  0
 16 17  1  0  0  0
 16 18  1  0  0  0
 18 19  2  0  0  0
 18 20  1  0  0  0
 20 21  1  0  0  0
 20 22  2  0  0  0
  8  1  1  0  0  0
 19 13  1  0  0  0
  4  9  1  0  0  0
  4 10  1  0  0  0
  7 11  1  0  0  0
  7 12  1  0  0  0
M  CHG 1  20   1
M  CHG 1  21  -1
M  END
> <minimizedAffinity>
-5.94535

> <CNNscore>
0.2825038433

> <CNNaffinity>
4.5322685242

> <CNN_VS>
1.2803832293

> <CNNaffinity_variance>
0.8228767514

$$$$
[H]c1c([H])c(-c2c(N([H])[H])nc(N([H])[H])nc2C([H])([H])C([H])([H])[H])c([H])c([N+](=O)[O-])c1Cl


 24 25  0  0  0  0  0  0  0  0999 V2000
   37.0731  -19.5246   35.4755 C   0  0  0  0  0  0  0  0  0  0  0  0
   38.3695  -19.6230   35.9263 N   0  0  0  0  0  0  0  0  0  0  0  0
   38.6655  -19.9334   37.1924 C   0  0  0  0  0  0  0  0  0  0  0  0
   40.0202  -20.0371   37.6430 N   0  0  0  0  0  0  0  0  0  0  0  0
   37.6423  -20.1514   38.0344 N   0  0  0  0  0  0  0  0  0  0  0  0
   36.3554  -20.0667   37.6476 C   0  0  0  0  0  0  0  0  0  0  0  0
   35.2732  -20.2999   38.5202 N   0  0  0  0  0  0  0  0  0  0  0  0
   36.0286  -19.7404   36.3207 C   0  0  0  0  0  0  0  0  0  0  0  0
   40.8146  -20.1048   36.9744 H   0  0  0  0  0  0  0  0  0  0  0  0
   40.2724  -20.0513   38.6594 H   0  0  0  0  0  0  0  0  0  0  0  0
   34.7833  -19.6289   39.1088 H   0  0  0  0  0  0  0  0  0  0  0  0
   34.9310  -21.3059   38.5609 H   0  0  0  0  0  0  0  0  0  0  0  0
   34.6176  -19.6212   35.9546 C   0  0  0  0  0  0  0  0  0  0  0  0
   34.0174  -18.3540   35.8431 C   0  0  0  0  0  0  0  0  0  0  0  0
   32.7099  -18.2045   35.5275 C   0  0  0  0  0  0  0  0  0  0  0  0
   31.9078  -19.3060   35.3006 C   0  0  0  0  0  0  0  0  0  0  0  0
   30.2291  -19.1301   34.8921 Cl  0  0  0  0  0  0  0  0  0  0  0  0
   32.4562  -20.5546   35.3994 C   0  0  0  0  0  0  0  0  0  0  0  0
   33.7962  -20.6782   35.7236 C   0  0  0  0  0  0  0  0  0  0  0  0
   31.6983  -21.7249   35.1703 N   0  0  0  0  0  0  0  0  0  0  0  0
   31.8724  -22.4701   34.0410 O   0  0  0  0  0  0  0  0  0  0  0  0
   30.8572  -22.0871   36.0074 O   0  0  0  0  0  0  0  0  0  0  0  0
   37.1200  -17.7504   33.8383 C   0  0  0  0  0  0  0  0  0  0  0  0
   36.8362  -19.2452   34.0325 C   0  0  0  0  0  0  0  0  0  0  0  0
 23 24  1  0  0  0
 24  1  1  0  0  0
  1  2  2  0  0  0
  2  3  1  0  0  0
  3  4  1  0  0  0
  3  5  2  0  0  0
  5  6  1  0  0  0
  6  7  1  0  0  0
  6  8  2  0  0  0
  8 13  1  0  0  0
 13 14  2  0  0  0
 14 15  1  0  0  0
 15 16  2  0  0  0
 16 17  1  0  0  0
 16 18  1  0  0  0
 18 19  2  0  0  0
 18 20  1  0  0  0
 20 21  1  0  0  0
 20 22  2  0  0  0
  8  1  1  0  0  0
 19 13  1  0  0  0
  4  9  1  0  0  0
  4 10  1  0  0  0
  7 11  1  0  0  0
  7 12  1  0  0  0
M  CHG 1  20   1
M  CHG 1  21  -1
M  END
> <minimizedAffinity>
-4.38048

> <CNNscore>
0.2661007047

> <CNNaffinity>
4.3155317307

> <CNN_VS>
1.1483660936

> <CNNaffinity_variance>
0.0635275990

$$$$
[H]OC(=O)C([H])([H])n1c([H])c(C(=O)OC2([H])C([H])([H])C3([H])N(C([H])([H])[H])C([H])(C([H])([H])C3([H])[H])C2([H])[H])c2c([H])c([H])c([H])c([H])c21


 26 29  0  0  0  0  0  0  0  0999 V2000
   33.6174  -19.3530   35.9397 C   0  0  0  0  0  0  0  0  0  0  0  0
   33.9573  -20.3879   36.7930 C   0  0  0  0  0  0  0  0  0  0  0  0
   32.9150  -21.1694   37.0111 N   0  0  0  0  0  0  0  0  0  0  0  0
   31.8922  -20.6644   36.3129 C   0  0  0  0  0  0  0  0  0  0  0  0
   30.5835  -21.1395   36.2206 C   0  0  0  0  0  0  0  0  0  0  0  0
   29.6931  -20.4588   35.4363 C   0  0  0  0  0  0  0  0  0  0  0  0
   30.1088  -19.3136   34.7514 C   0  0  0  0  0  0  0  0  0  0  0  0
   31.4153  -18.8498   34.8509 C   0  0  0  0  0  0  0  0  0  0  0  0
   32.2849  -19.5379   35.6332 C   0  0  0  0  0  0  0  0  0  0  0  0
   34.5080  -18.2885   35.5100 C   0  0  0  0  0  0  0  0  0  0  0  0
   34.3039  -17.1324   35.8845 O   0  0  0  0  0  0  0  0  0  0  0  0
   35.5799  -18.5459   34.6824 O   0  0  0  0  0  0  0  0  0  0  0  0
   40.8549  -18.9914   35.6544 C   0  0  0  0  0  0  0  0  0  0  0  0
   39.4573  -18.9173   35.3971 N   0  0  0  0  0  0  0  0  0  0  0  0
   39.1285  -18.8023   33.9894 C   0  0  0  0  0  0  0  0  0  0  0  0
   39.0276  -20.1937   33.4484 C   0  0  0  0  0  0  0  0  0  0  0  0
   39.2100  -21.0802   34.6828 C   0  0  0  0  0  0  0  0  0  0  0  0
   38.7718  -20.1267   35.7740 C   0  0  0  0  0  0  0  0  0  0  0  0
   37.2635  -19.9494   35.6317 C   0  0  0  0  0  0  0  0  0  0  0  0
   36.9105  -18.6001   35.1207 C   0  0  0  0  0  0  0  0  0  0  0  0
   37.7617  -18.1702   33.9434 C   0  0  0  0  0  0  0  0  0  0  0  0
   32.8738  -22.3529   37.8488 C   0  0  0  0  0  0  0  0  0  0  0  0
   33.1793  -23.5473   37.0177 C   0  0  0  0  0  0  0  0  0  0  0  0
   34.3994  -23.7098   36.3740 O   0  0  0  0  0  0  0  0  0  0  0  0
   32.2954  -24.4343   36.8974 O   0  0  0  0  0  0  0  0  0  0  0  0
   34.5021  -23.9912   35.4001 H   0  0  0  0  0  0  0  0  0  0  0  0
 13 14  1  0  0  0
 14 15  1  0  0  0
 15 16  1  0  0  0
 16 17  1  0  0  0
 17 18  1  0  0  0
 18 19  1  0  0  0
 19 20  1  0  0  0
 20 21  1  0  0  0
 20 12  1  0  0  0
 12 10  1  0  0  0
 10 11  2  0  0  0
 10  1  1  0  0  0
  1  2  2  0  0  0
  2  3  1  0  0  0
  3 22  1  0  0  0
 22 23  1  0  0  0
 23 24  1  0  0  0
 23 25  2  0  0  0
  3  4  1  0  0  0
  4  5  2  0  0  0
  5  6  1  0  0  0
  6  7  2  0  0  0
  7  8  1  0  0  0
  8  9  2  0  0  0
 18 14  1  0  0  0
  9  1  1  0  0  0
 21 15  1  0  0  0
  9  4  1  0  0  0
 24 26  1  0  0  0
M  END
> <minimizedAffinity>
-5.48333

> <CNNscore>
0.4232453108

> <CNNaffinity>
4.2695150375

> <CNN_VS>
1.8070522547

> <CNNaffinity_variance>
0.2997523546

$$$$
[H]OC(=O)C([H])([H])n1c([H])c(C(=O)OC2([H])C([H])([H])C3([H])N(C([H])([H])[H])C([H])(C([H])([H])C3([H])[H])C2([H])[H])c2c([H])c([H])c([H])c([H])c21


 26 29  0  0  0  0  0  0  0  0999 V2000
   36.1401  -18.1468   36.4391 C   0  0  0  0  0  0  0  0  0  0  0  0
   35.2089  -18.5487   35.4978 C   0  0  0  0  0  0  0  0  0  0  0  0
   34.3922  -17.5541   35.2006 N   0  0  0  0  0  0  0  0  0  0  0  0
   34.7724  -16.5013   35.9326 C   0  0  0  0  0  0  0  0  0  0  0  0
   34.2198  -15.2205   35.9663 C   0  0  0  0  0  0  0  0  0  0  0  0
   34.7777  -14.2878   36.7970 C   0  0  0  0  0  0  0  0  0  0  0  0
   35.8779  -14.6341   37.5864 C   0  0  0  0  0  0  0  0  0  0  0  0
   36.4199  -15.9134   37.5443 C   0  0  0  0  0  0  0  0  0  0  0  0
   35.8536  -16.8256   36.7141 C   0  0  0  0  0  0  0  0  0  0  0  0
   37.1704  -18.9915   37.0188 C   0  0  0  0  0  0  0  0  0  0  0  0
   36.8644  -19.8392   37.8592 O   0  0  0  0  0  0  0  0  0  0  0  0
   38.4920  -18.8595   36.6499 O   0  0  0  0  0  0  0  0  0  0  0  0
   41.5689  -21.6353   33.2153 C   0  0  0  0  0  0  0  0  0  0  0  0
   40.7585  -20.8666   34.0970 N   0  0  0  0  0  0  0  0  0  0  0  0
   41.5026  -20.2257   35.1639 C   0  0  0  0  0  0  0  0  0  0  0  0
   41.9681  -18.9037   34.6401 C   0  0  0  0  0  0  0  0  0  0  0  0
   41.3296  -18.8150   33.2519 C   0  0  0  0  0  0  0  0  0  0  0  0
   40.1480  -19.7441   33.4322 C   0  0  0  0  0  0  0  0  0  0  0  0
   39.1674  -19.0421   34.3660 C   0  0  0  0  0  0  0  0  0  0  0  0
   39.1260  -19.6804   35.7067 C   0  0  0  0  0  0  0  0  0  0  0  0
   40.5027  -19.9800   36.2637 C   0  0  0  0  0  0  0  0  0  0  0  0
   33.2871  -17.5854   34.2615 C   0  0  0  0  0  0  0  0  0  0  0  0
   32.2758  -18.5678   34.7339 C   0  0  0  0  0  0  0  0  0  0  0  0
   31.5167  -18.3577   35.8780 O   0  0  0  0  0  0  0  0  0  0  0  0
   32.1111  -19.6231   34.0695 O   0  0  0  0  0  0  0  0  0  0  0  0
   31.3705  -19.0551   36.6065 H   0  0  0  0  0  0  0  0  0  0  0  0
 13 14  1  0  0  0
 14 15  1  0  0  0
 15 16  1  0  0  0
 16 17  1  0  0  0
 17 18  1  0  0  0
 18 19  1  0  0  0
 19 20  1  0  0  0
 20 21  1  0  0  0
 20 12  1  0  0  0
 12 10  1  0  0  0
 10 11  2  0  0  0
 10  1  1  0  0  0
  1  2  2  0  0  0
  2  3  1  0  0  0
  3 22  1  0  0  0
 22 23  1  0  0  0
 23 24  1  0  0  0
 23 25  2  0  0  0
  3  4  1  0  0  0
  4  5  2  0  0  0
  5  6  1  0  0  0
  6  7  2  0  0  0
  7  8  1  0  0  0
  8  9  2  0  0  0
 18 14  1  0  0  0
  9  1  1  0  0  0
 21 15  1  0  0  0
  9  4  1  0  0  0
 24 26  1  0  0  0
M  END
> <minimizedAffinity>
-7.04906

> <CNNscore>
0.3929314315

> <CNNaffinity>
4.4755926132

> <CNN_VS>
1.7586010695

> <CNNaffinity_variance>
0.3959571421

$$$$
[H]OC(=O)C([H])([H])n1c([H])c(C(=O)OC2([H])C([H])([H])C3([H])N(C([H])([H])[H])C([H])(C([H])([H])C3([H])[H])C2([H])[H])c2c([H])c([H])c([H])c([H])c21


 26 29  0  0  0  0  0  0  0  0999 V2000
   34.3016  -19.2929   36.2741 C   0  0  0  0  0  0  0  0  0  0  0  0
   34.6057  -20.4313   36.9994 C   0  0  0  0  0  0  0  0  0  0  0  0
   33.5547  -21.2280   37.0729 N   0  0  0  0  0  0  0  0  0  0  0  0
   32.5615  -20.6308   36.4053 C   0  0  0  0  0  0  0  0  0  0  0  0
   31.2572  -21.0820   36.2001 C   0  0  0  0  0  0  0  0  0  0  0  0
   30.3998  -20.3004   35.4753 C   0  0  0  0  0  0  0  0  0  0  0  0
   30.8440  -19.0789   34.9612 C   0  0  0  0  0  0  0  0  0  0  0  0
   32.1459  -18.6399   35.1721 C   0  0  0  0  0  0  0  0  0  0  0  0
   32.9824  -19.4285   35.8932 C   0  0  0  0  0  0  0  0  0  0  0  0
   35.2098  -18.1873   36.0215 C   0  0  0  0  0  0  0  0  0  0  0  0
   35.9401  -18.2108   35.0293 O   0  0  0  0  0  0  0  0  0  0  0  0
   35.2759  -17.1087   36.8773 O   0  0  0  0  0  0  0  0  0  0  0  0
   35.3071  -11.8083   35.9426 C   0  0  0  0  0  0  0  0  0  0  0  0
   35.2550  -13.2089   36.1888 N   0  0  0  0  0  0  0  0  0  0  0  0
   35.2994  -13.5560   37.5961 C   0  0  0  0  0  0  0  0  0  0  0  0
   33.8888  -13.5425   38.0949 C   0  0  0  0  0  0  0  0  0  0  0  0
   33.0585  -13.2770   36.8367 C   0  0  0  0  0  0  0  0  0  0  0  0
   34.0040  -13.7869   35.7700 C   0  0  0  0  0  0  0  0  0  0  0  0
   34.0488  -15.3056   35.9031 C   0  0  0  0  0  0  0  0  0  0  0  0
   35.3475  -15.7753   36.4503 C   0  0  0  0  0  0  0  0  0  0  0  0
   35.8121  -14.9717   37.6477 C   0  0  0  0  0  0  0  0  0  0  0  0
   33.4786  -22.5094   37.7484 C   0  0  0  0  0  0  0  0  0  0  0  0
   33.8193  -23.5882   36.7835 C   0  0  0  0  0  0  0  0  0  0  0  0
   35.1276  -23.8531   36.3998 O   0  0  0  0  0  0  0  0  0  0  0  0
   32.8836  -24.2775   36.3021 O   0  0  0  0  0  0  0  0  0  0  0  0
   35.4275  -23.9867   35.4351 H   0  0  0  0  0  0  0  0  0  0  0  0
 13 14  1  0  0  0
 14 15  1  0  0  0
 15 16  1  0  0  0
 16 17  1  0  0  0
 17 18  1  0  0  0
 18 19  1  0  0  0
 19 20  1  0  0  0
 20 21  1  0  0  0
 20 12  1  0  0  0
 12 10  1  0  0  0
 10 11  2  0  0  0
 10  1  1  0  0  0
  1  2  2  0  0  0
  2  3  1  0  0  0
  3 22  1  0  0  0
 22 23  1  0  0  0
 23 24  1  0  0  0
 23 25  2  0  0  0
  3  4  1  0  0  0
  4  5  2  0  0  0
  5  6  1  0  0  0
  6  7  2  0  0  0
  7  8  1  0  0  0
  8  9  2  0  0  0
 18 14  1  0  0  0
  9  1  1  0  0  0
 21 15  1  0  0  0
  9  4  1  0  0  0
 24 26  1  0  0  0
M  END
> <minimizedAffinity>
-6.17277

> <CNNscore>
0.3367691934

> <CNNaffinity>
4.6821560860

> <CNN_VS>
1.5768059492

> <CNNaffinity_variance>
0.1469568163

$$$$
[H]OC(=O)C([H])([H])n1c([H])c(C(=O)OC2([H])C([H])([H])C3([H])N(C([H])([H])[H])C([H])(C([H])([H])C3([H])[H])C2([H])[H])c2c([H])c([H])c([H])c([H])c21


 26 29  0  0  0  0  0  0  0  0999 V2000
   31.6390  -21.4194   34.7005 C   0  0  0  0  0  0  0  0  0  0  0  0
   32.0714  -22.7315   34.6234 C   0  0  0  0  0  0  0  0  0  0  0  0
   31.2368  -23.5323   35.2612 N   0  0  0  0  0  0  0  0  0  0  0  0
   30.2593  -22.7663   35.7575 C   0  0  0  0  0  0  0  0  0  0  0  0
   29.1463  -23.1528   36.5050 C   0  0  0  0  0  0  0  0  0  0  0  0
   28.2629  -22.1902   36.9106 C   0  0  0  0  0  0  0  0  0  0  0  0
   28.4919  -20.8538   36.5713 C   0  0  0  0  0  0  0  0  0  0  0  0
   29.6043  -20.4807   35.8260 C   0  0  0  0  0  0  0  0  0  0  0  0
   30.4697  -21.4491   35.4322 C   0  0  0  0  0  0  0  0  0  0  0  0
   32.3294  -20.2705   34.1397 C   0  0  0  0  0  0  0  0  0  0  0  0
   31.7161  -19.4800   33.4206 O   0  0  0  0  0  0  0  0  0  0  0  0
   33.6662  -20.0485   34.3926 O   0  0  0  0  0  0  0  0  0  0  0  0
   36.3315  -15.6525   35.9864 C   0  0  0  0  0  0  0  0  0  0  0  0
   35.6431  -16.8364   35.5995 N   0  0  0  0  0  0  0  0  0  0  0  0
   36.3709  -17.6485   34.6436 C   0  0  0  0  0  0  0  0  0  0  0  0
   37.2513  -18.5673   35.4306 C   0  0  0  0  0  0  0  0  0  0  0  0
   36.8703  -18.2820   36.8853 C   0  0  0  0  0  0  0  0  0  0  0  0
   35.4664  -17.7458   36.7024 C   0  0  0  0  0  0  0  0  0  0  0  0
   34.5904  -18.9228   36.2859 C   0  0  0  0  0  0  0  0  0  0  0  0
   34.1815  -18.8316   34.8607 C   0  0  0  0  0  0  0  0  0  0  0  0
   35.3275  -18.4738   33.9366 C   0  0  0  0  0  0  0  0  0  0  0  0
   31.3490  -24.9713   35.4051 C   0  0  0  0  0  0  0  0  0  0  0  0
   32.3115  -25.2768   36.4964 C   0  0  0  0  0  0  0  0  0  0  0  0
   31.9733  -25.1559   37.8382 O   0  0  0  0  0  0  0  0  0  0  0  0
   33.4700  -25.6546   36.1839 O   0  0  0  0  0  0  0  0  0  0  0  0
   32.5515  -24.6913   38.5368 H   0  0  0  0  0  0  0  0  0  0  0  0
 13 14  1  0  0  0
 14 15  1  0  0  0
 15 16  1  0  0  0
 16 17  1  0  0  0
 17 18  1  0  0  0
 18 19  1  0  0  0
 19 20  1  0  0  0
 20 21  1  0  0  0
 20 12  1  0  0  0
 12 10  1  0  0  0
 10 11  2  0  0  0
 10  1  1  0  0  0
  1  2  2  0  0  0
  2  3  1  0  0  0
  3 22  1  0  0  0
 22 23  1  0  0  0
 23 24  1  0  0  0
 23 25  2  0  0  0
  3  4  1  0  0  0
  4  5  2  0  0  0
  5  6  1  0  0  0
  6  7  2  0  0  0
  7  8  1  0  0  0
  8  9  2  0  0  0
 18 14  1  0  0  0
  9  1  1  0  0  0
 21 15  1  0  0  0
  9  4  1  0  0  0
 24 26  1  0  0  0
M  END
> <minimizedAffinity>
-5.45154

> <CNNscore>
0.3197447360

> <CNNaffinity>
4.0789518356

> <CNN_VS>
1.3042234182

> <CNNaffinity_variance>
0.4342829585

$$$$
[H]OC(=O)C([H])([H])n1c([H])c(C(=O)OC2([H])C([H])([H])C3([H])N(C([H])([H])[H])C([H])(C([H])([H])C3([H])[H])C2([H])[H])c2c([H])c([H])c([H])c([H])c21


 26 29  0  0  0  0  0  0  0  0999 V2000
   34.0805  -13.7373   36.9090 C   0  0  0  0  0  0  0  0  0  0  0  0
   33.5923  -14.9547   36.4683 C   0  0  0  0  0  0  0  0  0  0  0  0
   34.5692  -15.8387   36.3745 N   0  0  0  0  0  0  0  0  0  0  0  0
   35.6952  -15.2212   36.7479 C   0  0  0  0  0  0  0  0  0  0  0  0
   36.9888  -15.7393   36.8183 C   0  0  0  0  0  0  0  0  0  0  0  0
   38.0014  -14.9192   37.2349 C   0  0  0  0  0  0  0  0  0  0  0  0
   37.7215  -13.5934   37.5774 C   0  0  0  0  0  0  0  0  0  0  0  0
   36.4286  -13.0884   37.5034 C   0  0  0  0  0  0  0  0  0  0  0  0
   35.4367  -13.9165   37.0884 C   0  0  0  0  0  0  0  0  0  0  0  0
   33.2921  -12.5312   37.0955 C   0  0  0  0  0  0  0  0  0  0  0  0
   33.8591  -11.4467   37.2397 O   0  0  0  0  0  0  0  0  0  0  0  0
   31.9146  -12.5763   37.1203 O   0  0  0  0  0  0  0  0  0  0  0  0
   28.4121  -10.2207   40.4598 C   0  0  0  0  0  0  0  0  0  0  0  0
   29.3088  -10.8398   39.5445 N   0  0  0  0  0  0  0  0  0  0  0  0
   29.2401  -12.2883   39.5498 C   0  0  0  0  0  0  0  0  0  0  0  0
   28.1736  -12.6795   38.5760 C   0  0  0  0  0  0  0  0  0  0  0  0
   27.7427  -11.3499   37.9519 C   0  0  0  0  0  0  0  0  0  0  0  0
   28.9908  -10.5230   38.1759 C   0  0  0  0  0  0  0  0  0  0  0  0
   30.0630  -11.0719   37.2402 C   0  0  0  0  0  0  0  0  0  0  0  0
   31.1226  -11.8033   37.9810 C   0  0  0  0  0  0  0  0  0  0  0  0
   30.5693  -12.7583   39.0189 C   0  0  0  0  0  0  0  0  0  0  0  0
   34.4558  -17.2201   35.9468 C   0  0  0  0  0  0  0  0  0  0  0  0
   33.2290  -17.3738   35.1207 C   0  0  0  0  0  0  0  0  0  0  0  0
   32.9268  -16.5107   34.0752 O   0  0  0  0  0  0  0  0  0  0  0  0
   32.4431  -18.3192   35.3870 O   0  0  0  0  0  0  0  0  0  0  0  0
   32.0130  -16.0845   33.9280 H   0  0  0  0  0  0  0  0  0  0  0  0
 13 14  1  0  0  0
 14 15  1  0  0  0
 15 16  1  0  0  0
 16 17  1  0  0  0
 17 18  1  0  0  0
 18 19  1  0  0  0
 19 20  1  0  0  0
 20 21  1  0  0  0
 20 12  1  0  0  0
 12 10  1  0  0  0
 10 11  2  0  0  0
 10  1  1  0  0  0
  1  2  2  0  0  0
  2  3  1  0  0  0
  3 22  1  0  0  0
 22 23  1  0  0  0
 23 24  1  0  0  0
 23 25  2  0  0  0
  3  4  1  0  0  0
  4  5  2  0  0  0
  5  6  1  0  0  0
  6  7  2  0  0  0
  7  8  1  0  0  0
  8  9  2  0  0  0
 18 14  1  0  0  0
  9  1  1  0  0  0
 21 15  1  0  0  0
  9  4  1  0  0  0
 24 26  1  0  0  0
M  END
> <minimizedAffinity>
-6.90025

> <CNNscore>
0.3183390796

> <CNNaffinity>
4.8856143951

> <CNN_VS>
1.5552819967

> <CNNaffinity_variance>
0.2140326798

$$$$
[H]OC(=O)C([H])([H])n1c([H])c(C(=O)OC2([H])C([H])([H])C3([H])N(C([H])([H])[H])C([H])(C([H])([H])C3([H])[H])C2([H])[H])c2c([H])c([H])c([H])c([H])c21


 26 29  0  0  0  0  0  0  0  0999 V2000
   36.1136  -18.5076   36.4692 C   0  0  0  0  0  0  0  0  0  0  0  0
   35.1341  -18.8261   35.5451 C   0  0  0  0  0  0  0  0  0  0  0  0
   34.3926  -17.7675   35.2730 N   0  0  0  0  0  0  0  0  0  0  0  0
   34.8698  -16.7548   36.0046 C   0  0  0  0  0  0  0  0  0  0  0  0
   34.4210  -15.4348   36.0599 C   0  0  0  0  0  0  0  0  0  0  0  0
   35.0680  -14.5567   36.8855 C   0  0  0  0  0  0  0  0  0  0  0  0
   36.1535  -14.9960   37.6486 C   0  0  0  0  0  0  0  0  0  0  0  0
   36.5917  -16.3136   37.5851 C   0  0  0  0  0  0  0  0  0  0  0  0
   35.9381  -17.1705   36.7604 C   0  0  0  0  0  0  0  0  0  0  0  0
   37.0857  -19.4362   37.0202 C   0  0  0  0  0  0  0  0  0  0  0  0
   36.8876  -19.9441   38.1252 O   0  0  0  0  0  0  0  0  0  0  0  0
   38.2349  -19.7583   36.3305 O   0  0  0  0  0  0  0  0  0  0  0  0
   43.1952  -17.6708   36.4146 C   0  0  0  0  0  0  0  0  0  0  0  0
   41.8987  -18.2575   36.4144 N   0  0  0  0  0  0  0  0  0  0  0  0
   41.6106  -19.0358   35.2253 C   0  0  0  0  0  0  0  0  0  0  0  0
   42.1027  -20.4253   35.4818 C   0  0  0  0  0  0  0  0  0  0  0  0
   42.5757  -20.3830   36.9370 C   0  0  0  0  0  0  0  0  0  0  0  0
   41.7447  -19.2324   37.4635 C   0  0  0  0  0  0  0  0  0  0  0  0
   40.3006  -19.7190   37.5293 C   0  0  0  0  0  0  0  0  0  0  0  0
   39.4546  -19.0847   36.4860 C   0  0  0  0  0  0  0  0  0  0  0  0
   40.1082  -19.0716   35.1193 C   0  0  0  0  0  0  0  0  0  0  0  0
   33.2692  -17.7029   34.3576 C   0  0  0  0  0  0  0  0  0  0  0  0
   32.2794  -18.7486   34.7286 C   0  0  0  0  0  0  0  0  0  0  0  0
   32.0042  -19.8335   33.9060 O   0  0  0  0  0  0  0  0  0  0  0  0
   31.6741  -18.6371   35.8256 O   0  0  0  0  0  0  0  0  0  0  0  0
   31.0654  -20.1535   33.6722 H   0  0  0  0  0  0  0  0  0  0  0  0
 13 14  1  0  0  0
 14 15  1  0  0  0
 15 16  1  0  0  0
 16 17  1  0  0  0
 17 18  1  0  0  0
 18 19  1  0  0  0
 19 20  1  0  0  0
 20 21  1  0  0  0
 20 12  1  0  0  0
 12 10  1  0  0  0
 10 11  2  0  0  0
 10  1  1  0  0  0
  1  2  2  0  0  0
  2  3  1  0  0  0
  3 22  1  0  0  0
 22 23  1  0  0  0
 23 24  1  0  0  0
 23 25  2  0  0  0
  3  4  1  0  0  0
  4  5  2  0  0  0
  5  6  1  0  0  0
  6  7  2  0  0  0
  7  8  1  0  0  0
  8  9  2  0  0  0
 18 14  1  0  0  0
  9  1  1  0  0  0
 21 15  1  0  0  0
  9  4  1  0  0  0
 24 26  1  0  0  0
M  END
> <minimizedAffinity>
-6.48399

> <CNNscore>
0.3128224909

> <CNNaffinity>
4.3534822464

> <CNN_VS>
1.3618671894

> <CNNaffinity_variance>
0.6281863451

$$$$
[H]OC(=O)C([H])([H])n1c([H])c(C(=O)OC2([H])C([H])([H])C3([H])N(C([H])([H])[H])C([H])(C([H])([H])C3([H])[H])C2([H])[H])c2c([H])c([H])c([H])c([H])c21


 26 29  0  0  0  0  0  0  0  0999 V2000
   33.8068  -12.3745   37.5252 C   0  0  0  0  0  0  0  0  0  0  0  0
   32.6667  -13.0066   37.9892 C   0  0  0  0  0  0  0  0  0  0  0  0
   31.6782  -12.1405   38.1206 N   0  0  0  0  0  0  0  0  0  0  0  0
   32.1505  -10.9457   37.7491 C   0  0  0  0  0  0  0  0  0  0  0  0
   31.4840   -9.7204   37.7120 C   0  0  0  0  0  0  0  0  0  0  0  0
   32.1694   -8.6142   37.2904 C   0  0  0  0  0  0  0  0  0  0  0  0
   33.5090   -8.7335   36.9099 C   0  0  0  0  0  0  0  0  0  0  0  0
   34.1625   -9.9596   36.9510 C   0  0  0  0  0  0  0  0  0  0  0  0
   33.4667  -11.0462   37.3716 C   0  0  0  0  0  0  0  0  0  0  0  0
   35.0908  -13.0147   37.2959 C   0  0  0  0  0  0  0  0  0  0  0  0
   36.0301  -12.3565   36.8455 O   0  0  0  0  0  0  0  0  0  0  0  0
   35.2793  -14.3528   37.5681 O   0  0  0  0  0  0  0  0  0  0  0  0
   37.0361  -18.2564   34.3055 C   0  0  0  0  0  0  0  0  0  0  0  0
   36.5812  -17.2497   35.2026 N   0  0  0  0  0  0  0  0  0  0  0  0
   35.1554  -17.3000   35.4616 C   0  0  0  0  0  0  0  0  0  0  0  0
   34.9518  -18.2384   36.6091 C   0  0  0  0  0  0  0  0  0  0  0  0
   36.3745  -18.6092   37.0351 C   0  0  0  0  0  0  0  0  0  0  0  0
   37.1380  -17.4071   36.5216 C   0  0  0  0  0  0  0  0  0  0  0  0
   36.7544  -16.2246   37.4053 C   0  0  0  0  0  0  0  0  0  0  0  0
   35.8944  -15.2510   36.6847 C   0  0  0  0  0  0  0  0  0  0  0  0
   34.7755  -15.9113   35.9053 C   0  0  0  0  0  0  0  0  0  0  0  0
   30.3314  -12.4193   38.5815 C   0  0  0  0  0  0  0  0  0  0  0  0
   30.4009  -13.1028   39.9002 C   0  0  0  0  0  0  0  0  0  0  0  0
   31.2425  -12.6687   40.9163 O   0  0  0  0  0  0  0  0  0  0  0  0
   29.6706  -14.1089   40.0917 O   0  0  0  0  0  0  0  0  0  0  0  0
   31.8498  -13.2804   41.4599 H   0  0  0  0  0  0  0  0  0  0  0  0
 13 14  1  0  0  0
 14 15  1  0  0  0
 15 16  1  0  0  0
 16 17  1  0  0  0
 17 18  1  0  0  0
 18 19  1  0  0  0
 19 20  1  0  0  0
 20 21  1  0  0  0
 20 12  1  0  0  0
 12 10  1  0  0  0
 10 11  2  0  0  0
 10  1  1  0  0  0
  1  2  2  0  0  0
  2  3  1  0  0  0
  3 22  1  0  0  0
 22 23  1  0  0  0
 23 24  1  0  0  0
 23 25  2  0  0  0
  3  4  1  0  0  0
  4  5  2  0  0  0
  5  6  1  0  0  0
  6  7  2  0  0  0
  7  8  1  0  0  0
  8  9  2  0  0  0
 18 14  1  0  0  0
  9  1  1  0  0  0
 21 15  1  0  0  0
  9  4  1  0  0  0
 24 26  1  0  0  0
M  END
> <minimizedAffinity>
-8.32885

> <CNNscore>
0.3092556894

> <CNNaffinity>
5.2601523399

> <CNN_VS>
1.6267319918

> <CNNaffinity_variance>
0.1326745450

$$$$
[H]OC(=O)C([H])([H])n1c([H])c(C(=O)OC2([H])C([H])([H])C3([H])N(C([H])([H])[H])C([H])(C([H])([H])C3([H])[H])C2([H])[H])c2c([H])c([H])c([H])c([H])c21


 26 29  0  0  0  0  0  0  0  0999 V2000
   36.4660  -17.8244   35.1945 C   0  0  0  0  0  0  0  0  0  0  0  0
   35.3756  -18.5058   34.6834 C   0  0  0  0  0  0  0  0  0  0  0  0
   34.2664  -17.8148   34.8750 N   0  0  0  0  0  0  0  0  0  0  0  0
   34.6103  -16.6864   35.5052 C   0  0  0  0  0  0  0  0  0  0  0  0
   33.7892  -15.6374   35.9204 C   0  0  0  0  0  0  0  0  0  0  0  0
   34.3620  -14.5672   36.5513 C   0  0  0  0  0  0  0  0  0  0  0  0
   35.7432  -14.5477   36.7646 C   0  0  0  0  0  0  0  0  0  0  0  0
   36.5511  -15.5986   36.3464 C   0  0  0  0  0  0  0  0  0  0  0  0
   35.9656  -16.6518   35.7220 C   0  0  0  0  0  0  0  0  0  0  0  0
   37.8377  -18.3033   35.1872 C   0  0  0  0  0  0  0  0  0  0  0  0
   38.4346  -18.4312   34.1168 O   0  0  0  0  0  0  0  0  0  0  0  0
   38.4871  -18.6249   36.3598 O   0  0  0  0  0  0  0  0  0  0  0  0
   40.6289  -23.5315   36.9146 C   0  0  0  0  0  0  0  0  0  0  0  0
   40.0373  -22.2496   36.7357 N   0  0  0  0  0  0  0  0  0  0  0  0
   40.7826  -21.3824   35.8440 C   0  0  0  0  0  0  0  0  0  0  0  0
   40.2984  -21.6614   34.4561 C   0  0  0  0  0  0  0  0  0  0  0  0
   39.1552  -22.6584   34.6611 C   0  0  0  0  0  0  0  0  0  0  0  0
   38.7554  -22.3304   36.0839 C   0  0  0  0  0  0  0  0  0  0  0  0
   38.0866  -20.9599   36.0544 C   0  0  0  0  0  0  0  0  0  0  0  0
   38.9401  -19.9140   36.6741 C   0  0  0  0  0  0  0  0  0  0  0  0
   40.3832  -19.9786   36.2176 C   0  0  0  0  0  0  0  0  0  0  0  0
   32.9232  -18.1972   34.4830 C   0  0  0  0  0  0  0  0  0  0  0  0
   32.2634  -18.8897   35.6213 C   0  0  0  0  0  0  0  0  0  0  0  0
   32.9863  -19.5516   36.6055 O   0  0  0  0  0  0  0  0  0  0  0  0
   31.0072  -18.8721   35.6853 O   0  0  0  0  0  0  0  0  0  0  0  0
   32.7707  -20.4879   36.9449 H   0  0  0  0  0  0  0  0  0  0  0  0
 13 14  1  0  0  0
 14 15  1  0  0  0
 15 16  1  0  0  0
 16 17  1  0  0  0
 17 18  1  0  0  0
 18 19  1  0  0  0
 19 20  1  0  0  0
 20 21  1  0  0  0
 20 12  1  0  0  0
 12 10  1  0  0  0
 10 11  2  0  0  0
 10  1  1  0  0  0
  1  2  2  0  0  0
  2  3  1  0  0  0
  3 22  1  0  0  0
 22 23  1  0  0  0
 23 24  1  0  0  0
 23 25  2  0  0  0
  3  4  1  0  0  0
  4  5  2  0  0  0
  5  6  1  0  0  0
  6  7  2  0  0  0
  7  8  1  0  0  0
  8  9  2  0  0  0
 18 14  1  0  0  0
  9  1  1  0  0  0
 21 15  1  0  0  0
  9  4  1  0  0  0
 24 26  1  0  0  0
M  END
> <minimizedAffinity>
-5.94881

> <CNNscore>
0.2775120139

> <CNNaffinity>
4.3714165688

> <CNN_VS>
1.2131205797

> <CNNaffinity_variance>
0.4309073985

$$$$
[H]OC(=O)C([H])([H])n1c([H])c(C(=O)OC2([H])C([H])([H])C3([H])N(C([H])([H])[H])C([H])(C([H])([H])C3([H])[H])C2([H])[H])c2c([H])c([H])c([H])c([H])c21


 26 29  0  0  0  0  0  0  0  0999 V2000
   35.3415  -18.5158   36.8611 C   0  0  0  0  0  0  0  0  0  0  0  0
   35.1386  -19.6430   37.6377 C   0  0  0  0  0  0  0  0  0  0  0  0
   34.0736  -20.3052   37.2232 N   0  0  0  0  0  0  0  0  0  0  0  0
   33.5713  -19.6304   36.1834 C   0  0  0  0  0  0  0  0  0  0  0  0
   32.4516  -19.9346   35.4084 C   0  0  0  0  0  0  0  0  0  0  0  0
   32.1189  -19.0959   34.3802 C   0  0  0  0  0  0  0  0  0  0  0  0
   32.8995  -17.9637   34.1305 C   0  0  0  0  0  0  0  0  0  0  0  0
   34.0130  -17.6710   34.9094 C   0  0  0  0  0  0  0  0  0  0  0  0
   34.3281  -18.5144   35.9249 C   0  0  0  0  0  0  0  0  0  0  0  0
   36.4004  -17.5398   37.0535 C   0  0  0  0  0  0  0  0  0  0  0  0
   36.2334  -16.6032   37.8366 O   0  0  0  0  0  0  0  0  0  0  0  0
   37.5932  -17.6373   36.3694 O   0  0  0  0  0  0  0  0  0  0  0  0
   40.1141  -21.8884   34.2383 C   0  0  0  0  0  0  0  0  0  0  0  0
   39.4570  -20.7416   34.7656 N   0  0  0  0  0  0  0  0  0  0  0  0
   40.3046  -19.9187   35.6066 C   0  0  0  0  0  0  0  0  0  0  0  0
   41.0049  -18.9495   34.7072 C   0  0  0  0  0  0  0  0  0  0  0  0
   40.3950  -19.2222   33.3300 C   0  0  0  0  0  0  0  0  0  0  0  0
   39.0631  -19.8192   33.7318 C   0  0  0  0  0  0  0  0  0  0  0  0
   38.2265  -18.6874   34.3196 C   0  0  0  0  0  0  0  0  0  0  0  0
   38.0673  -18.8228   35.7902 C   0  0  0  0  0  0  0  0  0  0  0  0
   39.3652  -19.1508   36.4996 C   0  0  0  0  0  0  0  0  0  0  0  0
   33.5383  -21.5318   37.7826 C   0  0  0  0  0  0  0  0  0  0  0  0
   33.9782  -22.6797   36.9461 C   0  0  0  0  0  0  0  0  0  0  0  0
   35.3177  -23.0128   36.7904 O   0  0  0  0  0  0  0  0  0  0  0  0
   33.1002  -23.3651   36.3616 O   0  0  0  0  0  0  0  0  0  0  0  0
   35.7587  -23.2165   35.8947 H   0  0  0  0  0  0  0  0  0  0  0  0
 13 14  1  0  0  0
 14 15  1  0  0  0
 15 16  1  0  0  0
 16 17  1  0  0  0
 17 18  1  0  0  0
 18 19  1  0  0  0
 19 20  1  0  0  0
 20 21  1  0  0  0
 20 12  1  0  0  0
 12 10  1  0  0  0
 10 11  2  0  0  0
 10  1  1  0  0  0
  1  2  2  0  0  0
  2  3  1  0  0  0
  3 22  1  0  0  0
 22 23  1  0  0  0
 23 24  1  0  0  0
 23 25  2  0  0  0
  3  4  1  0  0  0
  4  5  2  0  0  0
  5  6  1  0  0  0
  6  7  2  0  0  0
  7  8  1  0  0  0
  8  9  2  0  0  0
 18 14  1  0  0  0
  9  1  1  0  0  0
 21 15  1  0  0  0
  9  4  1  0  0  0
 24 26  1  0  0  0
M  END
> <minimizedAffinity>
-5.50163

> <CNNscore>
0.2564682364

> <CNNaffinity>
4.0467052460

> <CNN_VS>
1.0378513336

> <CNNaffinity_variance>
0.4800573289

$$$$
[H]c1c([H])c([H])c(C([H])([H])N2[C@@]3([H])C([H])([H])C([H])([H])[C@]2([H])C([H])([H])[C@@]([H])(N([H])C(=O)c2oc4c([H])c([N+](=O)[O-])c([H])c([H])c4c(=O)c2[H])C3([H])[H])c([H])c1[H]


 33 37  0  0  0  0  0  0  0  0999 V2000
   34.2625  -16.6933   35.7355 C   0  0  0  0  0  0  0  0  0  0  0  0
   35.3069  -17.2838   35.3693 O   0  0  0  0  0  0  0  0  0  0  0  0
   33.0165  -17.4076   35.7354 N   0  0  0  0  0  0  0  0  0  0  0  0
   32.1810  -16.8680   36.0492 H   0  0  0  0  0  0  0  0  0  0  0  0
   32.1432  -11.2832   37.2129 C   0  0  0  0  0  0  0  0  0  0  0  0
   33.3625  -10.6881   37.4585 C   0  0  0  0  0  0  0  0  0  0  0  0
   34.5309  -11.4282   37.3068 C   0  0  0  0  0  0  0  0  0  0  0  0
   34.4773  -12.7354   36.9175 C   0  0  0  0  0  0  0  0  0  0  0  0
   33.2520  -13.3191   36.6747 C   0  0  0  0  0  0  0  0  0  0  0  0
   32.0605  -12.5959   36.8202 C   0  0  0  0  0  0  0  0  0  0  0  0
   33.2305  -14.5749   36.3024 O   0  0  0  0  0  0  0  0  0  0  0  0
   34.3366  -15.2969   36.1525 C   0  0  0  0  0  0  0  0  0  0  0  0
   35.5797  -14.7469   36.3862 C   0  0  0  0  0  0  0  0  0  0  0  0
   35.6774  -13.4300   36.7810 C   0  0  0  0  0  0  0  0  0  0  0  0
   36.7851  -12.8925   37.0032 O   0  0  0  0  0  0  0  0  0  0  0  0
   29.7170  -11.0813   37.2506 O   0  0  0  0  0  0  0  0  0  0  0  0
   30.9609  -10.5172   37.3715 N   0  0  0  0  0  0  0  0  0  0  0  0
   31.0101   -9.2952   37.6286 O   0  0  0  0  0  0  0  0  0  0  0  0
   32.9458  -18.7958   35.3202 C   0  0  0  0  0  0  0  0  0  0  0  0
   33.0832  -19.6480   36.5332 C   0  0  0  0  0  0  0  0  0  0  0  0
   32.3204  -20.9476   36.4833 C   0  0  0  0  0  0  0  0  0  0  0  0
   32.8951  -21.8541   35.4197 C   0  0  0  0  0  0  0  0  0  0  0  0
   32.1973  -21.3487   34.1545 C   0  0  0  0  0  0  0  0  0  0  0  0
   31.1372  -20.3992   34.6562 C   0  0  0  0  0  0  0  0  0  0  0  0
   31.6499  -18.9913   34.5805 C   0  0  0  0  0  0  0  0  0  0  0  0
   30.9672  -20.7115   36.0846 N   0  0  0  0  0  0  0  0  0  0  0  0
   30.0899  -21.8294   36.2016 C   0  0  0  0  0  0  0  0  0  0  0  0
   29.0194  -21.6003   37.1987 C   0  0  0  0  0  0  0  0  0  0  0  0
   28.8675  -22.4479   38.2745 C   0  0  0  0  0  0  0  0  0  0  0  0
   27.8774  -22.2527   39.2146 C   0  0  0  0  0  0  0  0  0  0  0  0
   27.0040  -21.1762   39.0837 C   0  0  0  0  0  0  0  0  0  0  0  0
   27.1380  -20.3154   38.0146 C   0  0  0  0  0  0  0  0  0  0  0  0
   28.1339  -20.5398   37.0989 C   0  0  0  0  0  0  0  0  0  0  0  0
 16 17  1  0  0  0
 17 18  2  0  0  0
 17  5  1  0  0  0
  5  6  2  0  0  0
  6  7  1  0  0  0
  7  8  2  0  0  0
  8  9  1  0  0  0
  9 10  2  0  0  0
  9 11  1  0  0  0
 11 12  1  0  0  0
 12 13  2  0  0  0
 13 14  1  0  0  0
 14 15  2  0  0  0
 12  1  1  0  0  0
  1  2  2  0  0  0
  1  3  1  0  0  0
  3 19  1  0  0  0
 19 20  1  0  0  0
 20 21  1  0  0  0
 21 22  1  0  0  0
 22 23  1  0  0  0
 23 24  1  0  0  0
 24 25  1  0  0  0
 24 26  1  0  0  0
 26 27  1  0  0  0
 27 28  1  0  0  0
 28 29  2  0  0  0
 29 30  1  0  0  0
 30 31  2  0  0  0
 31 32  1  0  0  0
 32 33  2  0  0  0
 10  5  1  0  0  0
 25 19  1  0  0  0
 33 28  1  0  0  0
 14  8  1  0  0  0
 26 21  1  0  0  0
  3  4  1  0  0  0
M  CHG 1  16  -1
M  CHG 1  17   1
M  END
> <minimizedAffinity>
-8.62650

> <CNNscore>
0.4855137765

> <CNNaffinity>
5.9088802338

> <CNN_VS>
2.8688428402

> <CNNaffinity_variance>
0.0255289041

$$$$
[H]c1c([H])c([H])c(C([H])([H])N2[C@@]3([H])C([H])([H])C([H])([H])[C@]2([H])C([H])([H])[C@@]([H])(N([H])C(=O)c2oc4c([H])c([N+](=O)[O-])c([H])c([H])c4c(=O)c2[H])C3([H])[H])c([H])c1[H]


 33 37  0  0  0  0  0  0  0  0999 V2000
   33.9291  -16.0067   35.8632 C   0  0  0  0  0  0  0  0  0  0  0  0
   34.6225  -16.8698   36.4531 O   0  0  0  0  0  0  0  0  0  0  0  0
   33.0344  -16.4205   34.8187 N   0  0  0  0  0  0  0  0  0  0  0  0
   32.4828  -15.6616   34.3630 H   0  0  0  0  0  0  0  0  0  0  0  0
   31.9773  -10.5743   37.4825 C   0  0  0  0  0  0  0  0  0  0  0  0
   33.2157   -9.9773   37.5888 C   0  0  0  0  0  0  0  0  0  0  0  0
   34.3615  -10.7207   37.3239 C   0  0  0  0  0  0  0  0  0  0  0  0
   34.2672  -12.0331   36.9606 C   0  0  0  0  0  0  0  0  0  0  0  0
   33.0232  -12.6187   36.8578 C   0  0  0  0  0  0  0  0  0  0  0  0
   31.8538  -11.8921   37.1191 C   0  0  0  0  0  0  0  0  0  0  0  0
   32.9626  -13.8795   36.5073 O   0  0  0  0  0  0  0  0  0  0  0  0
   34.0467  -14.6047   36.2506 C   0  0  0  0  0  0  0  0  0  0  0  0
   35.3075  -14.0530   36.3431 C   0  0  0  0  0  0  0  0  0  0  0  0
   35.4462  -12.7310   36.7069 C   0  0  0  0  0  0  0  0  0  0  0  0
   36.5711  -12.1917   36.8025 O   0  0  0  0  0  0  0  0  0  0  0  0
   29.5906  -10.3904   37.9278 O   0  0  0  0  0  0  0  0  0  0  0  0
   30.8184   -9.8048   37.7555 N   0  0  0  0  0  0  0  0  0  0  0  0
   30.8744   -8.5598   37.8493 O   0  0  0  0  0  0  0  0  0  0  0  0
   32.9196  -17.8149   34.4356 C   0  0  0  0  0  0  0  0  0  0  0  0
   34.2908  -18.3917   34.3761 C   0  0  0  0  0  0  0  0  0  0  0  0
   34.3809  -19.8494   34.7507 C   0  0  0  0  0  0  0  0  0  0  0  0
   33.6590  -20.6998   33.7314 C   0  0  0  0  0  0  0  0  0  0  0  0
   32.2092  -20.6227   34.2166 C   0  0  0  0  0  0  0  0  0  0  0  0
   32.2940  -19.9607   35.5699 C   0  0  0  0  0  0  0  0  0  0  0  0
   32.0144  -18.4936   35.4279 C   0  0  0  0  0  0  0  0  0  0  0  0
   33.7003  -20.0852   35.9864 N   0  0  0  0  0  0  0  0  0  0  0  0
   33.8908  -21.3793   36.5537 C   0  0  0  0  0  0  0  0  0  0  0  0
   34.0556  -21.3282   38.0245 C   0  0  0  0  0  0  0  0  0  0  0  0
   33.3387  -22.1746   38.8421 C   0  0  0  0  0  0  0  0  0  0  0  0
   33.4771  -22.1436   40.2140 C   0  0  0  0  0  0  0  0  0  0  0  0
   34.3599  -21.2392   40.7983 C   0  0  0  0  0  0  0  0  0  0  0  0
   35.0876  -20.3830   39.9988 C   0  0  0  0  0  0  0  0  0  0  0  0
   34.9247  -20.4413   38.6384 C   0  0  0  0  0  0  0  0  0  0  0  0
 16 17  1  0  0  0
 17 18  2  0  0  0
 17  5  1  0  0  0
  5  6  2  0  0  0
  6  7  1  0  0  0
  7  8  2  0  0  0
  8  9  1  0  0  0
  9 10  2  0  0  0
  9 11  1  0  0  0
 11 12  1  0  0  0
 12 13  2  0  0  0
 13 14  1  0  0  0
 14 15  2  0  0  0
 12  1  1  0  0  0
  1  2  2  0  0  0
  1  3  1  0  0  0
  3 19  1  0  0  0
 19 20  1  0  0  0
 20 21  1  0  0  0
 21 22  1  0  0  0
 22 23  1  0  0  0
 23 24  1  0  0  0
 24 25  1  0  0  0
 24 26  1  0  0  0
 26 27  1  0  0  0
 27 28  1  0  0  0
 28 29  2  0  0  0
 29 30  1  0  0  0
 30 31  2  0  0  0
 31 32  1  0  0  0
 32 33  2  0  0  0
 10  5  1  0  0  0
 25 19  1  0  0  0
 33 28  1  0  0  0
 14  8  1  0  0  0
 26 21  1  0  0  0
  3  4  1  0  0  0
M  CHG 1  16  -1
M  CHG 1  17   1
M  END
> <minimizedAffinity>
-6.74115

> <CNNscore>
0.4241840243

> <CNNaffinity>
5.9645047188

> <CNN_VS>
2.5300476551

> <CNNaffinity_variance>
0.0545263477

$$$$
[H]c1c([H])c([H])c(C([H])([H])N2[C@@]3([H])C([H])([H])C([H])([H])[C@]2([H])C([H])([H])[C@@]([H])(N([H])C(=O)c2oc4c([H])c([N+](=O)[O-])c([H])c([H])c4c(=O)c2[H])C3([H])[H])c([H])c1[H]


 33 37  0  0  0  0  0  0  0  0999 V2000
   34.5140  -14.2807   36.2371 C   0  0  0  0  0  0  0  0  0  0  0  0
   35.7663  -14.3406   36.2798 O   0  0  0  0  0  0  0  0  0  0  0  0
   33.7713  -15.4320   35.8062 N   0  0  0  0  0  0  0  0  0  0  0  0
   32.7339  -15.3261   35.7901 H   0  0  0  0  0  0  0  0  0  0  0  0
   29.9017  -10.8234   37.8852 C   0  0  0  0  0  0  0  0  0  0  0  0
   30.6050   -9.6411   37.9794 C   0  0  0  0  0  0  0  0  0  0  0  0
   31.9682   -9.6291   37.7013 C   0  0  0  0  0  0  0  0  0  0  0  0
   32.6111  -10.7768   37.3370 C   0  0  0  0  0  0  0  0  0  0  0  0
   31.8969  -11.9525   37.2463 C   0  0  0  0  0  0  0  0  0  0  0  0
   30.5232  -11.9918   37.5211 C   0  0  0  0  0  0  0  0  0  0  0  0
   32.5395  -13.0386   36.8946 O   0  0  0  0  0  0  0  0  0  0  0  0
   33.8412  -13.0454   36.6254 C   0  0  0  0  0  0  0  0  0  0  0  0
   34.5882  -11.8886   36.7054 C   0  0  0  0  0  0  0  0  0  0  0  0
   33.9769  -10.7083   37.0698 C   0  0  0  0  0  0  0  0  0  0  0  0
   34.6176   -9.6370   37.1544 O   0  0  0  0  0  0  0  0  0  0  0  0
   27.6412  -11.6466   37.5097 O   0  0  0  0  0  0  0  0  0  0  0  0
   28.5132  -10.8209   38.1715 N   0  0  0  0  0  0  0  0  0  0  0  0
   28.0322  -10.0631   39.0411 O   0  0  0  0  0  0  0  0  0  0  0  0
   34.4427  -16.6588   35.4207 C   0  0  0  0  0  0  0  0  0  0  0  0
   34.6265  -17.4883   36.6433 C   0  0  0  0  0  0  0  0  0  0  0  0
   34.5715  -18.9771   36.4119 C   0  0  0  0  0  0  0  0  0  0  0  0
   35.7473  -19.4229   35.5740 C   0  0  0  0  0  0  0  0  0  0  0  0
   35.2540  -19.1425   34.1522 C   0  0  0  0  0  0  0  0  0  0  0  0
   33.7908  -18.8111   34.3139 C   0  0  0  0  0  0  0  0  0  0  0  0
   33.6162  -17.3216   34.3519 C   0  0  0  0  0  0  0  0  0  0  0  0
   33.4132  -19.3156   35.6441 N   0  0  0  0  0  0  0  0  0  0  0  0
   33.1352  -20.7099   35.5365 C   0  0  0  0  0  0  0  0  0  0  0  0
   31.6835  -20.9979   35.5869 C   0  0  0  0  0  0  0  0  0  0  0  0
   31.2282  -22.2819   35.7938 C   0  0  0  0  0  0  0  0  0  0  0  0
   29.8808  -22.5719   35.8443 C   0  0  0  0  0  0  0  0  0  0  0  0
   28.9485  -21.5503   35.6834 C   0  0  0  0  0  0  0  0  0  0  0  0
   29.3821  -20.2579   35.4753 C   0  0  0  0  0  0  0  0  0  0  0  0
   30.7294  -20.0058   35.4309 C   0  0  0  0  0  0  0  0  0  0  0  0
 16 17  1  0  0  0
 17 18  2  0  0  0
 17  5  1  0  0  0
  5  6  2  0  0  0
  6  7  1  0  0  0
  7  8  2  0  0  0
  8  9  1  0  0  0
  9 10  2  0  0  0
  9 11  1  0  0  0
 11 12  1  0  0  0
 12 13  2  0  0  0
 13 14  1  0  0  0
 14 15  2  0  0  0
 12  1  1  0  0  0
  1  2  2  0  0  0
  1  3  1  0  0  0
  3 19  1  0  0  0
 19 20  1  0  0  0
 20 21  1  0  0  0
 21 22  1  0  0  0
 22 23  1  0  0  0
 23 24  1  0  0  0
 24 25  1  0  0  0
 24 26  1  0  0  0
 26 27  1  0  0  0
 27 28  1  0  0  0
 28 29  2  0  0  0
 29 30  1  0  0  0
 30 31  2  0  0  0
 31 32  1  0  0  0
 32 33  2  0  0  0
 10  5  1  0  0  0
 25 19  1  0  0  0
 33 28  1  0  0  0
 14  8  1  0  0  0
 26 21  1  0  0  0
  3  4  1  0  0  0
M  CHG 1  16  -1
M  CHG 1  17   1
M  END
> <minimizedAffinity>
-8.06493

> <CNNscore>
0.3774136305

> <CNNaffinity>
6.1134195328

> <CNN_VS>
2.3072879314

> <CNNaffinity_variance>
0.0361832753

$$$$
[H]c1c([H])c([H])c(C([H])([H])N2[C@@]3([H])C([H])([H])C([H])([H])[C@]2([H])C([H])([H])[C@@]([H])(N([H])C(=O)c2oc4c([H])c([N+](=O)[O-])c([H])c([H])c4c(=O)c2[H])C3([H])[H])c([H])c1[H]


 33 37  0  0  0  0  0  0  0  0999 V2000
   38.7961  -18.9455   36.0625 C   0  0  0  0  0  0  0  0  0  0  0  0
   39.1685  -19.4954   37.1267 O   0  0  0  0  0  0  0  0  0  0  0  0
   39.7503  -18.7379   35.0094 N   0  0  0  0  0  0  0  0  0  0  0  0
   39.3860  -18.2768   34.1478 H   0  0  0  0  0  0  0  0  0  0  0  0
   32.9346  -19.6485   35.0176 C   0  0  0  0  0  0  0  0  0  0  0  0
   32.5742  -18.3296   35.1967 C   0  0  0  0  0  0  0  0  0  0  0  0
   33.5480  -17.3891   35.5175 C   0  0  0  0  0  0  0  0  0  0  0  0
   34.8535  -17.7630   35.6555 C   0  0  0  0  0  0  0  0  0  0  0  0
   35.2013  -19.0847   35.4739 C   0  0  0  0  0  0  0  0  0  0  0  0
   34.2399  -20.0516   35.1503 C   0  0  0  0  0  0  0  0  0  0  0  0
   36.4614  -19.4151   35.6125 O   0  0  0  0  0  0  0  0  0  0  0  0
   37.4047  -18.5299   35.9187 C   0  0  0  0  0  0  0  0  0  0  0  0
   37.0944  -17.1993   36.1077 C   0  0  0  0  0  0  0  0  0  0  0  0
   35.7878  -16.7806   35.9775 C   0  0  0  0  0  0  0  0  0  0  0  0
   35.4635  -15.5833   36.1405 O   0  0  0  0  0  0  0  0  0  0  0  0
   30.6198  -20.4030   35.0388 O   0  0  0  0  0  0  0  0  0  0  0  0
   31.9320  -20.5960   34.6911 N   0  0  0  0  0  0  0  0  0  0  0  0
   32.2093  -21.6456   34.0720 O   0  0  0  0  0  0  0  0  0  0  0  0
   41.1329  -19.1520   35.1552 C   0  0  0  0  0  0  0  0  0  0  0  0
   41.8317  -18.1405   35.9949 C   0  0  0  0  0  0  0  0  0  0  0  0
   42.9339  -18.6917   36.8637 C   0  0  0  0  0  0  0  0  0  0  0  0
   44.0712  -19.2020   36.0096 C   0  0  0  0  0  0  0  0  0  0  0  0
   43.5953  -20.6114   35.6485 C   0  0  0  0  0  0  0  0  0  0  0  0
   42.3850  -20.8410   36.5200 C   0  0  0  0  0  0  0  0  0  0  0  0
   41.1407  -20.5395   35.7380 C   0  0  0  0  0  0  0  0  0  0  0  0
   42.4675  -19.8327   37.5892 N   0  0  0  0  0  0  0  0  0  0  0  0
   43.3478  -20.3176   38.6006 C   0  0  0  0  0  0  0  0  0  0  0  0
   42.7139  -20.3263   39.9389 C   0  0  0  0  0  0  0  0  0  0  0  0
   42.4455  -21.5151   40.5820 C   0  0  0  0  0  0  0  0  0  0  0  0
   41.8558  -21.5457   41.8284 C   0  0  0  0  0  0  0  0  0  0  0  0
   41.5191  -20.3525   42.4621 C   0  0  0  0  0  0  0  0  0  0  0  0
   41.7789  -19.1512   41.8366 C   0  0  0  0  0  0  0  0  0  0  0  0
   42.3662  -19.1582   40.5974 C   0  0  0  0  0  0  0  0  0  0  0  0
 16 17  1  0  0  0
 17 18  2  0  0  0
 17  5  1  0  0  0
  5  6  2  0  0  0
  6  7  1  0  0  0
  7  8  2  0  0  0
  8  9  1  0  0  0
  9 10  2  0  0  0
  9 11  1  0  0  0
 11 12  1  0  0  0
 12 13  2  0  0  0
 13 14  1  0  0  0
 14 15  2  0  0  0
 12  1  1  0  0  0
  1  2  2  0  0  0
  1  3  1  0  0  0
  3 19  1  0  0  0
 19 20  1  0  0  0
 20 21  1  0  0  0
 21 22  1  0  0  0
 22 23  1  0  0  0
 23 24  1  0  0  0
 24 25  1  0  0  0
 24 26  1  0  0  0
 26 27  1  0  0  0
 27 28  1  0  0  0
 28 29  2  0  0  0
 29 30  1  0  0  0
 30 31  2  0  0  0
 31 32  1  0  0  0
 32 33  2  0  0  0
 10  5  1  0  0  0
 25 19  1  0  0  0
 33 28  1  0  0  0
 14  8  1  0  0  0
 26 21  1  0  0  0
  3  4  1  0  0  0
M  CHG 1  16  -1
M  CHG 1  17   1
M  END
> <minimizedAffinity>
-6.23942

> <CNNscore>
0.3727176487

> <CNNaffinity>
5.1097650528

> <CNN_VS>
1.9044996500

> <CNNaffinity_variance>
0.1359601617

$$$$
[H]c1c([H])c([H])c(C([H])([H])N2[C@@]3([H])C([H])([H])C([H])([H])[C@]2([H])C([H])([H])[C@@]([H])(N([H])C(=O)c2oc4c([H])c([N+](=O)[O-])c([H])c([H])c4c(=O)c2[H])C3([H])[H])c([H])c1[H]


 33 37  0  0  0  0  0  0  0  0999 V2000
   34.3586  -21.6481   38.1333 C   0  0  0  0  0  0  0  0  0  0  0  0
   35.4810  -22.1044   38.4585 O   0  0  0  0  0  0  0  0  0  0  0  0
   34.2909  -20.5084   37.2620 N   0  0  0  0  0  0  0  0  0  0  0  0
   33.3328  -20.1717   37.0246 H   0  0  0  0  0  0  0  0  0  0  0  0
   28.8775  -24.0600   37.8466 C   0  0  0  0  0  0  0  0  0  0  0  0
   28.7556  -24.3564   39.1877 C   0  0  0  0  0  0  0  0  0  0  0  0
   29.7964  -24.0454   40.0571 C   0  0  0  0  0  0  0  0  0  0  0  0
   30.9334  -23.4505   39.5918 C   0  0  0  0  0  0  0  0  0  0  0  0
   31.0432  -23.1590   38.2487 C   0  0  0  0  0  0  0  0  0  0  0  0
   30.0096  -23.4619   37.3521 C   0  0  0  0  0  0  0  0  0  0  0  0
   32.1455  -22.5881   37.8300 O   0  0  0  0  0  0  0  0  0  0  0  0
   33.1496  -22.2841   38.6463 C   0  0  0  0  0  0  0  0  0  0  0  0
   33.0755  -22.5606   39.9956 C   0  0  0  0  0  0  0  0  0  0  0  0
   31.9446  -23.1608   40.5056 C   0  0  0  0  0  0  0  0  0  0  0  0
   31.8367  -23.4286   41.7229 O   0  0  0  0  0  0  0  0  0  0  0  0
   27.0322  -23.4102   36.3970 O   0  0  0  0  0  0  0  0  0  0  0  0
   27.8092  -24.3825   36.9723 N   0  0  0  0  0  0  0  0  0  0  0  0
   27.5361  -25.5698   36.6932 O   0  0  0  0  0  0  0  0  0  0  0  0
   35.4945  -19.8781   36.7535 C   0  0  0  0  0  0  0  0  0  0  0  0
   35.2149  -19.3951   35.3733 C   0  0  0  0  0  0  0  0  0  0  0  0
   35.9528  -18.1403   34.9803 C   0  0  0  0  0  0  0  0  0  0  0  0
   37.4383  -18.4059   34.9043 C   0  0  0  0  0  0  0  0  0  0  0  0
   37.8685  -18.2503   36.3651 C   0  0  0  0  0  0  0  0  0  0  0  0
   36.6575  -17.6791   37.0611 C   0  0  0  0  0  0  0  0  0  0  0  0
   35.8862  -18.7878   37.7141 C   0  0  0  0  0  0  0  0  0  0  0  0
   35.8012  -17.1405   35.9918 N   0  0  0  0  0  0  0  0  0  0  0  0
   36.2748  -15.8411   35.6450 C   0  0  0  0  0  0  0  0  0  0  0  0
   35.4044  -14.7668   36.1755 C   0  0  0  0  0  0  0  0  0  0  0  0
   34.0405  -14.9441   36.2593 C   0  0  0  0  0  0  0  0  0  0  0  0
   33.2120  -13.9568   36.7502 C   0  0  0  0  0  0  0  0  0  0  0  0
   33.7558  -12.7472   37.1744 C   0  0  0  0  0  0  0  0  0  0  0  0
   35.1185  -12.5485   37.0994 C   0  0  0  0  0  0  0  0  0  0  0  0
   35.9122  -13.5520   36.6059 C   0  0  0  0  0  0  0  0  0  0  0  0
 16 17  1  0  0  0
 17 18  2  0  0  0
 17  5  1  0  0  0
  5  6  2  0  0  0
  6  7  1  0  0  0
  7  8  2  0  0  0
  8  9  1  0  0  0
  9 10  2  0  0  0
  9 11  1  0  0  0
 11 12  1  0  0  0
 12 13  2  0  0  0
 13 14  1  0  0  0
 14 15  2  0  0  0
 12  1  1  0  0  0
  1  2  2  0  0  0
  1  3  1  0  0  0
  3 19  1  0  0  0
 19 20  1  0  0  0
 20 21  1  0  0  0
 21 22  1  0  0  0
 22 23  1  0  0  0
 23 24  1  0  0  0
 24 25  1  0  0  0
 24 26  1  0  0  0
 26 27  1  0  0  0
 27 28  1  0  0  0
 28 29  2  0  0  0
 29 30  1  0  0  0
 30 31  2  0  0  0
 31 32  1  0  0  0
 32 33  2  0  0  0
 10  5  1  0  0  0
 25 19  1  0  0  0
 33 28  1  0  0  0
 14  8  1  0  0  0
 26 21  1  0  0  0
  3  4  1  0  0  0
M  CHG 1  16  -1
M  CHG 1  17   1
M  END
> <minimizedAffinity>
-5.98890

> <CNNscore>
0.3267458379

> <CNNaffinity>
5.1727881432

> <CNN_VS>
1.6901869774

> <CNNaffinity_variance>
0.1395056546

$$$$
[H]c1c([H])c([H])c(C([H])([H])N2[C@@]3([H])C([H])([H])C([H])([H])[C@]2([H])C([H])([H])[C@@]([H])(N([H])C(=O)c2oc4c([H])c([N+](=O)[O-])c([H])c([H])c4c(=O)c2[H])C3([H])[H])c([H])c1[H]


 33 37  0  0  0  0  0  0  0  0999 V2000
   34.6797  -15.6017   36.2651 C   0  0  0  0  0  0  0  0  0  0  0  0
   33.8622  -16.2311   35.5514 O   0  0  0  0  0  0  0  0  0  0  0  0
   35.9203  -16.2276   36.6282 N   0  0  0  0  0  0  0  0  0  0  0  0
   36.5618  -15.6589   37.2221 H   0  0  0  0  0  0  0  0  0  0  0  0
   34.8261   -9.6088   36.1872 C   0  0  0  0  0  0  0  0  0  0  0  0
   33.9893   -9.4078   37.2646 C   0  0  0  0  0  0  0  0  0  0  0  0
   33.4535  -10.5047   37.9320 C   0  0  0  0  0  0  0  0  0  0  0  0
   33.7503  -11.7743   37.5279 C   0  0  0  0  0  0  0  0  0  0  0  0
   34.5882  -11.9623   36.4493 C   0  0  0  0  0  0  0  0  0  0  0  0
   35.1410  -10.8746   35.7599 C   0  0  0  0  0  0  0  0  0  0  0  0
   34.8557  -13.1914   36.0834 O   0  0  0  0  0  0  0  0  0  0  0  0
   34.3527  -14.2508   36.7093 C   0  0  0  0  0  0  0  0  0  0  0  0
   33.5111  -14.1017   37.7920 C   0  0  0  0  0  0  0  0  0  0  0  0
   33.1865  -12.8365   38.2317 C   0  0  0  0  0  0  0  0  0  0  0  0
   32.4271  -12.6570   39.2096 O   0  0  0  0  0  0  0  0  0  0  0  0
   36.5265   -7.8847   35.9334 O   0  0  0  0  0  0  0  0  0  0  0  0
   35.3648   -8.4820   35.5166 N   0  0  0  0  0  0  0  0  0  0  0  0
   34.7978   -7.9905   34.5171 O   0  0  0  0  0  0  0  0  0  0  0  0
   36.2428  -17.5708   36.1852 C   0  0  0  0  0  0  0  0  0  0  0  0
   37.3191  -17.4733   35.1612 C   0  0  0  0  0  0  0  0  0  0  0  0
   38.2804  -18.6346   35.1410 C   0  0  0  0  0  0  0  0  0  0  0  0
   37.5722  -19.8961   34.7048 C   0  0  0  0  0  0  0  0  0  0  0  0
   36.9470  -20.3835   36.0143 C   0  0  0  0  0  0  0  0  0  0  0  0
   37.5592  -19.5073   37.0793 C   0  0  0  0  0  0  0  0  0  0  0  0
   36.6243  -18.3778   37.3968 C   0  0  0  0  0  0  0  0  0  0  0  0
   38.7537  -18.9074   36.4629 N   0  0  0  0  0  0  0  0  0  0  0  0
   39.8254  -19.8440   36.5490 C   0  0  0  0  0  0  0  0  0  0  0  0
   41.0333  -19.2582   37.1740 C   0  0  0  0  0  0  0  0  0  0  0  0
   41.7405  -18.2609   36.5384 C   0  0  0  0  0  0  0  0  0  0  0  0
   42.8679  -17.7016   37.1027 C   0  0  0  0  0  0  0  0  0  0  0  0
   43.3117  -18.1478   38.3448 C   0  0  0  0  0  0  0  0  0  0  0  0
   42.6190  -19.1450   38.9986 C   0  0  0  0  0  0  0  0  0  0  0  0
   41.5022  -19.6783   38.4079 C   0  0  0  0  0  0  0  0  0  0  0  0
 16 17  1  0  0  0
 17 18  2  0  0  0
 17  5  1  0  0  0
  5  6  2  0  0  0
  6  7  1  0  0  0
  7  8  2  0  0  0
  8  9  1  0  0  0
  9 10  2  0  0  0
  9 11  1  0  0  0
 11 12  1  0  0  0
 12 13  2  0  0  0
 13 14  1  0  0  0
 14 15  2  0  0  0
 12  1  1  0  0  0
  1  2  2  0  0  0
  1  3  1  0  0  0
  3 19  1  0  0  0
 19 20  1  0  0  0
 20 21  1  0  0  0
 21 22  1  0  0  0
 22 23  1  0  0  0
 23 24  1  0  0  0
 24 25  1  0  0  0
 24 26  1  0  0  0
 26 27  1  0  0  0
 27 28  1  0  0  0
 28 29  2  0  0  0
 29 30  1  0  0  0
 30 31  2  0  0  0
 31 32  1  0  0  0
 32 33  2  0  0  0
 10  5  1  0  0  0
 25 19  1  0  0  0
 33 28  1  0  0  0
 14  8  1  0  0  0
 26 21  1  0  0  0
  3  4  1  0  0  0
M  CHG 1  16  -1
M  CHG 1  17   1
M  END
> <minimizedAffinity>
-7.40813

> <CNNscore>
0.3154285252

> <CNNaffinity>
5.8778152466

> <CNN_VS>
1.8540306091

> <CNNaffinity_variance>
0.1116820797

$$$$
[H]c1c([H])c([H])c(C([H])([H])N2[C@@]3([H])C([H])([H])C([H])([H])[C@]2([H])C([H])([H])[C@@]([H])(N([H])C(=O)c2oc4c([H])c([N+](=O)[O-])c([H])c([H])c4c(=O)c2[H])C3([H])[H])c([H])c1[H]


 33 37  0  0  0  0  0  0  0  0999 V2000
   38.3825  -18.7873   36.3018 C   0  0  0  0  0  0  0  0  0  0  0  0
   38.5362  -19.5290   37.3018 O   0  0  0  0  0  0  0  0  0  0  0  0
   39.4401  -18.6854   35.3354 N   0  0  0  0  0  0  0  0  0  0  0  0
   39.2582  -18.0550   34.5247 H   0  0  0  0  0  0  0  0  0  0  0  0
   34.7930  -13.9870   36.4241 C   0  0  0  0  0  0  0  0  0  0  0  0
   33.6485  -14.6239   35.9928 C   0  0  0  0  0  0  0  0  0  0  0  0
   33.6862  -15.9850   35.7071 C   0  0  0  0  0  0  0  0  0  0  0  0
   34.8455  -16.6912   35.8507 C   0  0  0  0  0  0  0  0  0  0  0  0
   35.9831  -16.0431   36.2827 C   0  0  0  0  0  0  0  0  0  0  0  0
   35.9720  -14.6730   36.5772 C   0  0  0  0  0  0  0  0  0  0  0  0
   37.0814  -16.7456   36.4116 O   0  0  0  0  0  0  0  0  0  0  0  0
   37.1354  -18.0464   36.1431 C   0  0  0  0  0  0  0  0  0  0  0  0
   36.0178  -18.7282   35.7089 C   0  0  0  0  0  0  0  0  0  0  0  0
   34.8274  -18.0518   35.5509 C   0  0  0  0  0  0  0  0  0  0  0  0
   33.7904  -18.6321   35.1595 O   0  0  0  0  0  0  0  0  0  0  0  0
   35.5730  -11.7047   36.0910 O   0  0  0  0  0  0  0  0  0  0  0  0
   34.7401  -12.5998   36.7115 N   0  0  0  0  0  0  0  0  0  0  0  0
   33.9288  -12.1410   37.5441 O   0  0  0  0  0  0  0  0  0  0  0  0
   40.6788  -19.4230   35.4958 C   0  0  0  0  0  0  0  0  0  0  0  0
   41.4819  -18.7520   36.5547 C   0  0  0  0  0  0  0  0  0  0  0  0
   42.3410  -19.6770   37.3791 C   0  0  0  0  0  0  0  0  0  0  0  0
   43.4291  -20.2849   36.5247 C   0  0  0  0  0  0  0  0  0  0  0  0
   42.7061  -21.4680   35.8762 C   0  0  0  0  0  0  0  0  0  0  0  0
   41.3877  -21.5561   36.6050 C   0  0  0  0  0  0  0  0  0  0  0  0
   40.3281  -20.8525   35.8095 C   0  0  0  0  0  0  0  0  0  0  0  0
   41.5669  -20.7854   37.8461 N   0  0  0  0  0  0  0  0  0  0  0  0
   42.2092  -21.6197   38.8075 C   0  0  0  0  0  0  0  0  0  0  0  0
   41.4304  -21.7325   40.0619 C   0  0  0  0  0  0  0  0  0  0  0  0
   41.8755  -22.5258   41.0969 C   0  0  0  0  0  0  0  0  0  0  0  0
   41.1657  -22.6448   42.2735 C   0  0  0  0  0  0  0  0  0  0  0  0
   39.9687  -21.9511   42.4306 C   0  0  0  0  0  0  0  0  0  0  0  0
   39.5047  -21.1513   41.4074 C   0  0  0  0  0  0  0  0  0  0  0  0
   40.2363  -21.0564   40.2514 C   0  0  0  0  0  0  0  0  0  0  0  0
 16 17  1  0  0  0
 17 18  2  0  0  0
 17  5  1  0  0  0
  5  6  2  0  0  0
  6  7  1  0  0  0
  7  8  2  0  0  0
  8  9  1  0  0  0
  9 10  2  0  0  0
  9 11  1  0  0  0
 11 12  1  0  0  0
 12 13  2  0  0  0
 13 14  1  0  0  0
 14 15  2  0  0  0
 12  1  1  0  0  0
  1  2  2  0  0  0
  1  3  1  0  0  0
  3 19  1  0  0  0
 19 20  1  0  0  0
 20 21  1  0  0  0
 21 22  1  0  0  0
 22 23  1  0  0  0
 23 24  1  0  0  0
 24 25  1  0  0  0
 24 26  1  0  0  0
 26 27  1  0  0  0
 27 28  1  0  0  0
 28 29  2  0  0  0
 29 30  1  0  0  0
 30 31  2  0  0  0
 31 32  1  0  0  0
 32 33  2  0  0  0
 10  5  1  0  0  0
 25 19  1  0  0  0
 33 28  1  0  0  0
 14  8  1  0  0  0
 26 21  1  0  0  0
  3  4  1  0  0  0
M  CHG 1  16  -1
M  CHG 1  17   1
M  END
> <minimizedAffinity>
-6.57896

> <CNNscore>
0.2913343310

> <CNNaffinity>
5.2496504784

> <CNN_VS>
1.5294034481

> <CNNaffinity_variance>
0.0809670463

$$$$
[H]c1c([H])c([H])c(C([H])([H])N2[C@@]3([H])C([H])([H])C([H])([H])[C@]2([H])C([H])([H])[C@@]([H])(N([H])C(=O)c2oc4c([H])c([N+](=O)[O-])c([H])c([H])c4c(=O)c2[H])C3([H])[H])c([H])c1[H]


 33 37  0  0  0  0  0  0  0  0999 V2000
   38.5420  -18.6619   36.0714 C   0  0  0  0  0  0  0  0  0  0  0  0
   38.8766  -19.2003   37.1539 O   0  0  0  0  0  0  0  0  0  0  0  0
   39.4247  -18.7508   34.9420 N   0  0  0  0  0  0  0  0  0  0  0  0
   39.0962  -18.2854   34.0683 H   0  0  0  0  0  0  0  0  0  0  0  0
   34.8306  -13.9623   36.3590 C   0  0  0  0  0  0  0  0  0  0  0  0
   33.6794  -14.6379   36.0131 C   0  0  0  0  0  0  0  0  0  0  0  0
   33.7378  -16.0020   35.7454 C   0  0  0  0  0  0  0  0  0  0  0  0
   34.9239  -16.6730   35.8230 C   0  0  0  0  0  0  0  0  0  0  0  0
   36.0680  -15.9864   36.1699 C   0  0  0  0  0  0  0  0  0  0  0  0
   36.0364  -14.6125   36.4444 C   0  0  0  0  0  0  0  0  0  0  0  0
   37.1922  -16.6558   36.2366 O   0  0  0  0  0  0  0  0  0  0  0  0
   37.2663  -17.9588   35.9841 C   0  0  0  0  0  0  0  0  0  0  0  0
   36.1429  -18.6785   35.6342 C   0  0  0  0  0  0  0  0  0  0  0  0
   34.9257  -18.0384   35.5448 C   0  0  0  0  0  0  0  0  0  0  0  0
   33.8827  -18.6538   35.2307 O   0  0  0  0  0  0  0  0  0  0  0  0
   35.5545  -11.6695   35.9754 O   0  0  0  0  0  0  0  0  0  0  0  0
   34.7564  -12.5726   36.6290 N   0  0  0  0  0  0  0  0  0  0  0  0
   33.9573  -12.1188   37.4761 O   0  0  0  0  0  0  0  0  0  0  0  0
   40.6924  -19.4503   35.0317 C   0  0  0  0  0  0  0  0  0  0  0  0
   41.7070  -18.5005   35.5656 C   0  0  0  0  0  0  0  0  0  0  0  0
   42.7801  -19.1326   36.4154 C   0  0  0  0  0  0  0  0  0  0  0  0
   43.6440  -20.0464   35.5776 C   0  0  0  0  0  0  0  0  0  0  0  0
   42.8293  -21.3423   35.5702 C   0  0  0  0  0  0  0  0  0  0  0  0
   41.7387  -21.1137   36.5877 C   0  0  0  0  0  0  0  0  0  0  0  0
   40.4874  -20.6700   35.8890 C   0  0  0  0  0  0  0  0  0  0  0  0
   42.1910  -19.9779   37.4075 N   0  0  0  0  0  0  0  0  0  0  0  0
   43.0850  -20.4678   38.4044 C   0  0  0  0  0  0  0  0  0  0  0  0
   42.5089  -20.3811   39.7658 C   0  0  0  0  0  0  0  0  0  0  0  0
   42.4436  -19.1734   40.4260 C   0  0  0  0  0  0  0  0  0  0  0  0
   41.9110  -19.0704   41.6940 C   0  0  0  0  0  0  0  0  0  0  0  0
   41.4244  -20.2080   42.3326 C   0  0  0  0  0  0  0  0  0  0  0  0
   41.4797  -21.4270   41.6902 C   0  0  0  0  0  0  0  0  0  0  0  0
   42.0160  -21.4925   40.4297 C   0  0  0  0  0  0  0  0  0  0  0  0
 16 17  1  0  0  0
 17 18  2  0  0  0
 17  5  1  0  0  0
  5  6  2  0  0  0
  6  7  1  0  0  0
  7  8  2  0  0  0
  8  9  1  0  0  0
  9 10  2  0  0  0
  9 11  1  0  0  0
 11 12  1  0  0  0
 12 13  2  0  0  0
 13 14  1  0  0  0
 14 15  2  0  0  0
 12  1  1  0  0  0
  1  2  2  0  0  0
  1  3  1  0  0  0
  3 19  1  0  0  0
 19 20  1  0  0  0
 20 21  1  0  0  0
 21 22  1  0  0  0
 22 23  1  0  0  0
 23 24  1  0  0  0
 24 25  1  0  0  0
 24 26  1  0  0  0
 26 27  1  0  0  0
 27 28  1  0  0  0
 28 29  2  0  0  0
 29 30  1  0  0  0
 30 31  2  0  0  0
 31 32  1  0  0  0
 32 33  2  0  0  0
 10  5  1  0  0  0
 25 19  1  0  0  0
 33 28  1  0  0  0
 14  8  1  0  0  0
 26 21  1  0  0  0
  3  4  1  0  0  0
M  CHG 1  16  -1
M  CHG 1  17   1
M  END
> <minimizedAffinity>
-7.07409

> <CNNscore>
0.2901387811

> <CNNaffinity>
5.3354272842

> <CNN_VS>
1.5480144024

> <CNNaffinity_variance>
0.0800936967

$$$$
[H]c1c([H])c([H])c(C([H])([H])N2[C@@]3([H])C([H])([H])C([H])([H])[C@]2([H])C([H])([H])[C@@]([H])(N([H])C(=O)c2oc4c([H])c([N+](=O)[O-])c([H])c([H])c4c(=O)c2[H])C3([H])[H])c([H])c1[H]


 33 37  0  0  0  0  0  0  0  0999 V2000
   38.9115  -19.0449   36.4351 C   0  0  0  0  0  0  0  0  0  0  0  0
   38.2243  -18.0708   36.8258 O   0  0  0  0  0  0  0  0  0  0  0  0
   38.3138  -20.0215   35.5681 N   0  0  0  0  0  0  0  0  0  0  0  0
   38.9306  -20.8095   35.2744 H   0  0  0  0  0  0  0  0  0  0  0  0
   43.4265  -20.7500   39.9916 C   0  0  0  0  0  0  0  0  0  0  0  0
   44.4439  -20.1860   39.2512 C   0  0  0  0  0  0  0  0  0  0  0  0
   44.1412  -19.4983   38.0802 C   0  0  0  0  0  0  0  0  0  0  0  0
   42.8474  -19.3790   37.6616 C   0  0  0  0  0  0  0  0  0  0  0  0
   41.8390  -19.9473   38.4107 C   0  0  0  0  0  0  0  0  0  0  0  0
   42.1171  -20.6452   39.5937 C   0  0  0  0  0  0  0  0  0  0  0  0
   40.6069  -19.8172   37.9851 O   0  0  0  0  0  0  0  0  0  0  0  0
   40.2996  -19.1637   36.8691 C   0  0  0  0  0  0  0  0  0  0  0  0
   41.2815  -18.5823   36.0942 C   0  0  0  0  0  0  0  0  0  0  0  0
   42.6004  -18.6799   36.4819 C   0  0  0  0  0  0  0  0  0  0  0  0
   43.5215  -18.1672   35.8082 O   0  0  0  0  0  0  0  0  0  0  0  0
   44.6219  -20.9304   42.1051 O   0  0  0  0  0  0  0  0  0  0  0  0
   43.7496  -21.4480   41.1825 N   0  0  0  0  0  0  0  0  0  0  0  0
   43.2487  -22.5647   41.4353 O   0  0  0  0  0  0  0  0  0  0  0  0
   36.9335  -19.9009   35.1383 C   0  0  0  0  0  0  0  0  0  0  0  0
   36.0740  -19.8549   36.3531 C   0  0  0  0  0  0  0  0  0  0  0  0
   34.8289  -19.0158   36.2159 C   0  0  0  0  0  0  0  0  0  0  0  0
   33.8856  -19.6351   35.2109 C   0  0  0  0  0  0  0  0  0  0  0  0
   34.4369  -19.1071   33.8840 C   0  0  0  0  0  0  0  0  0  0  0  0
   35.4557  -18.0671   34.2805 C   0  0  0  0  0  0  0  0  0  0  0  0
   36.8258  -18.6782   34.2677 C   0  0  0  0  0  0  0  0  0  0  0  0
   35.1558  -17.7299   35.6815 N   0  0  0  0  0  0  0  0  0  0  0  0
   34.0997  -16.7722   35.6998 C   0  0  0  0  0  0  0  0  0  0  0  0
   34.5702  -15.4259   36.0986 C   0  0  0  0  0  0  0  0  0  0  0  0
   33.7005  -14.3575   36.1286 C   0  0  0  0  0  0  0  0  0  0  0  0
   34.1178  -13.0957   36.4971 C   0  0  0  0  0  0  0  0  0  0  0  0
   35.4482  -12.8843   36.8494 C   0  0  0  0  0  0  0  0  0  0  0  0
   36.3357  -13.9396   36.8265 C   0  0  0  0  0  0  0  0  0  0  0  0
   35.8861  -15.1807   36.4551 C   0  0  0  0  0  0  0  0  0  0  0  0
 16 17  1  0  0  0
 17 18  2  0  0  0
 17  5  1  0  0  0
  5  6  2  0  0  0
  6  7  1  0  0  0
  7  8  2  0  0  0
  8  9  1  0  0  0
  9 10  2  0  0  0
  9 11  1  0  0  0
 11 12  1  0  0  0
 12 13  2  0  0  0
 13 14  1  0  0  0
 14 15  2  0  0  0
 12  1  1  0  0  0
  1  2  2  0  0  0
  1  3  1  0  0  0
  3 19  1  0  0  0
 19 20  1  0  0  0
 20 21  1  0  0  0
 21 22  1  0  0  0
 22 23  1  0  0  0
 23 24  1  0  0  0
 24 25  1  0  0  0
 24 26  1  0  0  0
 26 27  1  0  0  0
 27 28  1  0  0  0
 28 29  2  0  0  0
 29 30  1  0  0  0
 30 31  2  0  0  0
 31 32  1  0  0  0
 32 33  2  0  0  0
 10  5  1  0  0  0
 25 19  1  0  0  0
 33 28  1  0  0  0
 14  8  1  0  0  0
 26 21  1  0  0  0
  3  4  1  0  0  0
M  CHG 1  16  -1
M  CHG 1  17   1
M  END
> <minimizedAffinity>
-7.17414

> <CNNscore>
0.2831763327

> <CNNaffinity>
5.5039162636

> <CNN_VS>
1.5585788488

> <CNNaffinity_variance>
0.1194555759

$$$$
[H]OC(=O)[C@@]([H])(N([H])C(=O)[C@@]([H])(N([H])C(=O)[C@@]([H])(N([H])C(=O)[C@@]([H])(N([H])C(=O)[C@@]1([H])N(C(=O)[C@@]([H])(N([H])C(=O)OC([H])([H])c2c([H])c([H])c([H])c([H])c2[H])[C@@]([H])(C([H])([H])[H])C([H])([H])C([H])([H])[H])C([H])([H])C([H])([H])C1([H])[H])C([H])([H])C([H])(C([H])([H])[H])C([H])([H])[H])C([H])([H])C([H])(C([H])([H])[H])C([H])([H])[H])C([H])([H])O[H])C([H])([H])O[H]


 62 63  0  0  0  0  0  0  0  0999 V2000
   33.6897  -19.9118   34.7892 C   0  0  0  0  0  0  0  0  0  0  0  0
   33.9234  -21.1265   37.0100 C   0  0  0  0  0  0  0  0  0  0  0  0
   33.8624  -20.0704   37.6720 O   0  0  0  0  0  0  0  0  0  0  0  0
   33.8314  -21.0755   35.6040 N   0  0  0  0  0  0  0  0  0  0  0  0
   33.8742  -22.0279   35.1113 H   0  0  0  0  0  0  0  0  0  0  0  0
   33.1304  -22.7078   40.0620 C   0  0  0  0  0  0  0  0  0  0  0  0
   31.9818  -22.8963   40.6512 O   0  0  0  0  0  0  0  0  0  0  0  0
   33.0871  -22.6880   38.6796 N   0  0  0  0  0  0  0  0  0  0  0  0
   31.8850  -22.9524   37.8775 C   0  0  0  0  0  0  0  0  0  0  0  0
   32.4857  -23.9828   36.9038 C   0  0  0  0  0  0  0  0  0  0  0  0
   33.9650  -23.6258   36.8065 C   0  0  0  0  0  0  0  0  0  0  0  0
   34.0948  -22.4126   37.7105 C   0  0  0  0  0  0  0  0  0  0  0  0
   34.2688  -22.5521   40.9761 C   0  0  0  0  0  0  0  0  0  0  0  0
   33.9287  -21.7440   42.1345 N   0  0  0  0  0  0  0  0  0  0  0  0
   33.9300  -20.3860   42.3060 C   0  0  0  0  0  0  0  0  0  0  0  0
   34.2528  -19.5979   41.3901 O   0  0  0  0  0  0  0  0  0  0  0  0
   33.6310  -22.3636   42.9623 H   0  0  0  0  0  0  0  0  0  0  0  0
   33.5707  -19.8364   43.5197 O   0  0  0  0  0  0  0  0  0  0  0  0
   33.6437  -18.4387   43.6982 C   0  0  0  0  0  0  0  0  0  0  0  0
   32.2675  -17.9748   43.9729 C   0  0  0  0  0  0  0  0  0  0  0  0
   32.0189  -17.2033   45.0709 C   0  0  0  0  0  0  0  0  0  0  0  0
   30.7418  -16.7503   45.3455 C   0  0  0  0  0  0  0  0  0  0  0  0
   29.7432  -17.1055   44.4751 C   0  0  0  0  0  0  0  0  0  0  0  0
   29.9724  -17.8797   43.3671 C   0  0  0  0  0  0  0  0  0  0  0  0
   31.2587  -18.3172   43.1194 C   0  0  0  0  0  0  0  0  0  0  0  0
   34.6663  -23.9423   41.4463 C   0  0  0  0  0  0  0  0  0  0  0  0
   35.5554  -24.6461   40.4570 C   0  0  0  0  0  0  0  0  0  0  0  0
   34.9812  -25.1514   43.6087 C   0  0  0  0  0  0  0  0  0  0  0  0
   35.2953  -23.8769   42.8336 C   0  0  0  0  0  0  0  0  0  0  0  0
   34.9543  -19.0929   34.8503 C   0  0  0  0  0  0  0  0  0  0  0  0
   35.7801  -19.0840   33.9172 O   0  0  0  0  0  0  0  0  0  0  0  0
   35.2545  -18.2842   35.9940 N   0  0  0  0  0  0  0  0  0  0  0  0
   34.5943  -18.2586   36.8024 H   0  0  0  0  0  0  0  0  0  0  0  0
   36.4416  -17.4765   36.1207 C   0  0  0  0  0  0  0  0  0  0  0  0
   37.6116  -18.4113   36.1946 C   0  0  0  0  0  0  0  0  0  0  0  0
   37.7171  -19.1475   37.1960 O   0  0  0  0  0  0  0  0  0  0  0  0
   38.5706  -18.4695   35.1778 N   0  0  0  0  0  0  0  0  0  0  0  0
   38.4435  -17.8309   34.3367 H   0  0  0  0  0  0  0  0  0  0  0  0
   39.7228  -19.3178   35.1594 C   0  0  0  0  0  0  0  0  0  0  0  0
   39.3155  -20.7360   35.1676 C   0  0  0  0  0  0  0  0  0  0  0  0
   38.8368  -21.2730   34.1339 O   0  0  0  0  0  0  0  0  0  0  0  0
   39.4561  -21.5044   36.3283 N   0  0  0  0  0  0  0  0  0  0  0  0
   39.8605  -21.0588   37.1955 H   0  0  0  0  0  0  0  0  0  0  0  0
   39.0878  -22.8932   36.4566 C   0  0  0  0  0  0  0  0  0  0  0  0
   38.3780  -23.1588   37.7269 C   0  0  0  0  0  0  0  0  0  0  0  0
   38.5690  -24.3362   38.3964 O   0  0  0  0  0  0  0  0  0  0  0  0
   37.5950  -22.2966   38.1920 O   0  0  0  0  0  0  0  0  0  0  0  0
   37.8382  -24.8902   38.7994 H   0  0  0  0  0  0  0  0  0  0  0  0
   40.2449  -23.8476   36.2489 C   0  0  0  0  0  0  0  0  0  0  0  0
   39.8594  -25.0973   35.8350 O   0  0  0  0  0  0  0  0  0  0  0  0
   40.4519  -25.5331   35.1823 H   0  0  0  0  0  0  0  0  0  0  0  0
   40.6763  -19.0013   36.3012 C   0  0  0  0  0  0  0  0  0  0  0  0
   41.2150  -17.7425   36.2537 O   0  0  0  0  0  0  0  0  0  0  0  0
   41.9320  -17.6824   36.9144 H   0  0  0  0  0  0  0  0  0  0  0  0
   36.5011  -16.6054   37.3254 C   0  0  0  0  0  0  0  0  0  0  0  0
   36.2142  -15.1636   37.1577 C   0  0  0  0  0  0  0  0  0  0  0  0
   35.9348  -14.6658   35.7901 C   0  0  0  0  0  0  0  0  0  0  0  0
   37.3202  -14.3816   37.8520 C   0  0  0  0  0  0  0  0  0  0  0  0
   32.5599  -19.0071   35.0776 C   0  0  0  0  0  0  0  0  0  0  0  0
   31.2340  -19.6084   35.3653 C   0  0  0  0  0  0  0  0  0  0  0  0
   31.1363  -20.9803   34.6567 C   0  0  0  0  0  0  0  0  0  0  0  0
   30.0404  -18.8451   34.9138 C   0  0  0  0  0  0  0  0  0  0  0  0
 28 29  1  0  0  0
 29 26  1  0  0  0
 26 27  1  0  0  0
 26 13  1  0  0  0
 13 14  1  0  0  0
 14 15  1  0  0  0
 15 16  2  0  0  0
 15 18  1  0  0  0
 18 19  1  0  0  0
 19 20  1  0  0  0
 20 21  2  0  0  0
 21 22  1  0  0  0
 22 23  2  0  0  0
 23 24  1  0  0  0
 24 25  2  0  0  0
 13  6  1  0  0  0
  6  7  2  0  0  0
  6  8  1  0  0  0
  8  9  1  0  0  0
  9 10  1  0  0  0
 10 11  1  0  0  0
 11 12  1  0  0  0
 12  2  1  0  0  0
  2  3  2  0  0  0
  2  4  1  0  0  0
  4  1  1  0  0  0
  1 59  1  0  0  0
 59 60  1  0  0  0
 60 61  1  0  0  0
 60 62  1  0  0  0
  1 30  1  0  0  0
 30 31  2  0  0  0
 30 32  1  0  0  0
 32 34  1  0  0  0
 34 55  1  0  0  0
 55 56  1  0  0  0
 56 57  1  0  0  0
 56 58  1  0  0  0
 34 35  1  0  0  0
 35 36  2  0  0  0
 35 37  1  0  0  0
 37 39  1  0  0  0
 39 52  1  0  0  0
 52 53  1  0  0  0
 39 40  1  0  0  0
 40 41  2  0  0  0
 40 42  1  0  0  0
 42 44  1  0  0  0
 44 49  1  0  0  0
 49 50  1  0  0  0
 44 45  1  0  0  0
 45 46  1  0  0  0
 45 47  2  0  0  0
 25 20  1  0  0  0
 12  8  1  0  0  0
 14 17  1  0  0  0
  4  5  1  0  0  0
 32 33  1  0  0  0
 37 38  1  0  0  0
 53 54  1  0  0  0
 42 43  1  0  0  0
 50 51  1  0  0  0
 46 48  1  0  0  0
M  END
> <minimizedAffinity>
-5.60535

> <CNNscore>
0.3290026784

> <CNNaffinity>
6.3887367249

> <CNN_VS>
2.1019115448

> <CNNaffinity_variance>
0.2568795681

$$$$
[H]OC(=O)[C@@]([H])(N([H])C(=O)[C@@]([H])(N([H])C(=O)[C@@]([H])(N([H])C(=O)[C@@]([H])(N([H])C(=O)[C@@]1([H])N(C(=O)[C@@]([H])(N([H])C(=O)OC([H])([H])c2c([H])c([H])c([H])c([H])c2[H])[C@@]([H])(C([H])([H])[H])C([H])([H])C([H])([H])[H])C([H])([H])C([H])([H])C1([H])[H])C([H])([H])C([H])(C([H])([H])[H])C([H])([H])[H])C([H])([H])C([H])(C([H])([H])[H])C([H])([H])[H])C([H])([H])O[H])C([H])([H])O[H]


 62 63  0  0  0  0  0  0  0  0999 V2000
   38.4800  -20.8528   35.4944 C   0  0  0  0  0  0  0  0  0  0  0  0
   37.1162  -21.3682   37.5769 C   0  0  0  0  0  0  0  0  0  0  0  0
   37.7664  -20.5709   38.2831 O   0  0  0  0  0  0  0  0  0  0  0  0
   37.4390  -21.5154   36.2123 N   0  0  0  0  0  0  0  0  0  0  0  0
   36.8211  -22.2064   35.6715 H   0  0  0  0  0  0  0  0  0  0  0  0
   34.7943  -21.2209   40.2285 C   0  0  0  0  0  0  0  0  0  0  0  0
   33.9010  -20.3192   40.5302 O   0  0  0  0  0  0  0  0  0  0  0  0
   35.0588  -21.3590   38.8777 N   0  0  0  0  0  0  0  0  0  0  0  0
   34.3484  -20.6429   37.8097 C   0  0  0  0  0  0  0  0  0  0  0  0
   34.0246  -21.8476   36.9072 C   0  0  0  0  0  0  0  0  0  0  0  0
   35.1381  -22.8554   37.1710 C   0  0  0  0  0  0  0  0  0  0  0  0
   36.0213  -22.1476   38.1833 C   0  0  0  0  0  0  0  0  0  0  0  0
   35.3594  -21.9324   41.3817 C   0  0  0  0  0  0  0  0  0  0  0  0
   36.7708  -21.6392   41.5625 N   0  0  0  0  0  0  0  0  0  0  0  0
   37.8675  -22.4551   41.4909 C   0  0  0  0  0  0  0  0  0  0  0  0
   37.7761  -23.6748   41.2298 O   0  0  0  0  0  0  0  0  0  0  0  0
   36.9225  -20.5970   41.7827 H   0  0  0  0  0  0  0  0  0  0  0  0
   39.1308  -21.9458   41.7121 O   0  0  0  0  0  0  0  0  0  0  0  0
   39.2787  -20.7483   42.4433 C   0  0  0  0  0  0  0  0  0  0  0  0
   40.5484  -20.1356   41.9993 C   0  0  0  0  0  0  0  0  0  0  0  0
   40.8315  -20.0529   40.6668 C   0  0  0  0  0  0  0  0  0  0  0  0
   42.0087  -19.4774   40.2257 C   0  0  0  0  0  0  0  0  0  0  0  0
   42.8731  -18.9964   41.1757 C   0  0  0  0  0  0  0  0  0  0  0  0
   42.6073  -19.0701   42.5186 C   0  0  0  0  0  0  0  0  0  0  0  0
   41.4231  -19.6508   42.9284 C   0  0  0  0  0  0  0  0  0  0  0  0
   34.5998  -21.4718   42.6155 C   0  0  0  0  0  0  0  0  0  0  0  0
   33.9797  -22.6201   43.3648 C   0  0  0  0  0  0  0  0  0  0  0  0
   35.0154  -19.1791   43.5147 C   0  0  0  0  0  0  0  0  0  0  0  0
   35.4983  -20.6250   43.5102 C   0  0  0  0  0  0  0  0  0  0  0  0
   37.9959  -19.5020   35.0309 C   0  0  0  0  0  0  0  0  0  0  0  0
   38.5534  -18.8842   34.1035 O   0  0  0  0  0  0  0  0  0  0  0  0
   36.8638  -18.8741   35.6443 N   0  0  0  0  0  0  0  0  0  0  0  0
   36.3631  -19.3512   36.4264 H   0  0  0  0  0  0  0  0  0  0  0  0
   36.3459  -17.5871   35.2531 C   0  0  0  0  0  0  0  0  0  0  0  0
   36.2603  -16.7455   36.4911 C   0  0  0  0  0  0  0  0  0  0  0  0
   36.1132  -17.3213   37.5878 O   0  0  0  0  0  0  0  0  0  0  0  0
   36.3397  -15.3499   36.4374 N   0  0  0  0  0  0  0  0  0  0  0  0
   36.4714  -14.8952   35.4848 H   0  0  0  0  0  0  0  0  0  0  0  0
   36.2602  -14.4617   37.5565 C   0  0  0  0  0  0  0  0  0  0  0  0
   35.2457  -13.4185   37.3120 C   0  0  0  0  0  0  0  0  0  0  0  0
   35.4725  -12.4781   36.5057 O   0  0  0  0  0  0  0  0  0  0  0  0
   34.0149  -13.4612   37.9759 N   0  0  0  0  0  0  0  0  0  0  0  0
   33.8198  -14.2499   38.6496 H   0  0  0  0  0  0  0  0  0  0  0  0
   32.9529  -12.4970   37.8226 C   0  0  0  0  0  0  0  0  0  0  0  0
   32.0299  -12.5071   38.9784 C   0  0  0  0  0  0  0  0  0  0  0  0
   30.6990  -12.2421   38.8070 O   0  0  0  0  0  0  0  0  0  0  0  0
   32.4731  -12.7603   40.1240 O   0  0  0  0  0  0  0  0  0  0  0  0
   30.1545  -11.6425   39.3964 H   0  0  0  0  0  0  0  0  0  0  0  0
   32.2100  -12.6192   36.5088 C   0  0  0  0  0  0  0  0  0  0  0  0
   32.6700  -13.6343   35.7092 O   0  0  0  0  0  0  0  0  0  0  0  0
   31.9841  -14.1223   35.2008 H   0  0  0  0  0  0  0  0  0  0  0  0
   37.6143  -13.8588   37.8971 C   0  0  0  0  0  0  0  0  0  0  0  0
   38.2683  -13.3019   36.8299 O   0  0  0  0  0  0  0  0  0  0  0  0
   39.1849  -13.0942   37.0965 H   0  0  0  0  0  0  0  0  0  0  0  0
   34.9913  -17.5991   34.6380 C   0  0  0  0  0  0  0  0  0  0  0  0
   34.1019  -18.7441   34.9333 C   0  0  0  0  0  0  0  0  0  0  0  0
   33.8671  -19.7363   33.8578 C   0  0  0  0  0  0  0  0  0  0  0  0
   32.8080  -18.1945   35.5170 C   0  0  0  0  0  0  0  0  0  0  0  0
   39.0530  -21.5451   34.3238 C   0  0  0  0  0  0  0  0  0  0  0  0
   40.5058  -21.8484   34.3285 C   0  0  0  0  0  0  0  0  0  0  0  0
   41.0480  -21.7035   35.7703 C   0  0  0  0  0  0  0  0  0  0  0  0
   41.3740  -20.9788   33.4912 C   0  0  0  0  0  0  0  0  0  0  0  0
 28 29  1  0  0  0
 29 26  1  0  0  0
 26 27  1  0  0  0
 26 13  1  0  0  0
 13 14  1  0  0  0
 14 15  1  0  0  0
 15 16  2  0  0  0
 15 18  1  0  0  0
 18 19  1  0  0  0
 19 20  1  0  0  0
 20 21  2  0  0  0
 21 22  1  0  0  0
 22 23  2  0  0  0
 23 24  1  0  0  0
 24 25  2  0  0  0
 13  6  1  0  0  0
  6  7  2  0  0  0
  6  8  1  0  0  0
  8  9  1  0  0  0
  9 10  1  0  0  0
 10 11  1  0  0  0
 11 12  1  0  0  0
 12  2  1  0  0  0
  2  3  2  0  0  0
  2  4  1  0  0  0
  4  1  1  0  0  0
  1 59  1  0  0  0
 59 60  1  0  0  0
 60 61  1  0  0  0
 60 62  1  0  0  0
  1 30  1  0  0  0
 30 31  2  0  0  0
 30 32  1  0  0  0
 32 34  1  0  0  0
 34 55  1  0  0  0
 55 56  1  0  0  0
 56 57  1  0  0  0
 56 58  1  0  0  0
 34 35  1  0  0  0
 35 36  2  0  0  0
 35 37  1  0  0  0
 37 39  1  0  0  0
 39 52  1  0  0  0
 52 53  1  0  0  0
 39 40  1  0  0  0
 40 41  2  0  0  0
 40 42  1  0  0  0
 42 44  1  0  0  0
 44 49  1  0  0  0
 49 50  1  0  0  0
 44 45  1  0  0  0
 45 46  1  0  0  0
 45 47  2  0  0  0
 25 20  1  0  0  0
 12  8  1  0  0  0
 14 17  1  0  0  0
  4  5  1  0  0  0
 32 33  1  0  0  0
 37 38  1  0  0  0
 53 54  1  0  0  0
 42 43  1  0  0  0
 50 51  1  0  0  0
 46 48  1  0  0  0
M  END
> <minimizedAffinity>
-6.79900

> <CNNscore>
0.2821082175

> <CNNaffinity>
6.7425842285

> <CNN_VS>
1.9021384716

> <CNNaffinity_variance>
0.5271829963

$$$$
[H]OC(=O)[C@@]([H])(N([H])C(=O)[C@@]([H])(N([H])C(=O)[C@@]([H])(N([H])C(=O)[C@@]([H])(N([H])C(=O)[C@@]1([H])N(C(=O)[C@@]([H])(N([H])C(=O)OC([H])([H])c2c([H])c([H])c([H])c([H])c2[H])[C@@]([H])(C([H])([H])[H])C([H])([H])C([H])([H])[H])C([H])([H])C([H])([H])C1([H])[H])C([H])([H])C([H])(C([H])([H])[H])C([H])([H])[H])C([H])([H])C([H])(C([H])([H])[H])C([H])([H])[H])C([H])([H])O[H])C([H])([H])O[H]


 62 63  0  0  0  0  0  0  0  0999 V2000
   36.4736  -16.7828   36.2980 C   0  0  0  0  0  0  0  0  0  0  0  0
   38.3480  -18.4993   36.2466 C   0  0  0  0  0  0  0  0  0  0  0  0
   38.1091  -18.8955   37.4055 O   0  0  0  0  0  0  0  0  0  0  0  0
   37.5578  -17.4774   35.6815 N   0  0  0  0  0  0  0  0  0  0  0  0
   37.8163  -17.2074   34.6755 H   0  0  0  0  0  0  0  0  0  0  0  0
   40.3173  -21.4241   36.1421 C   0  0  0  0  0  0  0  0  0  0  0  0
   39.9753  -22.6790   36.0398 O   0  0  0  0  0  0  0  0  0  0  0  0
   39.4713  -20.5297   35.5113 N   0  0  0  0  0  0  0  0  0  0  0  0
   38.3148  -20.9110   34.6896 C   0  0  0  0  0  0  0  0  0  0  0  0
   38.6180  -20.0409   33.4561 C   0  0  0  0  0  0  0  0  0  0  0  0
   39.3931  -18.8425   33.9929 C   0  0  0  0  0  0  0  0  0  0  0  0
   39.4572  -19.1051   35.4871 C   0  0  0  0  0  0  0  0  0  0  0  0
   41.5459  -21.1853   36.9096 C   0  0  0  0  0  0  0  0  0  0  0  0
   41.3950  -21.5571   38.3059 N   0  0  0  0  0  0  0  0  0  0  0  0
   41.3829  -20.7872   39.4375 C   0  0  0  0  0  0  0  0  0  0  0  0
   41.5085  -19.5434   39.4000 O   0  0  0  0  0  0  0  0  0  0  0  0
   41.2726  -22.6210   38.4101 H   0  0  0  0  0  0  0  0  0  0  0  0
   41.2314  -21.3731   40.6777 O   0  0  0  0  0  0  0  0  0  0  0  0
   40.1276  -22.2190   40.9162 C   0  0  0  0  0  0  0  0  0  0  0  0
   39.2423  -21.5035   41.8590 C   0  0  0  0  0  0  0  0  0  0  0  0
   37.8924  -21.6959   41.7998 C   0  0  0  0  0  0  0  0  0  0  0  0
   37.0437  -21.0444   42.6755 C   0  0  0  0  0  0  0  0  0  0  0  0
   37.6105  -20.2038   43.5991 C   0  0  0  0  0  0  0  0  0  0  0  0
   38.9636  -19.9969   43.6745 C   0  0  0  0  0  0  0  0  0  0  0  0
   39.7858  -20.6618   42.7860 C   0  0  0  0  0  0  0  0  0  0  0  0
   42.6411  -22.0384   36.2896 C   0  0  0  0  0  0  0  0  0  0  0  0
   42.8263  -21.7513   34.8240 C   0  0  0  0  0  0  0  0  0  0  0  0
   44.4653  -20.4609   36.9385 C   0  0  0  0  0  0  0  0  0  0  0  0
   43.9421  -21.8866   37.0700 C   0  0  0  0  0  0  0  0  0  0  0  0
   35.2205  -17.6167   36.2079 C   0  0  0  0  0  0  0  0  0  0  0  0
   34.2132  -17.2285   35.5855 O   0  0  0  0  0  0  0  0  0  0  0  0
   35.1421  -18.9005   36.8388 N   0  0  0  0  0  0  0  0  0  0  0  0
   35.9596  -19.2697   37.3731 H   0  0  0  0  0  0  0  0  0  0  0  0
   33.9793  -19.7509   36.7937 C   0  0  0  0  0  0  0  0  0  0  0  0
   34.0284  -20.6384   38.0012 C   0  0  0  0  0  0  0  0  0  0  0  0
   34.4473  -20.1558   39.0723 O   0  0  0  0  0  0  0  0  0  0  0  0
   33.6207  -21.9755   37.9470 N   0  0  0  0  0  0  0  0  0  0  0  0
   33.2636  -22.3496   37.0175 H   0  0  0  0  0  0  0  0  0  0  0  0
   33.6375  -22.9022   39.0373 C   0  0  0  0  0  0  0  0  0  0  0  0
   34.4127  -24.1047   38.6761 C   0  0  0  0  0  0  0  0  0  0  0  0
   33.9696  -25.2555   38.9316 O   0  0  0  0  0  0  0  0  0  0  0  0
   35.6544  -23.9807   38.0433 N   0  0  0  0  0  0  0  0  0  0  0  0
   36.0272  -23.0179   37.8242 H   0  0  0  0  0  0  0  0  0  0  0  0
   36.5015  -25.0801   37.6502 C   0  0  0  0  0  0  0  0  0  0  0  0
   37.7679  -25.0991   38.4143 C   0  0  0  0  0  0  0  0  0  0  0  0
   37.7991  -24.6857   39.7178 O   0  0  0  0  0  0  0  0  0  0  0  0
   38.8204  -25.4974   37.8608 O   0  0  0  0  0  0  0  0  0  0  0  0
   38.5002  -24.0887   40.1120 H   0  0  0  0  0  0  0  0  0  0  0  0
   36.7444  -25.1529   36.1574 C   0  0  0  0  0  0  0  0  0  0  0  0
   37.5055  -24.1196   35.6730 O   0  0  0  0  0  0  0  0  0  0  0  0
   38.1397  -24.3540   34.9590 H   0  0  0  0  0  0  0  0  0  0  0  0
   32.2327  -23.2578   39.4988 C   0  0  0  0  0  0  0  0  0  0  0  0
   31.2335  -22.7034   38.7430 O   0  0  0  0  0  0  0  0  0  0  0  0
   30.3810  -22.8401   39.2001 H   0  0  0  0  0  0  0  0  0  0  0  0
   33.8769  -20.6375   35.6033 C   0  0  0  0  0  0  0  0  0  0  0  0
   32.5666  -20.7438   34.9242 C   0  0  0  0  0  0  0  0  0  0  0  0
   32.0994  -22.0921   34.5239 C   0  0  0  0  0  0  0  0  0  0  0  0
   32.5554  -19.7524   33.7692 C   0  0  0  0  0  0  0  0  0  0  0  0
   36.1478  -15.4350   35.7928 C   0  0  0  0  0  0  0  0  0  0  0  0
   36.2401  -14.2908   36.7335 C   0  0  0  0  0  0  0  0  0  0  0  0
   37.1652  -14.6780   37.9116 C   0  0  0  0  0  0  0  0  0  0  0  0
   34.9712  -13.8358   37.3611 C   0  0  0  0  0  0  0  0  0  0  0  0
 28 29  1  0  0  0
 29 26  1  0  0  0
 26 27  1  0  0  0
 26 13  1  0  0  0
 13 14  1  0  0  0
 14 15  1  0  0  0
 15 16  2  0  0  0
 15 18  1  0  0  0
 18 19  1  0  0  0
 19 20  1  0  0  0
 20 21  2  0  0  0
 21 22  1  0  0  0
 22 23  2  0  0  0
 23 24  1  0  0  0
 24 25  2  0  0  0
 13  6  1  0  0  0
  6  7  2  0  0  0
  6  8  1  0  0  0
  8  9  1  0  0  0
  9 10  1  0  0  0
 10 11  1  0  0  0
 11 12  1  0  0  0
 12  2  1  0  0  0
  2  3  2  0  0  0
  2  4  1  0  0  0
  4  1  1  0  0  0
  1 59  1  0  0  0
 59 60  1  0  0  0
 60 61  1  0  0  0
 60 62  1  0  0  0
  1 30  1  0  0  0
 30 31  2  0  0  0
 30 32  1  0  0  0
 32 34  1  0  0  0
 34 55  1  0  0  0
 55 56  1  0  0  0
 56 57  1  0  0  0
 56 58  1  0  0  0
 34 35  1  0  0  0
 35 36  2  0  0  0
 35 37  1  0  0  0
 37 39  1  0  0  0
 39 52  1  0  0  0
 52 53  1  0  0  0
 39 40  1  0  0  0
 40 41  2  0  0  0
 40 42  1  0  0  0
 42 44  1  0  0  0
 44 49  1  0  0  0
 49 50  1  0  0  0
 44 45  1  0  0  0
 45 46  1  0  0  0
 45 47  2  0  0  0
 25 20  1  0  0  0
 12  8  1  0  0  0
 14 17  1  0  0  0
  4  5  1  0  0  0
 32 33  1  0  0  0
 37 38  1  0  0  0
 53 54  1  0  0  0
 42 43  1  0  0  0
 50 51  1  0  0  0
 46 48  1  0  0  0
M  END
> <minimizedAffinity>
-5.04474

> <CNNscore>
0.2649110258

> <CNNaffinity>
6.1619195938

> <CNN_VS>
1.6323604584

> <CNNaffinity_variance>
0.4193006456

$$$$
[H]OC(=O)[C@@]([H])(N([H])C(=O)[C@@]([H])(N([H])C(=O)[C@@]([H])(N([H])C(=O)[C@@]([H])(N([H])C(=O)[C@@]1([H])N(C(=O)[C@@]([H])(N([H])C(=O)OC([H])([H])c2c([H])c([H])c([H])c([H])c2[H])[C@@]([H])(C([H])([H])[H])C([H])([H])C([H])([H])[H])C([H])([H])C([H])([H])C1([H])[H])C([H])([H])C([H])(C([H])([H])[H])C([H])([H])[H])C([H])([H])C([H])(C([H])([H])[H])C([H])([H])[H])C([H])([H])O[H])C([H])([H])O[H]


 62 63  0  0  0  0  0  0  0  0999 V2000
   36.6195  -17.3675   36.6067 C   0  0  0  0  0  0  0  0  0  0  0  0
   38.6751  -18.8060   36.1976 C   0  0  0  0  0  0  0  0  0  0  0  0
   38.5341  -19.4320   37.2678 O   0  0  0  0  0  0  0  0  0  0  0  0
   37.7486  -17.8020   35.8489 N   0  0  0  0  0  0  0  0  0  0  0  0
   37.9302  -17.3245   34.9050 H   0  0  0  0  0  0  0  0  0  0  0  0
   40.9540  -21.4072   35.5017 C   0  0  0  0  0  0  0  0  0  0  0  0
   40.7509  -22.6526   35.1704 O   0  0  0  0  0  0  0  0  0  0  0  0
   39.9874  -20.5173   35.0688 N   0  0  0  0  0  0  0  0  0  0  0  0
   38.8476  -20.8730   34.2129 C   0  0  0  0  0  0  0  0  0  0  0  0
   38.9996  -19.7592   33.1607 C   0  0  0  0  0  0  0  0  0  0  0  0
   39.6572  -18.5985   33.8993 C   0  0  0  0  0  0  0  0  0  0  0  0
   39.8125  -19.1248   35.3152 C   0  0  0  0  0  0  0  0  0  0  0  0
   42.1790  -21.1719   36.2761 C   0  0  0  0  0  0  0  0  0  0  0  0
   41.9003  -20.9832   37.6894 N   0  0  0  0  0  0  0  0  0  0  0  0
   41.8309  -19.8406   38.4399 C   0  0  0  0  0  0  0  0  0  0  0  0
   42.0131  -18.7059   37.9465 O   0  0  0  0  0  0  0  0  0  0  0  0
   41.7238  -21.9263   38.1764 H   0  0  0  0  0  0  0  0  0  0  0  0
   41.5550  -19.9093   39.7902 O   0  0  0  0  0  0  0  0  0  0  0  0
   42.2210  -19.0404   40.6803 C   0  0  0  0  0  0  0  0  0  0  0  0
   41.7992  -19.4265   42.0433 C   0  0  0  0  0  0  0  0  0  0  0  0
   40.5250  -19.8648   42.2598 C   0  0  0  0  0  0  0  0  0  0  0  0
   40.1084  -20.2392   43.5239 C   0  0  0  0  0  0  0  0  0  0  0  0
   41.0220  -20.1527   44.5431 C   0  0  0  0  0  0  0  0  0  0  0  0
   42.3062  -19.7147   44.3463 C   0  0  0  0  0  0  0  0  0  0  0  0
   42.6927  -19.3476   43.0722 C   0  0  0  0  0  0  0  0  0  0  0  0
   43.0635  -22.3971   36.1090 C   0  0  0  0  0  0  0  0  0  0  0  0
   44.3382  -22.0838   35.3731 C   0  0  0  0  0  0  0  0  0  0  0  0
   42.8253  -24.4894   37.4517 C   0  0  0  0  0  0  0  0  0  0  0  0
   43.3303  -23.0512   37.4602 C   0  0  0  0  0  0  0  0  0  0  0  0
   35.7353  -18.5478   36.9213 C   0  0  0  0  0  0  0  0  0  0  0  0
   35.5062  -18.9067   38.0923 O   0  0  0  0  0  0  0  0  0  0  0  0
   35.1173  -19.3058   35.8745 N   0  0  0  0  0  0  0  0  0  0  0  0
   35.2792  -19.0452   34.8765 H   0  0  0  0  0  0  0  0  0  0  0  0
   34.2611  -20.4430   36.1007 C   0  0  0  0  0  0  0  0  0  0  0  0
   32.8505  -19.9369   36.1494 C   0  0  0  0  0  0  0  0  0  0  0  0
   32.6656  -18.7035   36.1619 O   0  0  0  0  0  0  0  0  0  0  0  0
   31.7578  -20.8098   36.1820 N   0  0  0  0  0  0  0  0  0  0  0  0
   31.9550  -21.8548   36.1637 H   0  0  0  0  0  0  0  0  0  0  0  0
   30.3802  -20.4269   36.2378 C   0  0  0  0  0  0  0  0  0  0  0  0
   29.5534  -21.5546   36.7091 C   0  0  0  0  0  0  0  0  0  0  0  0
   29.0687  -21.5543   37.8714 O   0  0  0  0  0  0  0  0  0  0  0  0
   29.2973  -22.6425   35.8674 N   0  0  0  0  0  0  0  0  0  0  0  0
   29.6988  -22.6446   34.8913 H   0  0  0  0  0  0  0  0  0  0  0  0
   28.5117  -23.8000   36.2193 C   0  0  0  0  0  0  0  0  0  0  0  0
   29.1583  -25.0569   35.7830 C   0  0  0  0  0  0  0  0  0  0  0  0
   28.9652  -26.2165   36.4822 O   0  0  0  0  0  0  0  0  0  0  0  0
   29.8891  -25.0572   34.7639 O   0  0  0  0  0  0  0  0  0  0  0  0
   29.6887  -26.8656   36.7245 H   0  0  0  0  0  0  0  0  0  0  0  0
   27.0724  -23.7179   35.7561 C   0  0  0  0  0  0  0  0  0  0  0  0
   26.7018  -24.7464   34.9276 O   0  0  0  0  0  0  0  0  0  0  0  0
   25.7850  -25.0817   35.0463 H   0  0  0  0  0  0  0  0  0  0  0  0
   29.8880  -19.8898   34.9028 C   0  0  0  0  0  0  0  0  0  0  0  0
   29.8972  -18.5231   34.8068 O   0  0  0  0  0  0  0  0  0  0  0  0
   29.4157  -18.2617   33.9980 H   0  0  0  0  0  0  0  0  0  0  0  0
   34.5023  -21.1879   37.3658 C   0  0  0  0  0  0  0  0  0  0  0  0
   35.3169  -22.4216   37.3037 C   0  0  0  0  0  0  0  0  0  0  0  0
   34.6079  -23.7156   37.1653 C   0  0  0  0  0  0  0  0  0  0  0  0
   36.2832  -22.4051   38.4797 C   0  0  0  0  0  0  0  0  0  0  0  0
   35.7653  -16.3158   36.0216 C   0  0  0  0  0  0  0  0  0  0  0  0
   36.1642  -14.8992   36.2133 C   0  0  0  0  0  0  0  0  0  0  0  0
   36.8740  -14.7542   37.5804 C   0  0  0  0  0  0  0  0  0  0  0  0
   35.0707  -13.8917   36.2277 C   0  0  0  0  0  0  0  0  0  0  0  0
 28 29  1  0  0  0
 29 26  1  0  0  0
 26 27  1  0  0  0
 26 13  1  0  0  0
 13 14  1  0  0  0
 14 15  1  0  0  0
 15 16  2  0  0  0
 15 18  1  0  0  0
 18 19  1  0  0  0
 19 20  1  0  0  0
 20 21  2  0  0  0
 21 22  1  0  0  0
 22 23  2  0  0  0
 23 24  1  0  0  0
 24 25  2  0  0  0
 13  6  1  0  0  0
  6  7  2  0  0  0
  6  8  1  0  0  0
  8  9  1  0  0  0
  9 10  1  0  0  0
 10 11  1  0  0  0
 11 12  1  0  0  0
 12  2  1  0  0  0
  2  3  2  0  0  0
  2  4  1  0  0  0
  4  1  1  0  0  0
  1 59  1  0  0  0
 59 60  1  0  0  0
 60 61  1  0  0  0
 60 62  1  0  0  0
  1 30  1  0  0  0
 30 31  2  0  0  0
 30 32  1  0  0  0
 32 34  1  0  0  0
 34 55  1  0  0  0
 55 56  1  0  0  0
 56 57  1  0  0  0
 56 58  1  0  0  0
 34 35  1  0  0  0
 35 36  2  0  0  0
 35 37  1  0  0  0
 37 39  1  0  0  0
 39 52  1  0  0  0
 52 53  1  0  0  0
 39 40  1  0  0  0
 40 41  2  0  0  0
 40 42  1  0  0  0
 42 44  1  0  0  0
 44 49  1  0  0  0
 49 50  1  0  0  0
 44 45  1  0  0  0
 45 46  1  0  0  0
 45 47  2  0  0  0
 25 20  1  0  0  0
 12  8  1  0  0  0
 14 17  1  0  0  0
  4  5  1  0  0  0
 32 33  1  0  0  0
 37 38  1  0  0  0
 53 54  1  0  0  0
 42 43  1  0  0  0
 50 51  1  0  0  0
 46 48  1  0  0  0
M  END
> <minimizedAffinity>
-5.77433

> <CNNscore>
0.2184009552

> <CNNaffinity>
6.4001493454

> <CNN_VS>
1.3977987766

> <CNNaffinity_variance>
0.0945896283

$$$$
[H]OC(=O)[C@@]([H])(N([H])C(=O)[C@@]([H])(N([H])C(=O)[C@@]([H])(N([H])C(=O)[C@@]([H])(N([H])C(=O)[C@@]1([H])N(C(=O)[C@@]([H])(N([H])C(=O)OC([H])([H])c2c([H])c([H])c([H])c([H])c2[H])[C@@]([H])(C([H])([H])[H])C([H])([H])C([H])([H])[H])C([H])([H])C([H])([H])C1([H])[H])C([H])([H])C([H])(C([H])([H])[H])C([H])([H])[H])C([H])([H])C([H])(C([H])([H])[H])C([H])([H])[H])C([H])([H])O[H])C([H])([H])O[H]


 62 63  0  0  0  0  0  0  0  0999 V2000
   36.4149  -21.5043   37.3942 C   0  0  0  0  0  0  0  0  0  0  0  0
   34.4598  -19.9082   37.0907 C   0  0  0  0  0  0  0  0  0  0  0  0
   33.7726  -20.4755   37.9643 O   0  0  0  0  0  0  0  0  0  0  0  0
   35.7548  -20.3854   36.8023 N   0  0  0  0  0  0  0  0  0  0  0  0
   36.2863  -19.8314   36.0523 H   0  0  0  0  0  0  0  0  0  0  0  0
   35.4535  -17.2680   34.9727 C   0  0  0  0  0  0  0  0  0  0  0  0
   36.0800  -17.2828   33.8284 O   0  0  0  0  0  0  0  0  0  0  0  0
   34.6478  -18.3656   35.2172 N   0  0  0  0  0  0  0  0  0  0  0  0
   34.3987  -19.4496   34.2575 C   0  0  0  0  0  0  0  0  0  0  0  0
   32.8622  -19.4850   34.3511 C   0  0  0  0  0  0  0  0  0  0  0  0
   32.5364  -19.0024   35.7605 C   0  0  0  0  0  0  0  0  0  0  0  0
   33.9035  -18.7480   36.3705 C   0  0  0  0  0  0  0  0  0  0  0  0
   35.7151  -16.0826   35.7983 C   0  0  0  0  0  0  0  0  0  0  0  0
   34.4924  -15.3723   36.1317 N   0  0  0  0  0  0  0  0  0  0  0  0
   34.2201  -14.0312   36.1623 C   0  0  0  0  0  0  0  0  0  0  0  0
   35.0786  -13.1691   35.8725 O   0  0  0  0  0  0  0  0  0  0  0  0
   33.7042  -16.0598   36.3841 H   0  0  0  0  0  0  0  0  0  0  0  0
   32.9662  -13.5826   36.5238 O   0  0  0  0  0  0  0  0  0  0  0  0
   32.7599  -13.0676   37.8211 C   0  0  0  0  0  0  0  0  0  0  0  0
   32.3920  -11.6454   37.6582 C   0  0  0  0  0  0  0  0  0  0  0  0
   33.3632  -10.6869   37.6835 C   0  0  0  0  0  0  0  0  0  0  0  0
   33.0457   -9.3505   37.5257 C   0  0  0  0  0  0  0  0  0  0  0  0
   31.7245   -9.0309   37.3435 C   0  0  0  0  0  0  0  0  0  0  0  0
   30.7343   -9.9786   37.3153 C   0  0  0  0  0  0  0  0  0  0  0  0
   31.0826  -11.3054   37.4760 C   0  0  0  0  0  0  0  0  0  0  0  0
   36.3714  -16.5609   37.0836 C   0  0  0  0  0  0  0  0  0  0  0  0
   37.6618  -17.2915   36.8270 C   0  0  0  0  0  0  0  0  0  0  0  0
   37.6722  -14.4834   37.5626 C   0  0  0  0  0  0  0  0  0  0  0  0
   36.5563  -15.3987   38.0531 C   0  0  0  0  0  0  0  0  0  0  0  0
   37.8860  -21.4567   37.0666 C   0  0  0  0  0  0  0  0  0  0  0  0
   38.3775  -22.1296   36.1402 O   0  0  0  0  0  0  0  0  0  0  0  0
   38.7814  -20.6253   37.8144 N   0  0  0  0  0  0  0  0  0  0  0  0
   38.4180  -20.0431   38.6012 H   0  0  0  0  0  0  0  0  0  0  0  0
   40.1964  -20.5293   37.5571 C   0  0  0  0  0  0  0  0  0  0  0  0
   40.9061  -20.8716   38.8329 C   0  0  0  0  0  0  0  0  0  0  0  0
   42.0473  -21.3693   38.7587 O   0  0  0  0  0  0  0  0  0  0  0  0
   40.3192  -20.6472   40.0828 N   0  0  0  0  0  0  0  0  0  0  0  0
   39.3474  -20.2155   40.1059 H   0  0  0  0  0  0  0  0  0  0  0  0
   40.9087  -20.9464   41.3518 C   0  0  0  0  0  0  0  0  0  0  0  0
   40.1311  -21.9916   42.0447 C   0  0  0  0  0  0  0  0  0  0  0  0
   38.8734  -22.0053   41.9809 O   0  0  0  0  0  0  0  0  0  0  0  0
   40.7838  -22.9839   42.7843 N   0  0  0  0  0  0  0  0  0  0  0  0
   41.8380  -22.9778   42.8369 H   0  0  0  0  0  0  0  0  0  0  0  0
   40.1311  -24.0486   43.5062 C   0  0  0  0  0  0  0  0  0  0  0  0
   39.6654  -23.6050   44.8382 C   0  0  0  0  0  0  0  0  0  0  0  0
   38.5346  -24.1392   45.3922 O   0  0  0  0  0  0  0  0  0  0  0  0
   40.3135  -22.7318   45.4629 O   0  0  0  0  0  0  0  0  0  0  0  0
   37.8170  -23.6107   45.8495 H   0  0  0  0  0  0  0  0  0  0  0  0
   40.9559  -25.3155   43.5921 C   0  0  0  0  0  0  0  0  0  0  0  0
   41.8924  -25.2952   44.5942 O   0  0  0  0  0  0  0  0  0  0  0  0
   42.0343  -26.1473   45.0641 H   0  0  0  0  0  0  0  0  0  0  0  0
   41.0646  -19.7009   42.2106 C   0  0  0  0  0  0  0  0  0  0  0  0
   40.0306  -19.4843   43.0829 O   0  0  0  0  0  0  0  0  0  0  0  0
   40.1255  -18.5912   43.4671 H   0  0  0  0  0  0  0  0  0  0  0  0
   40.6831  -19.1892   37.1320 C   0  0  0  0  0  0  0  0  0  0  0  0
   41.2959  -19.0634   35.7912 C   0  0  0  0  0  0  0  0  0  0  0  0
   40.9869  -20.1076   34.7859 C   0  0  0  0  0  0  0  0  0  0  0  0
   42.7919  -18.8528   35.9772 C   0  0  0  0  0  0  0  0  0  0  0  0
   35.9252  -22.8520   37.0449 C   0  0  0  0  0  0  0  0  0  0  0  0
   35.5115  -23.7565   38.1463 C   0  0  0  0  0  0  0  0  0  0  0  0
   34.0631  -24.2363   37.8898 C   0  0  0  0  0  0  0  0  0  0  0  0
   35.4994  -23.1805   39.5172 C   0  0  0  0  0  0  0  0  0  0  0  0
 28 29  1  0  0  0
 29 26  1  0  0  0
 26 27  1  0  0  0
 26 13  1  0  0  0
 13 14  1  0  0  0
 14 15  1  0  0  0
 15 16  2  0  0  0
 15 18  1  0  0  0
 18 19  1  0  0  0
 19 20  1  0  0  0
 20 21  2  0  0  0
 21 22  1  0  0  0
 22 23  2  0  0  0
 23 24  1  0  0  0
 24 25  2  0  0  0
 13  6  1  0  0  0
  6  7  2  0  0  0
  6  8  1  0  0  0
  8  9  1  0  0  0
  9 10  1  0  0  0
 10 11  1  0  0  0
 11 12  1  0  0  0
 12  2  1  0  0  0
  2  3  2  0  0  0
  2  4  1  0  0  0
  4  1  1  0  0  0
  1 59  1  0  0  0
 59 60  1  0  0  0
 60 61  1  0  0  0
 60 62  1  0  0  0
  1 30  1  0  0  0
 30 31  2  0  0  0
 30 32  1  0  0  0
 32 34  1  0  0  0
 34 55  1  0  0  0
 55 56  1  0  0  0
 56 57  1  0  0  0
 56 58  1  0  0  0
 34 35  1  0  0  0
 35 36  2  0  0  0
 35 37  1  0  0  0
 37 39  1  0  0  0
 39 52  1  0  0  0
 52 53  1  0  0  0
 39 40  1  0  0  0
 40 41  2  0  0  0
 40 42  1  0  0  0
 42 44  1  0  0  0
 44 49  1  0  0  0
 49 50  1  0  0  0
 44 45  1  0  0  0
 45 46  1  0  0  0
 45 47  2  0  0  0
 25 20  1  0  0  0
 12  8  1  0  0  0
 14 17  1  0  0  0
  4  5  1  0  0  0
 32 33  1  0  0  0
 37 38  1  0  0  0
 53 54  1  0  0  0
 42 43  1  0  0  0
 50 51  1  0  0  0
 46 48  1  0  0  0
M  END
> <minimizedAffinity>
-5.96345

> <CNNscore>
0.2154968232

> <CNNaffinity>
6.0494642258

> <CNN_VS>
1.3036403656

> <CNNaffinity_variance>
0.6311922669

$$$$
[H]OC(=O)[C@@]([H])(N([H])C(=O)[C@@]([H])(N([H])C(=O)[C@@]([H])(N([H])C(=O)[C@@]([H])(N([H])C(=O)[C@@]1([H])N(C(=O)[C@@]([H])(N([H])C(=O)OC([H])([H])c2c([H])c([H])c([H])c([H])c2[H])[C@@]([H])(C([H])([H])[H])C([H])([H])C([H])([H])[H])C([H])([H])C([H])([H])C1([H])[H])C([H])([H])C([H])(C([H])([H])[H])C([H])([H])[H])C([H])([H])C([H])(C([H])([H])[H])C([H])([H])[H])C([H])([H])O[H])C([H])([H])O[H]


 62 63  0  0  0  0  0  0  0  0999 V2000
   38.7296  -18.9774   35.8026 C   0  0  0  0  0  0  0  0  0  0  0  0
   41.1807  -18.6909   36.4128 C   0  0  0  0  0  0  0  0  0  0  0  0
   41.4979  -18.3410   35.2577 O   0  0  0  0  0  0  0  0  0  0  0  0
   39.8357  -18.9965   36.7050 N   0  0  0  0  0  0  0  0  0  0  0  0
   39.6435  -19.2708   37.7246 H   0  0  0  0  0  0  0  0  0  0  0  0
   42.0712  -20.6195   39.2291 C   0  0  0  0  0  0  0  0  0  0  0  0
   42.2732  -21.9023   39.3546 O   0  0  0  0  0  0  0  0  0  0  0  0
   42.3937  -20.0907   37.9922 N   0  0  0  0  0  0  0  0  0  0  0  0
   43.0133  -20.8472   36.8959 C   0  0  0  0  0  0  0  0  0  0  0  0
   44.1525  -19.8669   36.5612 C   0  0  0  0  0  0  0  0  0  0  0  0
   43.6224  -18.4907   36.9488 C   0  0  0  0  0  0  0  0  0  0  0  0
   42.2205  -18.7826   37.4541 C   0  0  0  0  0  0  0  0  0  0  0  0
   41.5378  -19.9637   40.4295 C   0  0  0  0  0  0  0  0  0  0  0  0
   40.4649  -20.7322   41.0369 N   0  0  0  0  0  0  0  0  0  0  0  0
   39.2561  -21.1294   40.5323 C   0  0  0  0  0  0  0  0  0  0  0  0
   38.8963  -20.8537   39.3666 O   0  0  0  0  0  0  0  0  0  0  0  0
   40.7147  -21.0119   42.0454 H   0  0  0  0  0  0  0  0  0  0  0  0
   38.3808  -21.8578   41.3117 O   0  0  0  0  0  0  0  0  0  0  0  0
   37.0312  -21.9746   40.9169 C   0  0  0  0  0  0  0  0  0  0  0  0
   36.2606  -21.0382   41.7618 C   0  0  0  0  0  0  0  0  0  0  0  0
   35.1673  -20.4038   41.2471 C   0  0  0  0  0  0  0  0  0  0  0  0
   34.4253  -19.5293   42.0192 C   0  0  0  0  0  0  0  0  0  0  0  0
   34.8304  -19.3278   43.3140 C   0  0  0  0  0  0  0  0  0  0  0  0
   35.9256  -19.9550   43.8494 C   0  0  0  0  0  0  0  0  0  0  0  0
   36.6469  -20.8229   43.0532 C   0  0  0  0  0  0  0  0  0  0  0  0
   42.6800  -19.8423   41.4254 C   0  0  0  0  0  0  0  0  0  0  0  0
   43.9039  -19.2140   40.8154 C   0  0  0  0  0  0  0  0  0  0  0  0
   42.7542  -19.8004   43.9215 C   0  0  0  0  0  0  0  0  0  0  0  0
   42.2210  -19.1011   42.6763 C   0  0  0  0  0  0  0  0  0  0  0  0
   37.5687  -18.2551   36.4384 C   0  0  0  0  0  0  0  0  0  0  0  0
   37.0139  -18.6786   37.4706 O   0  0  0  0  0  0  0  0  0  0  0  0
   37.0577  -17.0412   35.8750 N   0  0  0  0  0  0  0  0  0  0  0  0
   37.4881  -16.6462   35.0097 H   0  0  0  0  0  0  0  0  0  0  0  0
   35.9536  -16.2981   36.4285 C   0  0  0  0  0  0  0  0  0  0  0  0
   34.6922  -16.9151   35.9027 C   0  0  0  0  0  0  0  0  0  0  0  0
   33.7917  -16.1574   35.4895 O   0  0  0  0  0  0  0  0  0  0  0  0
   34.5112  -18.3018   35.8698 N   0  0  0  0  0  0  0  0  0  0  0  0
   35.3039  -18.9157   36.2250 H   0  0  0  0  0  0  0  0  0  0  0  0
   33.3457  -18.9844   35.3973 C   0  0  0  0  0  0  0  0  0  0  0  0
   32.9561  -20.0483   36.3426 C   0  0  0  0  0  0  0  0  0  0  0  0
   33.5345  -20.1625   37.4555 O   0  0  0  0  0  0  0  0  0  0  0  0
   31.9357  -20.9470   36.0129 N   0  0  0  0  0  0  0  0  0  0  0  0
   31.4461  -20.8520   35.0826 H   0  0  0  0  0  0  0  0  0  0  0  0
   31.4751  -22.0270   36.8508 C   0  0  0  0  0  0  0  0  0  0  0  0
   31.8355  -23.3485   36.2924 C   0  0  0  0  0  0  0  0  0  0  0  0
   33.0983  -23.5829   35.8219 O   0  0  0  0  0  0  0  0  0  0  0  0
   30.9750  -24.2599   36.2505 O   0  0  0  0  0  0  0  0  0  0  0  0
   33.3108  -24.0535   34.9635 H   0  0  0  0  0  0  0  0  0  0  0  0
   30.0019  -21.9431   37.1907 C   0  0  0  0  0  0  0  0  0  0  0  0
   29.6889  -22.4753   38.4156 O   0  0  0  0  0  0  0  0  0  0  0  0
   28.9934  -22.0002   38.9230 H   0  0  0  0  0  0  0  0  0  0  0  0
   33.5403  -19.5278   33.9902 C   0  0  0  0  0  0  0  0  0  0  0  0
   34.8478  -19.7509   33.6475 O   0  0  0  0  0  0  0  0  0  0  0  0
   34.8947  -19.9337   32.6890 H   0  0  0  0  0  0  0  0  0  0  0  0
   35.9120  -14.8525   36.0790 C   0  0  0  0  0  0  0  0  0  0  0  0
   35.9601  -13.8672   37.1818 C   0  0  0  0  0  0  0  0  0  0  0  0
   35.0889  -12.6723   37.0838 C   0  0  0  0  0  0  0  0  0  0  0  0
   37.4191  -13.5107   37.4287 C   0  0  0  0  0  0  0  0  0  0  0  0
   38.2283  -20.2736   35.3059 C   0  0  0  0  0  0  0  0  0  0  0  0
   38.7524  -20.7810   34.0134 C   0  0  0  0  0  0  0  0  0  0  0  0
   39.9403  -21.7334   34.2882 C   0  0  0  0  0  0  0  0  0  0  0  0
   39.2721  -19.7675   33.0574 C   0  0  0  0  0  0  0  0  0  0  0  0
 28 29  1  0  0  0
 29 26  1  0  0  0
 26 27  1  0  0  0
 26 13  1  0  0  0
 13 14  1  0  0  0
 14 15  1  0  0  0
 15 16  2  0  0  0
 15 18  1  0  0  0
 18 19  1  0  0  0
 19 20  1  0  0  0
 20 21  2  0  0  0
 21 22  1  0  0  0
 22 23  2  0  0  0
 23 24  1  0  0  0
 24 25  2  0  0  0
 13  6  1  0  0  0
  6  7  2  0  0  0
  6  8  1  0  0  0
  8  9  1  0  0  0
  9 10  1  0  0  0
 10 11  1  0  0  0
 11 12  1  0  0  0
 12  2  1  0  0  0
  2  3  2  0  0  0
  2  4  1  0  0  0
  4  1  1  0  0  0
  1 59  1  0  0  0
 59 60  1  0  0  0
 60 61  1  0  0  0
 60 62  1  0  0  0
  1 30  1  0  0  0
 30 31  2  0  0  0
 30 32  1  0  0  0
 32 34  1  0  0  0
 34 55  1  0  0  0
 55 56  1  0  0  0
 56 57  1  0  0  0
 56 58  1  0  0  0
 34 35  1  0  0  0
 35 36  2  0  0  0
 35 37  1  0  0  0
 37 39  1  0  0  0
 39 52  1  0  0  0
 52 53  1  0  0  0
 39 40  1  0  0  0
 40 41  2  0  0  0
 40 42  1  0  0  0
 42 44  1  0  0  0
 44 49  1  0  0  0
 49 50  1  0  0  0
 44 45  1  0  0  0
 45 46  1  0  0  0
 45 47  2  0  0  0
 25 20  1  0  0  0
 12  8  1  0  0  0
 14 17  1  0  0  0
  4  5  1  0  0  0
 32 33  1  0  0  0
 37 38  1  0  0  0
 53 54  1  0  0  0
 42 43  1  0  0  0
 50 51  1  0  0  0
 46 48  1  0  0  0
M  END
> <minimizedAffinity>
-6.75477

> <CNNscore>
0.1739798486

> <CNNaffinity>
6.3356857300

> <CNN_VS>
1.1022816896

> <CNNaffinity_variance>
0.6984595060

$$$$
[H]OC(=O)[C@@]([H])(N([H])C(=O)[C@@]([H])(N([H])C(=O)[C@@]([H])(N([H])C(=O)[C@@]([H])(N([H])C(=O)[C@@]1([H])N(C(=O)[C@@]([H])(N([H])C(=O)OC([H])([H])c2c([H])c([H])c([H])c([H])c2[H])[C@@]([H])(C([H])([H])[H])C([H])([H])C([H])([H])[H])C([H])([H])C([H])([H])C1([H])[H])C([H])([H])C([H])(C([H])([H])[H])C([H])([H])[H])C([H])([H])C([H])(C([H])([H])[H])C([H])([H])[H])C([H])([H])O[H])C([H])([H])O[H]


 62 63  0  0  0  0  0  0  0  0999 V2000
   36.1688  -21.1542   38.2816 C   0  0  0  0  0  0  0  0  0  0  0  0
   34.2338  -20.0499   37.0577 C   0  0  0  0  0  0  0  0  0  0  0  0
   33.4946  -21.0472   37.1851 O   0  0  0  0  0  0  0  0  0  0  0  0
   35.5380  -20.0746   37.5926 N   0  0  0  0  0  0  0  0  0  0  0  0
   36.1019  -19.1717   37.4565 H   0  0  0  0  0  0  0  0  0  0  0  0
   35.3374  -17.4711   34.9185 C   0  0  0  0  0  0  0  0  0  0  0  0
   35.9424  -17.5218   33.7637 O   0  0  0  0  0  0  0  0  0  0  0  0
   34.4758  -18.5216   35.1786 N   0  0  0  0  0  0  0  0  0  0  0  0
   34.1499  -19.5906   34.2251 C   0  0  0  0  0  0  0  0  0  0  0  0
   32.6157  -19.5398   34.3450 C   0  0  0  0  0  0  0  0  0  0  0  0
   32.3417  -19.0387   35.7589 C   0  0  0  0  0  0  0  0  0  0  0  0
   33.7311  -18.8609   36.3451 C   0  0  0  0  0  0  0  0  0  0  0  0
   35.6791  -16.3016   35.7376 C   0  0  0  0  0  0  0  0  0  0  0  0
   34.4989  -15.5536   36.1354 N   0  0  0  0  0  0  0  0  0  0  0  0
   34.2512  -14.2074   36.1265 C   0  0  0  0  0  0  0  0  0  0  0  0
   35.0967  -13.3758   35.7293 O   0  0  0  0  0  0  0  0  0  0  0  0
   33.7231  -16.2138   36.4817 H   0  0  0  0  0  0  0  0  0  0  0  0
   33.0380  -13.7190   36.5668 O   0  0  0  0  0  0  0  0  0  0  0  0
   32.9434  -13.1540   37.8562 C   0  0  0  0  0  0  0  0  0  0  0  0
   32.4419  -11.7751   37.6782 C   0  0  0  0  0  0  0  0  0  0  0  0
   33.3119  -10.7250   37.7340 C   0  0  0  0  0  0  0  0  0  0  0  0
   32.8689   -9.4265   37.5629 C   0  0  0  0  0  0  0  0  0  0  0  0
   31.5293   -9.2393   37.3361 C   0  0  0  0  0  0  0  0  0  0  0  0
   30.6394  -10.2805   37.2768 C   0  0  0  0  0  0  0  0  0  0  0  0
   31.1121  -11.5664   37.4518 C   0  0  0  0  0  0  0  0  0  0  0  0
   36.3815  -16.8116   36.9858 C   0  0  0  0  0  0  0  0  0  0  0  0
   37.6835  -17.4959   36.6678 C   0  0  0  0  0  0  0  0  0  0  0  0
   37.6180  -14.7035   37.4999 C   0  0  0  0  0  0  0  0  0  0  0  0
   36.5611  -15.6836   37.9958 C   0  0  0  0  0  0  0  0  0  0  0  0
   35.8534  -21.0696   39.7537 C   0  0  0  0  0  0  0  0  0  0  0  0
   36.7492  -21.0106   40.6178 O   0  0  0  0  0  0  0  0  0  0  0  0
   34.4982  -21.0508   40.2175 N   0  0  0  0  0  0  0  0  0  0  0  0
   33.7118  -21.0991   39.5324 H   0  0  0  0  0  0  0  0  0  0  0  0
   34.1229  -20.9705   41.6069 C   0  0  0  0  0  0  0  0  0  0  0  0
   32.9401  -21.8710   41.8024 C   0  0  0  0  0  0  0  0  0  0  0  0
   32.7467  -22.7810   40.9716 O   0  0  0  0  0  0  0  0  0  0  0  0
   32.0645  -21.7094   42.8814 N   0  0  0  0  0  0  0  0  0  0  0  0
   32.2655  -20.9262   43.5725 H   0  0  0  0  0  0  0  0  0  0  0  0
   30.9076  -22.5079   43.1494 C   0  0  0  0  0  0  0  0  0  0  0  0
   29.8052  -21.6625   43.6468 C   0  0  0  0  0  0  0  0  0  0  0  0
   28.7071  -22.1748   43.9898 O   0  0  0  0  0  0  0  0  0  0  0  0
   29.9668  -20.2762   43.7434 N   0  0  0  0  0  0  0  0  0  0  0  0
   30.8871  -19.8437   43.4604 H   0  0  0  0  0  0  0  0  0  0  0  0
   28.9615  -19.3515   44.2074 C   0  0  0  0  0  0  0  0  0  0  0  0
   28.5247  -18.4306   43.1354 C   0  0  0  0  0  0  0  0  0  0  0  0
   27.2461  -17.9452   43.1149 O   0  0  0  0  0  0  0  0  0  0  0  0
   29.3343  -18.0937   42.2389 O   0  0  0  0  0  0  0  0  0  0  0  0
   26.6679  -17.8906   42.2987 H   0  0  0  0  0  0  0  0  0  0  0  0
   29.3600  -18.6044   45.4627 C   0  0  0  0  0  0  0  0  0  0  0  0
   30.1055  -17.4789   45.2195 O   0  0  0  0  0  0  0  0  0  0  0  0
   29.9232  -16.7105   45.8054 H   0  0  0  0  0  0  0  0  0  0  0  0
   31.2170  -23.6478   44.1075 C   0  0  0  0  0  0  0  0  0  0  0  0
   30.6755  -23.4970   45.3569 O   0  0  0  0  0  0  0  0  0  0  0  0
   31.0563  -24.1749   45.9483 H   0  0  0  0  0  0  0  0  0  0  0  0
   33.7284  -19.6195   42.0893 C   0  0  0  0  0  0  0  0  0  0  0  0
   34.4693  -19.0444   43.2337 C   0  0  0  0  0  0  0  0  0  0  0  0
   35.4216  -19.9210   43.9555 C   0  0  0  0  0  0  0  0  0  0  0  0
   33.4593  -18.3852   44.1624 C   0  0  0  0  0  0  0  0  0  0  0  0
   37.6322  -21.2904   38.1478 C   0  0  0  0  0  0  0  0  0  0  0  0
   38.1599  -22.2516   37.1476 C   0  0  0  0  0  0  0  0  0  0  0  0
   38.4019  -21.5095   35.8117 C   0  0  0  0  0  0  0  0  0  0  0  0
   37.2890  -23.4071   36.8050 C   0  0  0  0  0  0  0  0  0  0  0  0
 28 29  1  0  0  0
 29 26  1  0  0  0
 26 27  1  0  0  0
 26 13  1  0  0  0
 13 14  1  0  0  0
 14 15  1  0  0  0
 15 16  2  0  0  0
 15 18  1  0  0  0
 18 19  1  0  0  0
 19 20  1  0  0  0
 20 21  2  0  0  0
 21 22  1  0  0  0
 22 23  2  0  0  0
 23 24  1  0  0  0
 24 25  2  0  0  0
 13  6  1  0  0  0
  6  7  2  0  0  0
  6  8  1  0  0  0
  8  9  1  0  0  0
  9 10  1  0  0  0
 10 11  1  0  0  0
 11 12  1  0  0  0
 12  2  1  0  0  0
  2  3  2  0  0  0
  2  4  1  0  0  0
  4  1  1  0  0  0
  1 59  1  0  0  0
 59 60  1  0  0  0
 60 61  1  0  0  0
 60 62  1  0  0  0
  1 30  1  0  0  0
 30 31  2  0  0  0
 30 32  1  0  0  0
 32 34  1  0  0  0
 34 55  1  0  0  0
 55 56  1  0  0  0
 56 57  1  0  0  0
 56 58  1  0  0  0
 34 35  1  0  0  0
 35 36  2  0  0  0
 35 37  1  0  0  0
 37 39  1  0  0  0
 39 52  1  0  0  0
 52 53  1  0  0  0
 39 40  1  0  0  0
 40 41  2  0  0  0
 40 42  1  0  0  0
 42 44  1  0  0  0
 44 49  1  0  0  0
 49 50  1  0  0  0
 44 45  1  0  0  0
 45 46  1  0  0  0
 45 47  2  0  0  0
 25 20  1  0  0  0
 12  8  1  0  0  0
 14 17  1  0  0  0
  4  5  1  0  0  0
 32 33  1  0  0  0
 37 38  1  0  0  0
 53 54  1  0  0  0
 42 43  1  0  0  0
 50 51  1  0  0  0
 46 48  1  0  0  0
M  END
> <minimizedAffinity>
-5.97588

> <CNNscore>
0.1322528720

> <CNNaffinity>
5.7780723572

> <CNN_VS>
0.7641666532

> <CNNaffinity_variance>
0.4203840792

$$$$
[H]OC(=O)[C@@]([H])(N([H])C(=O)[C@@]([H])(N([H])C(=O)[C@@]([H])(N([H])C(=O)[C@@]([H])(N([H])C(=O)[C@@]1([H])N(C(=O)[C@@]([H])(N([H])C(=O)OC([H])([H])c2c([H])c([H])c([H])c([H])c2[H])[C@@]([H])(C([H])([H])[H])C([H])([H])C([H])([H])[H])C([H])([H])C([H])([H])C1([H])[H])C([H])([H])C([H])(C([H])([H])[H])C([H])([H])[H])C([H])([H])C([H])(C([H])([H])[H])C([H])([H])[H])C([H])([H])O[H])C([H])([H])O[H]


 62 63  0  0  0  0  0  0  0  0999 V2000
   35.8724  -20.7967   39.0807 C   0  0  0  0  0  0  0  0  0  0  0  0
   33.7169  -22.1006   39.4214 C   0  0  0  0  0  0  0  0  0  0  0  0
   33.2561  -21.2620   40.2224 O   0  0  0  0  0  0  0  0  0  0  0  0
   34.9860  -21.8905   38.8441 N   0  0  0  0  0  0  0  0  0  0  0  0
   35.3013  -22.6482   38.1525 H   0  0  0  0  0  0  0  0  0  0  0  0
   33.9966  -25.6154   39.3130 C   0  0  0  0  0  0  0  0  0  0  0  0
   34.3364  -26.4725   40.2361 O   0  0  0  0  0  0  0  0  0  0  0  0
   33.3504  -24.4814   39.7712 N   0  0  0  0  0  0  0  0  0  0  0  0
   32.9601  -24.2492   41.1684 C   0  0  0  0  0  0  0  0  0  0  0  0
   31.4951  -23.8409   40.9284 C   0  0  0  0  0  0  0  0  0  0  0  0
   31.4760  -23.2206   39.5355 C   0  0  0  0  0  0  0  0  0  0  0  0
   32.9266  -23.3015   39.0940 C   0  0  0  0  0  0  0  0  0  0  0  0
   34.3602  -26.0112   37.9467 C   0  0  0  0  0  0  0  0  0  0  0  0
   33.4328  -25.4805   36.9624 N   0  0  0  0  0  0  0  0  0  0  0  0
   32.2241  -25.9548   36.5293 C   0  0  0  0  0  0  0  0  0  0  0  0
   31.7201  -27.0074   36.9790 O   0  0  0  0  0  0  0  0  0  0  0  0
   33.8035  -24.5633   36.5392 H   0  0  0  0  0  0  0  0  0  0  0  0
   31.5137  -25.2730   35.5624 O   0  0  0  0  0  0  0  0  0  0  0  0
   31.9000  -23.9621   35.2116 C   0  0  0  0  0  0  0  0  0  0  0  0
   30.7569  -23.0831   35.5360 C   0  0  0  0  0  0  0  0  0  0  0  0
   29.4838  -23.5677   35.4509 C   0  0  0  0  0  0  0  0  0  0  0  0
   28.3981  -22.7680   35.7566 C   0  0  0  0  0  0  0  0  0  0  0  0
   28.6520  -21.4777   36.1461 C   0  0  0  0  0  0  0  0  0  0  0  0
   29.9230  -20.9721   36.2375 C   0  0  0  0  0  0  0  0  0  0  0  0
   30.9872  -21.7953   35.9255 C   0  0  0  0  0  0  0  0  0  0  0  0
   35.7465  -25.4531   37.6667 C   0  0  0  0  0  0  0  0  0  0  0  0
   35.7103  -24.2880   36.7149 C   0  0  0  0  0  0  0  0  0  0  0  0
   37.8533  -25.7088   38.9831 C   0  0  0  0  0  0  0  0  0  0  0  0
   36.4545  -25.1032   38.9709 C   0  0  0  0  0  0  0  0  0  0  0  0
   36.0400  -19.9966   37.8135 C   0  0  0  0  0  0  0  0  0  0  0  0
   36.7385  -20.4025   36.8648 O   0  0  0  0  0  0  0  0  0  0  0  0
   35.3934  -18.7287   37.6511 N   0  0  0  0  0  0  0  0  0  0  0  0
   34.7980  -18.3449   38.4181 H   0  0  0  0  0  0  0  0  0  0  0  0
   35.5077  -17.9114   36.4694 C   0  0  0  0  0  0  0  0  0  0  0  0
   35.7337  -16.5002   36.9231 C   0  0  0  0  0  0  0  0  0  0  0  0
   36.8783  -16.1765   37.2983 O   0  0  0  0  0  0  0  0  0  0  0  0
   34.7000  -15.5577   36.9338 N   0  0  0  0  0  0  0  0  0  0  0  0
   33.7390  -15.8693   36.6008 H   0  0  0  0  0  0  0  0  0  0  0  0
   34.8121  -14.1948   37.3551 C   0  0  0  0  0  0  0  0  0  0  0  0
   33.6127  -13.4342   36.9550 C   0  0  0  0  0  0  0  0  0  0  0  0
   33.1109  -13.5816   35.8094 O   0  0  0  0  0  0  0  0  0  0  0  0
   33.0162  -12.5360   37.8466 N   0  0  0  0  0  0  0  0  0  0  0  0
   33.4318  -12.4125   38.8089 H   0  0  0  0  0  0  0  0  0  0  0  0
   31.8494  -11.7356   37.5655 C   0  0  0  0  0  0  0  0  0  0  0  0
   32.1306  -10.2891   37.6946 C   0  0  0  0  0  0  0  0  0  0  0  0
   31.1086   -9.3945   37.8564 O   0  0  0  0  0  0  0  0  0  0  0  0
   33.3160   -9.8817   37.6548 O   0  0  0  0  0  0  0  0  0  0  0  0
   31.0302   -8.5217   37.3711 H   0  0  0  0  0  0  0  0  0  0  0  0
   30.6289  -12.1445   38.3631 C   0  0  0  0  0  0  0  0  0  0  0  0
   30.8169  -13.2765   39.1146 O   0  0  0  0  0  0  0  0  0  0  0  0
   30.3812  -13.2817   39.9961 H   0  0  0  0  0  0  0  0  0  0  0  0
   36.0865  -13.5460   36.8375 C   0  0  0  0  0  0  0  0  0  0  0  0
   36.2043  -13.5441   35.4725 O   0  0  0  0  0  0  0  0  0  0  0  0
   37.1110  -13.2682   35.2357 H   0  0  0  0  0  0  0  0  0  0  0  0
   34.3161  -17.8987   35.5786 C   0  0  0  0  0  0  0  0  0  0  0  0
   34.4184  -18.5779   34.2681 C   0  0  0  0  0  0  0  0  0  0  0  0
   33.6220  -19.8104   34.0609 C   0  0  0  0  0  0  0  0  0  0  0  0
   35.8952  -18.7745   33.9560 C   0  0  0  0  0  0  0  0  0  0  0  0
   37.2215  -21.1066   39.5923 C   0  0  0  0  0  0  0  0  0  0  0  0
   37.3457  -22.0940   40.6933 C   0  0  0  0  0  0  0  0  0  0  0  0
   36.8762  -21.4401   42.0145 C   0  0  0  0  0  0  0  0  0  0  0  0
   38.7095  -22.6158   40.9741 C   0  0  0  0  0  0  0  0  0  0  0  0
 28 29  1  0  0  0
 29 26  1  0  0  0
 26 27  1  0  0  0
 26 13  1  0  0  0
 13 14  1  0  0  0
 14 15  1  0  0  0
 15 16  2  0  0  0
 15 18  1  0  0  0
 18 19  1  0  0  0
 19 20  1  0  0  0
 20 21  2  0  0  0
 21 22  1  0  0  0
 22 23  2  0  0  0
 23 24  1  0  0  0
 24 25  2  0  0  0
 13  6  1  0  0  0
  6  7  2  0  0  0
  6  8  1  0  0  0
  8  9  1  0  0  0
  9 10  1  0  0  0
 10 11  1  0  0  0
 11 12  1  0  0  0
 12  2  1  0  0  0
  2  3  2  0  0  0
  2  4  1  0  0  0
  4  1  1  0  0  0
  1 59  1  0  0  0
 59 60  1  0  0  0
 60 61  1  0  0  0
 60 62  1  0  0  0
  1 30  1  0  0  0
 30 31  2  0  0  0
 30 32  1  0  0  0
 32 34  1  0  0  0
 34 55  1  0  0  0
 55 56  1  0  0  0
 56 57  1  0  0  0
 56 58  1  0  0  0
 34 35  1  0  0  0
 35 36  2  0  0  0
 35 37  1  0  0  0
 37 39  1  0  0  0
 39 52  1  0  0  0
 52 53  1  0  0  0
 39 40  1  0  0  0
 40 41  2  0  0  0
 40 42  1  0  0  0
 42 44  1  0  0  0
 44 49  1  0  0  0
 49 50  1  0  0  0
 44 45  1  0  0  0
 45 46  1  0  0  0
 45 47  2  0  0  0
 25 20  1  0  0  0
 12  8  1  0  0  0
 14 17  1  0  0  0
  4  5  1  0  0  0
 32 33  1  0  0  0
 37 38  1  0  0  0
 53 54  1  0  0  0
 42 43  1  0  0  0
 50 51  1  0  0  0
 46 48  1  0  0  0
M  END
> <minimizedAffinity>
-5.70722

> <CNNscore>
0.1248199567

> <CNNaffinity>
5.8927226067

> <CNN_VS>
0.7355293632

> <CNNaffinity_variance>
0.5280715227

$$$$
[H]OC(=O)[C@@]([H])(N([H])C(=O)[C@@]([H])(N([H])C(=O)[C@@]([H])(N([H])C(=O)[C@@]([H])(N([H])C(=O)[C@@]1([H])N(C(=O)[C@@]([H])(N([H])C(=O)OC([H])([H])c2c([H])c([H])c([H])c([H])c2[H])[C@@]([H])(C([H])([H])[H])C([H])([H])C([H])([H])[H])C([H])([H])C([H])([H])C1([H])[H])C([H])([H])C([H])(C([H])([H])[H])C([H])([H])[H])C([H])([H])C([H])(C([H])([H])[H])C([H])([H])[H])C([H])([H])O[H])C([H])([H])O[H]


 62 63  0  0  0  0  0  0  0  0999 V2000
   39.2016  -19.2951   34.5111 C   0  0  0  0  0  0  0  0  0  0  0  0
   41.5909  -18.5753   34.9966 C   0  0  0  0  0  0  0  0  0  0  0  0
   41.9167  -18.6045   33.7924 O   0  0  0  0  0  0  0  0  0  0  0  0
   40.2703  -18.8982   35.3705 N   0  0  0  0  0  0  0  0  0  0  0  0
   40.0669  -18.8312   36.4221 H   0  0  0  0  0  0  0  0  0  0  0  0
   44.7155  -19.6171   36.2597 C   0  0  0  0  0  0  0  0  0  0  0  0
   45.8548  -19.8179   35.6566 O   0  0  0  0  0  0  0  0  0  0  0  0
   43.9197  -18.6322   35.7026 N   0  0  0  0  0  0  0  0  0  0  0  0
   44.3158  -17.7753   34.5770 C   0  0  0  0  0  0  0  0  0  0  0  0
   43.9410  -16.4127   35.1882 C   0  0  0  0  0  0  0  0  0  0  0  0
   42.8001  -16.7088   36.1555 C   0  0  0  0  0  0  0  0  0  0  0  0
   42.5953  -18.2064   36.0110 C   0  0  0  0  0  0  0  0  0  0  0  0
   44.4823  -20.4744   37.4285 C   0  0  0  0  0  0  0  0  0  0  0  0
   43.6211  -19.8348   38.4082 N   0  0  0  0  0  0  0  0  0  0  0  0
   43.8977  -19.3524   39.6589 C   0  0  0  0  0  0  0  0  0  0  0  0
   45.0439  -19.4062   40.1566 O   0  0  0  0  0  0  0  0  0  0  0  0
   42.6146  -19.7480   38.0378 H   0  0  0  0  0  0  0  0  0  0  0  0
   42.8993  -18.7840   40.4233 O   0  0  0  0  0  0  0  0  0  0  0  0
   42.7078  -19.2200   41.7515 C   0  0  0  0  0  0  0  0  0  0  0  0
   41.3752  -19.8576   41.7994 C   0  0  0  0  0  0  0  0  0  0  0  0
   40.6423  -19.8103   42.9498 C   0  0  0  0  0  0  0  0  0  0  0  0
   39.3900  -20.3923   43.0178 C   0  0  0  0  0  0  0  0  0  0  0  0
   38.9186  -21.0138   41.8897 C   0  0  0  0  0  0  0  0  0  0  0  0
   39.6393  -21.0724   40.7250 C   0  0  0  0  0  0  0  0  0  0  0  0
   40.8872  -20.4819   40.6880 C   0  0  0  0  0  0  0  0  0  0  0  0
   43.8057  -21.7425   36.9330 C   0  0  0  0  0  0  0  0  0  0  0  0
   44.6679  -22.9609   37.1248 C   0  0  0  0  0  0  0  0  0  0  0  0
   42.4301  -23.1303   38.4884 C   0  0  0  0  0  0  0  0  0  0  0  0
   42.4355  -21.9049   37.5818 C   0  0  0  0  0  0  0  0  0  0  0  0
   37.8839  -18.8813   35.1163 C   0  0  0  0  0  0  0  0  0  0  0  0
   37.3177  -19.5626   35.9925 O   0  0  0  0  0  0  0  0  0  0  0  0
   37.2293  -17.6757   34.7038 N   0  0  0  0  0  0  0  0  0  0  0  0
   37.6632  -17.0709   33.9717 H   0  0  0  0  0  0  0  0  0  0  0  0
   35.9713  -17.2184   35.2384 C   0  0  0  0  0  0  0  0  0  0  0  0
   36.2800  -16.2241   36.3175 C   0  0  0  0  0  0  0  0  0  0  0  0
   37.0020  -16.5881   37.2672 O   0  0  0  0  0  0  0  0  0  0  0  0
   35.7795  -14.9184   36.2780 N   0  0  0  0  0  0  0  0  0  0  0  0
   35.1725  -14.6429   35.4491 H   0  0  0  0  0  0  0  0  0  0  0  0
   36.0088  -13.9024   37.2593 C   0  0  0  0  0  0  0  0  0  0  0  0
   34.8889  -12.9417   37.2739 C   0  0  0  0  0  0  0  0  0  0  0  0
   34.9616  -11.8604   36.6324 O   0  0  0  0  0  0  0  0  0  0  0  0
   33.7283  -13.2210   38.0037 N   0  0  0  0  0  0  0  0  0  0  0  0
   33.6623  -14.1280   38.5395 H   0  0  0  0  0  0  0  0  0  0  0  0
   32.5762  -12.3581   38.0971 C   0  0  0  0  0  0  0  0  0  0  0  0
   31.7609  -12.6569   39.2946 C   0  0  0  0  0  0  0  0  0  0  0  0
   32.2969  -12.5377   40.5474 O   0  0  0  0  0  0  0  0  0  0  0  0
   30.5691  -13.0226   39.1582 O   0  0  0  0  0  0  0  0  0  0  0  0
   32.1806  -13.2052   41.2852 H   0  0  0  0  0  0  0  0  0  0  0  0
   31.7364  -12.3317   36.8374 C   0  0  0  0  0  0  0  0  0  0  0  0
   30.8968  -11.2499   36.7587 O   0  0  0  0  0  0  0  0  0  0  0  0
   30.7808  -10.8630   35.8621 H   0  0  0  0  0  0  0  0  0  0  0  0
   37.3438  -13.2049   37.0497 C   0  0  0  0  0  0  0  0  0  0  0  0
   38.4256  -13.9062   37.5136 O   0  0  0  0  0  0  0  0  0  0  0  0
   39.2096  -13.3237   37.4940 H   0  0  0  0  0  0  0  0  0  0  0  0
   35.1105  -18.2692   35.8454 C   0  0  0  0  0  0  0  0  0  0  0  0
   33.9630  -18.7709   35.0577 C   0  0  0  0  0  0  0  0  0  0  0  0
   33.2301  -17.8048   34.2058 C   0  0  0  0  0  0  0  0  0  0  0  0
   33.0449  -19.5351   36.0012 C   0  0  0  0  0  0  0  0  0  0  0  0
   39.0999  -20.7249   34.1598 C   0  0  0  0  0  0  0  0  0  0  0  0
   39.9135  -21.6974   34.9311 C   0  0  0  0  0  0  0  0  0  0  0  0
   41.0593  -22.2224   34.0337 C   0  0  0  0  0  0  0  0  0  0  0  0
   39.2130  -22.9116   35.4274 C   0  0  0  0  0  0  0  0  0  0  0  0
 28 29  1  0  0  0
 29 26  1  0  0  0
 26 27  1  0  0  0
 26 13  1  0  0  0
 13 14  1  0  0  0
 14 15  1  0  0  0
 15 16  2  0  0  0
 15 18  1  0  0  0
 18 19  1  0  0  0
 19 20  1  0  0  0
 20 21  2  0  0  0
 21 22  1  0  0  0
 22 23  2  0  0  0
 23 24  1  0  0  0
 24 25  2  0  0  0
 13  6  1  0  0  0
  6  7  2  0  0  0
  6  8  1  0  0  0
  8  9  1  0  0  0
  9 10  1  0  0  0
 10 11  1  0  0  0
 11 12  1  0  0  0
 12  2  1  0  0  0
  2  3  2  0  0  0
  2  4  1  0  0  0
  4  1  1  0  0  0
  1 59  1  0  0  0
 59 60  1  0  0  0
 60 61  1  0  0  0
 60 62  1  0  0  0
  1 30  1  0  0  0
 30 31  2  0  0  0
 30 32  1  0  0  0
 32 34  1  0  0  0
 34 55  1  0  0  0
 55 56  1  0  0  0
 56 57  1  0  0  0
 56 58  1  0  0  0
 34 35  1  0  0  0
 35 36  2  0  0  0
 35 37  1  0  0  0
 37 39  1  0  0  0
 39 52  1  0  0  0
 52 53  1  0  0  0
 39 40  1  0  0  0
 40 41  2  0  0  0
 40 42  1  0  0  0
 42 44  1  0  0  0
 44 49  1  0  0  0
 49 50  1  0  0  0
 44 45  1  0  0  0
 45 46  1  0  0  0
 45 47  2  0  0  0
 25 20  1  0  0  0
 12  8  1  0  0  0
 14 17  1  0  0  0
  4  5  1  0  0  0
 32 33  1  0  0  0
 37 38  1  0  0  0
 53 54  1  0  0  0
 42 43  1  0  0  0
 50 51  1  0  0  0
 46 48  1  0  0  0
M  END
> <minimizedAffinity>
-7.38748

> <CNNscore>
0.1166576445

> <CNNaffinity>
6.3424482346

> <CNN_VS>
0.7398950458

> <CNNaffinity_variance>
0.6102488041

$$$$
[H]c1c([H])c(Cl)c([H])c(N([H])C(=O)N([H])c2c([H])c([H])c(-c3c([H])c([H])c([H])c4c3c(N([H])[H])nn4[H])c([H])c2[H])c1[H]


 32 35  0  0  0  0  0  0  0  0999 V2000
   34.2042  -16.6764   35.5386 C   0  0  0  0  0  0  0  0  0  0  0  0
   34.8451  -17.2905   34.4886 C   0  0  0  0  0  0  0  0  0  0  0  0
   34.5382  -18.5764   34.1106 C   0  0  0  0  0  0  0  0  0  0  0  0
   33.5640  -19.3264   34.7685 C   0  0  0  0  0  0  0  0  0  0  0  0
   32.9328  -18.7189   35.8053 C   0  0  0  0  0  0  0  0  0  0  0  0
   33.2375  -17.4126   36.1966 C   0  0  0  0  0  0  0  0  0  0  0  0
   37.1226  -16.9591   36.6703 N   0  0  0  0  0  0  0  0  0  0  0  0
   36.7849  -15.6169   36.9536 C   0  0  0  0  0  0  0  0  0  0  0  0
   37.5750  -14.7108   37.5778 N   0  0  0  0  0  0  0  0  0  0  0  0
   36.9598  -13.5467   37.6628 N   0  0  0  0  0  0  0  0  0  0  0  0
   35.7392  -13.6406   37.0973 C   0  0  0  0  0  0  0  0  0  0  0  0
   34.7596  -12.6920   36.9406 C   0  0  0  0  0  0  0  0  0  0  0  0
   33.5973  -13.0563   36.3030 C   0  0  0  0  0  0  0  0  0  0  0  0
   33.4521  -14.3412   35.8484 C   0  0  0  0  0  0  0  0  0  0  0  0
   34.4498  -15.3229   36.0044 C   0  0  0  0  0  0  0  0  0  0  0  0
   35.6105  -14.9472   36.6428 C   0  0  0  0  0  0  0  0  0  0  0  0
   37.2411  -17.3578   35.7183 H   0  0  0  0  0  0  0  0  0  0  0  0
   37.2649  -17.6023   37.4781 H   0  0  0  0  0  0  0  0  0  0  0  0
   37.3399  -12.6587   38.1011 H   0  0  0  0  0  0  0  0  0  0  0  0
   33.3049  -20.6435   34.3458 N   0  0  0  0  0  0  0  0  0  0  0  0
   32.4394  -21.5707   34.9575 C   0  0  0  0  0  0  0  0  0  0  0  0
   31.7664  -21.3324   35.9840 O   0  0  0  0  0  0  0  0  0  0  0  0
   32.3077  -22.8578   34.3923 N   0  0  0  0  0  0  0  0  0  0  0  0
   33.8099  -21.0079   33.4666 H   0  0  0  0  0  0  0  0  0  0  0  0
   32.8675  -23.1215   33.5138 H   0  0  0  0  0  0  0  0  0  0  0  0
   31.4705  -23.8753   34.8930 C   0  0  0  0  0  0  0  0  0  0  0  0
   30.5263  -24.4631   34.0213 C   0  0  0  0  0  0  0  0  0  0  0  0
   29.6560  -25.4342   34.4228 C   0  0  0  0  0  0  0  0  0  0  0  0
   29.6898  -25.8674   35.7296 C   0  0  0  0  0  0  0  0  0  0  0  0
   30.5737  -25.3434   36.6215 C   0  0  0  0  0  0  0  0  0  0  0  0
   30.6571  -25.8586   38.2908 Cl  0  0  0  0  0  0  0  0  0  0  0  0
   31.4468  -24.3516   36.1708 C   0  0  0  0  0  0  0  0  0  0  0  0
  7  8  1  0  0  0
  8  9  2  0  0  0
  9 10  1  0  0  0
 10 11  1  0  0  0
 11 12  2  0  0  0
 12 13  1  0  0  0
 13 14  2  0  0  0
 14 15  1  0  0  0
 15  1  1  0  0  0
  1  2  2  0  0  0
  2  3  1  0  0  0
  3  4  2  0  0  0
  4 20  1  0  0  0
 20 21  1  0  0  0
 21 22  2  0  0  0
 21 23  1  0  0  0
 23 26  1  0  0  0
 26 27  2  0  0  0
 27 28  1  0  0  0
 28 29  2  0  0  0
 29 30  1  0  0  0
 30 31  1  0  0  0
 30 32  2  0  0  0
  4  5  1  0  0  0
  5  6  2  0  0  0
 15 16  2  0  0  0
 16  8  1  0  0  0
 16 11  1  0  0  0
  6  1  1  0  0  0
 32 26  1  0  0  0
  7 17  1  0  0  0
  7 18  1  0  0  0
 10 19  1  0  0  0
 20 24  1  0  0  0
 23 25  1  0  0  0
M  END
> <minimizedAffinity>
-6.94970

> <CNNscore>
0.4741891623

> <CNNaffinity>
5.0794162750

> <CNN_VS>
2.4086041451

> <CNNaffinity_variance>
0.3357199132

$$$$
[H]c1c([H])c(Cl)c([H])c(N([H])C(=O)N([H])c2c([H])c([H])c(-c3c([H])c([H])c([H])c4c3c(N([H])[H])nn4[H])c([H])c2[H])c1[H]


 32 35  0  0  0  0  0  0  0  0999 V2000
   36.3794  -18.7235   37.2452 C   0  0  0  0  0  0  0  0  0  0  0  0
   35.9838  -19.5891   38.2375 C   0  0  0  0  0  0  0  0  0  0  0  0
   36.7706  -20.6480   38.6250 C   0  0  0  0  0  0  0  0  0  0  0  0
   38.0085  -20.9023   38.0355 C   0  0  0  0  0  0  0  0  0  0  0  0
   38.3970  -20.0473   37.0555 C   0  0  0  0  0  0  0  0  0  0  0  0
   37.6046  -18.9684   36.6550 C   0  0  0  0  0  0  0  0  0  0  0  0
   34.2891  -20.1166   35.3562 N   0  0  0  0  0  0  0  0  0  0  0  0
   33.9956  -18.7414   35.2198 C   0  0  0  0  0  0  0  0  0  0  0  0
   33.0295  -18.2065   34.4353 N   0  0  0  0  0  0  0  0  0  0  0  0
   33.0129  -16.8931   34.5588 N   0  0  0  0  0  0  0  0  0  0  0  0
   33.9683  -16.5111   35.4305 C   0  0  0  0  0  0  0  0  0  0  0  0
   34.3105  -15.2594   35.8782 C   0  0  0  0  0  0  0  0  0  0  0  0
   35.3298  -15.1525   36.7944 C   0  0  0  0  0  0  0  0  0  0  0  0
   35.9677  -16.2853   37.2284 C   0  0  0  0  0  0  0  0  0  0  0  0
   35.6259  -17.5743   36.7755 C   0  0  0  0  0  0  0  0  0  0  0  0
   34.6025  -17.6704   35.8592 C   0  0  0  0  0  0  0  0  0  0  0  0
   34.1676  -20.6705   36.2268 H   0  0  0  0  0  0  0  0  0  0  0  0
   34.6564  -20.6177   34.5192 H   0  0  0  0  0  0  0  0  0  0  0  0
   32.3622  -16.2173   34.0636 H   0  0  0  0  0  0  0  0  0  0  0  0
   38.7619  -22.0112   38.4636 N   0  0  0  0  0  0  0  0  0  0  0  0
   40.0902  -21.9987   38.9309 C   0  0  0  0  0  0  0  0  0  0  0  0
   40.7897  -20.9671   39.0321 O   0  0  0  0  0  0  0  0  0  0  0  0
   40.6905  -23.2174   39.3151 N   0  0  0  0  0  0  0  0  0  0  0  0
   38.3000  -22.9844   38.4394 H   0  0  0  0  0  0  0  0  0  0  0  0
   40.1395  -24.1371   39.2426 H   0  0  0  0  0  0  0  0  0  0  0  0
   42.0038  -23.3472   39.8104 C   0  0  0  0  0  0  0  0  0  0  0  0
   42.8554  -24.3096   39.2227 C   0  0  0  0  0  0  0  0  0  0  0  0
   44.1320  -24.5261   39.6529 C   0  0  0  0  0  0  0  0  0  0  0  0
   44.6219  -23.7816   40.7027 C   0  0  0  0  0  0  0  0  0  0  0  0
   43.8550  -22.8385   41.3143 C   0  0  0  0  0  0  0  0  0  0  0  0
   44.4294  -21.8672   42.6505 Cl  0  0  0  0  0  0  0  0  0  0  0  0
   42.5543  -22.6483   40.8443 C   0  0  0  0  0  0  0  0  0  0  0  0
  7  8  1  0  0  0
  8  9  2  0  0  0
  9 10  1  0  0  0
 10 11  1  0  0  0
 11 12  2  0  0  0
 12 13  1  0  0  0
 13 14  2  0  0  0
 14 15  1  0  0  0
 15  1  1  0  0  0
  1  2  2  0  0  0
  2  3  1  0  0  0
  3  4  2  0  0  0
  4 20  1  0  0  0
 20 21  1  0  0  0
 21 22  2  0  0  0
 21 23  1  0  0  0
 23 26  1  0  0  0
 26 27  2  0  0  0
 27 28  1  0  0  0
 28 29  2  0  0  0
 29 30  1  0  0  0
 30 31  1  0  0  0
 30 32  2  0  0  0
  4  5  1  0  0  0
  5  6  2  0  0  0
 15 16  2  0  0  0
 16  8  1  0  0  0
 16 11  1  0  0  0
  6  1  1  0  0  0
 32 26  1  0  0  0
  7 17  1  0  0  0
  7 18  1  0  0  0
 10 19  1  0  0  0
 20 24  1  0  0  0
 23 25  1  0  0  0
M  END
> <minimizedAffinity>
-5.51550

> <CNNscore>
0.4294580221

> <CNNaffinity>
4.7020983696

> <CNN_VS>
2.0193538666

> <CNNaffinity_variance>
0.0314917080

$$$$
[H]c1c([H])c(Cl)c([H])c(N([H])C(=O)N([H])c2c([H])c([H])c(-c3c([H])c([H])c([H])c4c3c(N([H])[H])nn4[H])c([H])c2[H])c1[H]


 32 35  0  0  0  0  0  0  0  0999 V2000
   35.8837  -16.8395   36.5964 C   0  0  0  0  0  0  0  0  0  0  0  0
   35.5312  -17.3570   35.3724 C   0  0  0  0  0  0  0  0  0  0  0  0
   35.1912  -18.6807   35.2212 C   0  0  0  0  0  0  0  0  0  0  0  0
   35.1852  -19.5686   36.2964 C   0  0  0  0  0  0  0  0  0  0  0  0
   35.5342  -19.0562   37.5039 C   0  0  0  0  0  0  0  0  0  0  0  0
   35.8810  -17.7126   37.6675 C   0  0  0  0  0  0  0  0  0  0  0  0
   33.2005  -15.3738   35.8684 N   0  0  0  0  0  0  0  0  0  0  0  0
   34.0755  -14.3172   36.2053 C   0  0  0  0  0  0  0  0  0  0  0  0
   33.7732  -12.9968   36.1918 N   0  0  0  0  0  0  0  0  0  0  0  0
   34.8129  -12.2839   36.5810 N   0  0  0  0  0  0  0  0  0  0  0  0
   35.8417  -13.1076   36.8664 C   0  0  0  0  0  0  0  0  0  0  0  0
   37.1068  -12.8227   37.3165 C   0  0  0  0  0  0  0  0  0  0  0  0
   37.9670  -13.8704   37.5458 C   0  0  0  0  0  0  0  0  0  0  0  0
   37.5415  -15.1536   37.3203 C   0  0  0  0  0  0  0  0  0  0  0  0
   36.2466  -15.4578   36.8578 C   0  0  0  0  0  0  0  0  0  0  0  0
   35.3924  -14.4014   36.6328 C   0  0  0  0  0  0  0  0  0  0  0  0
   32.8562  -16.0987   36.5282 H   0  0  0  0  0  0  0  0  0  0  0  0
   32.8726  -15.4334   34.8806 H   0  0  0  0  0  0  0  0  0  0  0  0
   34.8620  -11.2277   36.6661 H   0  0  0  0  0  0  0  0  0  0  0  0
   34.8435  -20.9160   36.0768 N   0  0  0  0  0  0  0  0  0  0  0  0
   33.5566  -21.4827   36.1515 C   0  0  0  0  0  0  0  0  0  0  0  0
   32.5204  -20.8392   36.4269 O   0  0  0  0  0  0  0  0  0  0  0  0
   33.4032  -22.8640   35.9032 N   0  0  0  0  0  0  0  0  0  0  0  0
   35.6293  -21.6094   35.8264 H   0  0  0  0  0  0  0  0  0  0  0  0
   34.2599  -23.4688   35.6688 H   0  0  0  0  0  0  0  0  0  0  0  0
   32.1754  -23.5559   35.9321 C   0  0  0  0  0  0  0  0  0  0  0  0
   31.4584  -23.7101   34.7242 C   0  0  0  0  0  0  0  0  0  0  0  0
   30.2497  -24.3398   34.6590 C   0  0  0  0  0  0  0  0  0  0  0  0
   29.6957  -24.8503   35.8117 C   0  0  0  0  0  0  0  0  0  0  0  0
   30.3328  -24.7360   37.0086 C   0  0  0  0  0  0  0  0  0  0  0  0
   29.6723  -25.3667   38.5003 Cl  0  0  0  0  0  0  0  0  0  0  0  0
   31.5671  -24.0844   37.0325 C   0  0  0  0  0  0  0  0  0  0  0  0
  7  8  1  0  0  0
  8  9  2  0  0  0
  9 10  1  0  0  0
 10 11  1  0  0  0
 11 12  2  0  0  0
 12 13  1  0  0  0
 13 14  2  0  0  0
 14 15  1  0  0  0
 15  1  1  0  0  0
  1  2  2  0  0  0
  2  3  1  0  0  0
  3  4  2  0  0  0
  4 20  1  0  0  0
 20 21  1  0  0  0
 21 22  2  0  0  0
 21 23  1  0  0  0
 23 26  1  0  0  0
 26 27  2  0  0  0
 27 28  1  0  0  0
 28 29  2  0  0  0
 29 30  1  0  0  0
 30 31  1  0  0  0
 30 32  2  0  0  0
  4  5  1  0  0  0
  5  6  2  0  0  0
 15 16  2  0  0  0
 16  8  1  0  0  0
 16 11  1  0  0  0
  6  1  1  0  0  0
 32 26  1  0  0  0
  7 17  1  0  0  0
  7 18  1  0  0  0
 10 19  1  0  0  0
 20 24  1  0  0  0
 23 25  1  0  0  0
M  END
> <minimizedAffinity>
-7.63293

> <CNNscore>
0.3946396410

> <CNNaffinity>
5.2101860046

> <CNN_VS>
2.0561459064

> <CNNaffinity_variance>
0.1427470148

$$$$
[H]c1c([H])c(Cl)c([H])c(N([H])C(=O)N([H])c2c([H])c([H])c(-c3c([H])c([H])c([H])c4c3c(N([H])[H])nn4[H])c([H])c2[H])c1[H]


 32 35  0  0  0  0  0  0  0  0999 V2000
   34.3511  -20.1861   36.0084 C   0  0  0  0  0  0  0  0  0  0  0  0
   34.9484  -19.9115   37.2159 C   0  0  0  0  0  0  0  0  0  0  0  0
   36.1618  -19.2689   37.2893 C   0  0  0  0  0  0  0  0  0  0  0  0
   36.8516  -18.8618   36.1479 C   0  0  0  0  0  0  0  0  0  0  0  0
   36.2609  -19.1345   34.9566 C   0  0  0  0  0  0  0  0  0  0  0  0
   35.0280  -19.7867   34.8719 C   0  0  0  0  0  0  0  0  0  0  0  0
   32.4695  -17.7160   35.5223 N   0  0  0  0  0  0  0  0  0  0  0  0
   31.5853  -18.8175   35.4967 C   0  0  0  0  0  0  0  0  0  0  0  0
   30.2450  -18.7595   35.3092 N   0  0  0  0  0  0  0  0  0  0  0  0
   29.7269  -19.9728   35.3219 N   0  0  0  0  0  0  0  0  0  0  0  0
   30.7066  -20.8783   35.5184 C   0  0  0  0  0  0  0  0  0  0  0  0
   30.6464  -22.2478   35.5906 C   0  0  0  0  0  0  0  0  0  0  0  0
   31.8176  -22.9409   35.7852 C   0  0  0  0  0  0  0  0  0  0  0  0
   32.9972  -22.2525   35.9008 C   0  0  0  0  0  0  0  0  0  0  0  0
   33.0708  -20.8479   35.8292 C   0  0  0  0  0  0  0  0  0  0  0  0
   31.8924  -20.1634   35.6325 C   0  0  0  0  0  0  0  0  0  0  0  0
   33.2180  -17.5336   34.8252 H   0  0  0  0  0  0  0  0  0  0  0  0
   32.3651  -17.0305   36.3006 H   0  0  0  0  0  0  0  0  0  0  0  0
   28.7044  -20.2275   35.1994 H   0  0  0  0  0  0  0  0  0  0  0  0
   38.0976  -18.2224   36.2859 N   0  0  0  0  0  0  0  0  0  0  0  0
   39.3387  -18.8385   36.5367 C   0  0  0  0  0  0  0  0  0  0  0  0
   39.4968  -20.0719   36.6685 O   0  0  0  0  0  0  0  0  0  0  0  0
   40.4914  -18.0313   36.6505 N   0  0  0  0  0  0  0  0  0  0  0  0
   38.1350  -17.1491   36.1978 H   0  0  0  0  0  0  0  0  0  0  0  0
   40.4147  -16.9639   36.5535 H   0  0  0  0  0  0  0  0  0  0  0  0
   41.7937  -18.5160   36.8871 C   0  0  0  0  0  0  0  0  0  0  0  0
   42.6129  -18.8213   35.7769 C   0  0  0  0  0  0  0  0  0  0  0  0
   43.8758  -19.3210   35.9072 C   0  0  0  0  0  0  0  0  0  0  0  0
   44.3840  -19.5410   37.1680 C   0  0  0  0  0  0  0  0  0  0  0  0
   43.6483  -19.2691   38.2800 C   0  0  0  0  0  0  0  0  0  0  0  0
   44.2470  -19.5305   39.9024 Cl  0  0  0  0  0  0  0  0  0  0  0  0
   42.3607  -18.7595   38.1035 C   0  0  0  0  0  0  0  0  0  0  0  0
  7  8  1  0  0  0
  8  9  2  0  0  0
  9 10  1  0  0  0
 10 11  1  0  0  0
 11 12  2  0  0  0
 12 13  1  0  0  0
 13 14  2  0  0  0
 14 15  1  0  0  0
 15  1  1  0  0  0
  1  2  2  0  0  0
  2  3  1  0  0  0
  3  4  2  0  0  0
  4 20  1  0  0  0
 20 21  1  0  0  0
 21 22  2  0  0  0
 21 23  1  0  0  0
 23 26  1  0  0  0
 26 27  2  0  0  0
 27 28  1  0  0  0
 28 29  2  0  0  0
 29 30  1  0  0  0
 30 31  1  0  0  0
 30 32  2  0  0  0
  4  5  1  0  0  0
  5  6  2  0  0  0
 15 16  2  0  0  0
 16  8  1  0  0  0
 16 11  1  0  0  0
  6  1  1  0  0  0
 32 26  1  0  0  0
  7 17  1  0  0  0
  7 18  1  0  0  0
 10 19  1  0  0  0
 20 24  1  0  0  0
 23 25  1  0  0  0
M  END
> <minimizedAffinity>
-6.22197

> <CNNscore>
0.3610745668

> <CNNaffinity>
4.6866984367

> <CNN_VS>
1.6922476292

> <CNNaffinity_variance>
0.2537720203

$$$$
[H]c1c([H])c(Cl)c([H])c(N([H])C(=O)N([H])c2c([H])c([H])c(-c3c([H])c([H])c([H])c4c3c(N([H])[H])nn4[H])c([H])c2[H])c1[H]


 32 35  0  0  0  0  0  0  0  0999 V2000
   36.4488  -16.5677   36.3281 C   0  0  0  0  0  0  0  0  0  0  0  0
   36.7423  -17.1270   35.1069 C   0  0  0  0  0  0  0  0  0  0  0  0
   36.9177  -18.4828   34.9594 C   0  0  0  0  0  0  0  0  0  0  0  0
   36.8084  -19.3625   36.0358 C   0  0  0  0  0  0  0  0  0  0  0  0
   36.5195  -18.8085   37.2408 C   0  0  0  0  0  0  0  0  0  0  0  0
   36.3392  -17.4321   37.4005 C   0  0  0  0  0  0  0  0  0  0  0  0
   33.4103  -16.2823   35.5771 N   0  0  0  0  0  0  0  0  0  0  0  0
   33.7954  -14.9646   35.9107 C   0  0  0  0  0  0  0  0  0  0  0  0
   32.9970  -13.8706   35.8865 N   0  0  0  0  0  0  0  0  0  0  0  0
   33.6686  -12.8036   36.2755 N   0  0  0  0  0  0  0  0  0  0  0  0
   34.9368  -13.1536   36.5715 C   0  0  0  0  0  0  0  0  0  0  0  0
   35.9839  -12.3907   37.0255 C   0  0  0  0  0  0  0  0  0  0  0  0
   37.1858  -13.0132   37.2662 C   0  0  0  0  0  0  0  0  0  0  0  0
   37.3024  -14.3613   37.0478 C   0  0  0  0  0  0  0  0  0  0  0  0
   36.2356  -15.1536   36.5814 C   0  0  0  0  0  0  0  0  0  0  0  0
   35.0358  -14.5207   36.3450 C   0  0  0  0  0  0  0  0  0  0  0  0
   33.3750  -17.0811   36.2405 H   0  0  0  0  0  0  0  0  0  0  0  0
   33.1395  -16.4709   34.5883 H   0  0  0  0  0  0  0  0  0  0  0  0
   33.2967  -11.8132   36.3534 H   0  0  0  0  0  0  0  0  0  0  0  0
   37.0144  -20.7387   35.8259 N   0  0  0  0  0  0  0  0  0  0  0  0
   38.2467  -21.3830   35.6042 C   0  0  0  0  0  0  0  0  0  0  0  0
   39.3501  -20.7958   35.5691 O   0  0  0  0  0  0  0  0  0  0  0  0
   38.2607  -22.7809   35.4067 N   0  0  0  0  0  0  0  0  0  0  0  0
   36.1567  -21.3909   35.8271 H   0  0  0  0  0  0  0  0  0  0  0  0
   37.3414  -23.3371   35.4191 H   0  0  0  0  0  0  0  0  0  0  0  0
   39.4204  -23.5516   35.1876 C   0  0  0  0  0  0  0  0  0  0  0  0
   40.0895  -24.0981   36.3059 C   0  0  0  0  0  0  0  0  0  0  0  0
   41.2335  -24.8333   36.1944 C   0  0  0  0  0  0  0  0  0  0  0  0
   41.7677  -25.0586   34.9453 C   0  0  0  0  0  0  0  0  0  0  0  0
   41.1743  -24.5608   33.8265 C   0  0  0  0  0  0  0  0  0  0  0  0
   41.8120  -24.8182   32.2184 Cl  0  0  0  0  0  0  0  0  0  0  0  0
   40.0056  -23.8135   33.9838 C   0  0  0  0  0  0  0  0  0  0  0  0
  7  8  1  0  0  0
  8  9  2  0  0  0
  9 10  1  0  0  0
 10 11  1  0  0  0
 11 12  2  0  0  0
 12 13  1  0  0  0
 13 14  2  0  0  0
 14 15  1  0  0  0
 15  1  1  0  0  0
  1  2  2  0  0  0
  2  3  1  0  0  0
  3  4  2  0  0  0
  4 20  1  0  0  0
 20 21  1  0  0  0
 21 22  2  0  0  0
 21 23  1  0  0  0
 23 26  1  0  0  0
 26 27  2  0  0  0
 27 28  1  0  0  0
 28 29  2  0  0  0
 29 30  1  0  0  0
 30 31  1  0  0  0
 30 32  2  0  0  0
  4  5  1  0  0  0
  5  6  2  0  0  0
 15 16  2  0  0  0
 16  8  1  0  0  0
 16 11  1  0  0  0
  6  1  1  0  0  0
 32 26  1  0  0  0
  7 17  1  0  0  0
  7 18  1  0  0  0
 10 19  1  0  0  0
 20 24  1  0  0  0
 23 25  1  0  0  0
M  END
> <minimizedAffinity>
-7.12393

> <CNNscore>
0.3575652540

> <CNNaffinity>
5.2051105499

> <CNN_VS>
1.8611667156

> <CNNaffinity_variance>
0.0539682619

$$$$
[H]c1c([H])c(Cl)c([H])c(N([H])C(=O)N([H])c2c([H])c([H])c(-c3c([H])c([H])c([H])c4c3c(N([H])[H])nn4[H])c([H])c2[H])c1[H]


 32 35  0  0  0  0  0  0  0  0999 V2000
   31.0434  -21.2179   35.8083 C   0  0  0  0  0  0  0  0  0  0  0  0
   32.1529  -21.2326   36.6202 C   0  0  0  0  0  0  0  0  0  0  0  0
   33.2129  -20.3833   36.4063 C   0  0  0  0  0  0  0  0  0  0  0  0
   33.2219  -19.4637   35.3582 C   0  0  0  0  0  0  0  0  0  0  0  0
   32.1261  -19.4511   34.5572 C   0  0  0  0  0  0  0  0  0  0  0  0
   31.0440  -20.3099   34.7667 C   0  0  0  0  0  0  0  0  0  0  0  0
   31.8973  -23.7179   34.1056 N   0  0  0  0  0  0  0  0  0  0  0  0
   30.5874  -24.0356   34.5287 C   0  0  0  0  0  0  0  0  0  0  0  0
   29.9064  -25.1682   34.2313 N   0  0  0  0  0  0  0  0  0  0  0  0
   28.7176  -25.1525   34.8034 N   0  0  0  0  0  0  0  0  0  0  0  0
   28.5689  -24.0079   35.5007 C   0  0  0  0  0  0  0  0  0  0  0  0
   27.5157  -23.5632   36.2604 C   0  0  0  0  0  0  0  0  0  0  0  0
   27.6345  -22.3455   36.8875 C   0  0  0  0  0  0  0  0  0  0  0  0
   28.7871  -21.6193   36.7370 C   0  0  0  0  0  0  0  0  0  0  0  0
   29.8734  -22.0650   35.9595 C   0  0  0  0  0  0  0  0  0  0  0  0
   29.7449  -23.2865   35.3370 C   0  0  0  0  0  0  0  0  0  0  0  0
   32.7199  -23.6159   34.7320 H   0  0  0  0  0  0  0  0  0  0  0  0
   32.0539  -23.5739   33.0852 H   0  0  0  0  0  0  0  0  0  0  0  0
   27.9742  -25.9068   34.7427 H   0  0  0  0  0  0  0  0  0  0  0  0
   34.3425  -18.6312   35.1801 N   0  0  0  0  0  0  0  0  0  0  0  0
   34.5985  -17.4103   35.8332 C   0  0  0  0  0  0  0  0  0  0  0  0
   33.8405  -16.8965   36.6847 O   0  0  0  0  0  0  0  0  0  0  0  0
   35.7808  -16.7041   35.5220 N   0  0  0  0  0  0  0  0  0  0  0  0
   35.0983  -18.9339   34.4743 H   0  0  0  0  0  0  0  0  0  0  0  0
   36.4664  -17.0940   34.7922 H   0  0  0  0  0  0  0  0  0  0  0  0
   36.1659  -15.4810   36.1075 C   0  0  0  0  0  0  0  0  0  0  0  0
   37.1445  -15.4987   37.1269 C   0  0  0  0  0  0  0  0  0  0  0  0
   37.5599  -14.3695   37.7704 C   0  0  0  0  0  0  0  0  0  0  0  0
   37.0100  -13.1565   37.4204 C   0  0  0  0  0  0  0  0  0  0  0  0
   36.0627  -13.0684   36.4475 C   0  0  0  0  0  0  0  0  0  0  0  0
   35.3335  -11.5533   35.9661 Cl  0  0  0  0  0  0  0  0  0  0  0  0
   35.6648  -14.2470   35.8138 C   0  0  0  0  0  0  0  0  0  0  0  0
  7  8  1  0  0  0
  8  9  2  0  0  0
  9 10  1  0  0  0
 10 11  1  0  0  0
 11 12  2  0  0  0
 12 13  1  0  0  0
 13 14  2  0  0  0
 14 15  1  0  0  0
 15  1  1  0  0  0
  1  2  2  0  0  0
  2  3  1  0  0  0
  3  4  2  0  0  0
  4 20  1  0  0  0
 20 21  1  0  0  0
 21 22  2  0  0  0
 21 23  1  0  0  0
 23 26  1  0  0  0
 26 27  2  0  0  0
 27 28  1  0  0  0
 28 29  2  0  0  0
 29 30  1  0  0  0
 30 31  1  0  0  0
 30 32  2  0  0  0
  4  5  1  0  0  0
  5  6  2  0  0  0
 15 16  2  0  0  0
 16  8  1  0  0  0
 16 11  1  0  0  0
  6  1  1  0  0  0
 32 26  1  0  0  0
  7 17  1  0  0  0
  7 18  1  0  0  0
 10 19  1  0  0  0
 20 24  1  0  0  0
 23 25  1  0  0  0
M  END
> <minimizedAffinity>
-6.96516

> <CNNscore>
0.3115096390

> <CNNaffinity>
4.9344964027

> <CNN_VS>
1.5371432304

> <CNNaffinity_variance>
0.1328501999

$$$$
[H]c1c([H])c(Cl)c([H])c(N([H])C(=O)N([H])c2c([H])c([H])c(-c3c([H])c([H])c([H])c4c3c(N([H])[H])nn4[H])c([H])c2[H])c1[H]


 32 35  0  0  0  0  0  0  0  0999 V2000
   33.8746  -19.3792   35.1690 C   0  0  0  0  0  0  0  0  0  0  0  0
   34.6433  -19.4709   34.0327 C   0  0  0  0  0  0  0  0  0  0  0  0
   35.9682  -19.1031   34.0282 C   0  0  0  0  0  0  0  0  0  0  0  0
   36.6035  -18.6184   35.1710 C   0  0  0  0  0  0  0  0  0  0  0  0
   35.8430  -18.5279   36.2916 C   0  0  0  0  0  0  0  0  0  0  0  0
   34.4960  -18.8993   36.3061 C   0  0  0  0  0  0  0  0  0  0  0  0
   34.1245  -22.3096   36.2773 N   0  0  0  0  0  0  0  0  0  0  0  0
   32.7321  -22.1322   36.1178 C   0  0  0  0  0  0  0  0  0  0  0  0
   31.7752  -23.0517   36.3895 N   0  0  0  0  0  0  0  0  0  0  0  0
   30.5778  -22.5530   36.1479 N   0  0  0  0  0  0  0  0  0  0  0  0
   30.6994  -21.2844   35.7072 C   0  0  0  0  0  0  0  0  0  0  0  0
   29.7362  -20.3746   35.3481 C   0  0  0  0  0  0  0  0  0  0  0  0
   30.1408  -19.1245   34.9437 C   0  0  0  0  0  0  0  0  0  0  0  0
   31.4782  -18.8267   34.9105 C   0  0  0  0  0  0  0  0  0  0  0  0
   32.4751  -19.7521   35.2757 C   0  0  0  0  0  0  0  0  0  0  0  0
   32.0592  -21.0007   35.6807 C   0  0  0  0  0  0  0  0  0  0  0  0
   34.7198  -21.7919   36.9534 H   0  0  0  0  0  0  0  0  0  0  0  0
   34.5945  -23.0149   35.6703 H   0  0  0  0  0  0  0  0  0  0  0  0
   29.6476  -23.0478   36.2714 H   0  0  0  0  0  0  0  0  0  0  0  0
   37.9580  -18.2430   35.1008 N   0  0  0  0  0  0  0  0  0  0  0  0
   39.0512  -18.9171   35.6781 C   0  0  0  0  0  0  0  0  0  0  0  0
   38.9545  -19.9711   36.3440 O   0  0  0  0  0  0  0  0  0  0  0  0
   40.3484  -18.3869   35.5068 N   0  0  0  0  0  0  0  0  0  0  0  0
   38.2140  -17.3487   34.5570 H   0  0  0  0  0  0  0  0  0  0  0  0
   40.4914  -17.4791   34.9498 H   0  0  0  0  0  0  0  0  0  0  0  0
   41.5283  -18.9642   36.0182 C   0  0  0  0  0  0  0  0  0  0  0  0
   42.2392  -19.8781   35.2082 C   0  0  0  0  0  0  0  0  0  0  0  0
   43.3749  -20.5073   35.6279 C   0  0  0  0  0  0  0  0  0  0  0  0
   43.8578  -20.2489   36.8913 C   0  0  0  0  0  0  0  0  0  0  0  0
   43.2217  -19.3799   37.7231 C   0  0  0  0  0  0  0  0  0  0  0  0
   43.7935  -19.0174   39.3357 Cl  0  0  0  0  0  0  0  0  0  0  0  0
   42.0628  -18.7573   37.2559 C   0  0  0  0  0  0  0  0  0  0  0  0
  7  8  1  0  0  0
  8  9  2  0  0  0
  9 10  1  0  0  0
 10 11  1  0  0  0
 11 12  2  0  0  0
 12 13  1  0  0  0
 13 14  2  0  0  0
 14 15  1  0  0  0
 15  1  1  0  0  0
  1  2  2  0  0  0
  2  3  1  0  0  0
  3  4  2  0  0  0
  4 20  1  0  0  0
 20 21  1  0  0  0
 21 22  2  0  0  0
 21 23  1  0  0  0
 23 26  1  0  0  0
 26 27  2  0  0  0
 27 28  1  0  0  0
 28 29  2  0  0  0
 29 30  1  0  0  0
 30 31  1  0  0  0
 30 32  2  0  0  0
  4  5  1  0  0  0
  5  6  2  0  0  0
 15 16  2  0  0  0
 16  8  1  0  0  0
 16 11  1  0  0  0
  6  1  1  0  0  0
 32 26  1  0  0  0
  7 17  1  0  0  0
  7 18  1  0  0  0
 10 19  1  0  0  0
 20 24  1  0  0  0
 23 25  1  0  0  0
M  END
> <minimizedAffinity>
-6.62765

> <CNNscore>
0.2919713259

> <CNNaffinity>
4.6193490028

> <CNN_VS>
1.3487174511

> <CNNaffinity_variance>
0.4279073179

$$$$
[H]c1c([H])c(Cl)c([H])c(N([H])C(=O)N([H])c2c([H])c([H])c(-c3c([H])c([H])c([H])c4c3c(N([H])[H])nn4[H])c([H])c2[H])c1[H]


 32 35  0  0  0  0  0  0  0  0999 V2000
   37.0006  -17.8272   36.0549 C   0  0  0  0  0  0  0  0  0  0  0  0
   37.1347  -18.9752   36.7995 C   0  0  0  0  0  0  0  0  0  0  0  0
   37.6674  -20.1235   36.2626 C   0  0  0  0  0  0  0  0  0  0  0  0
   38.0995  -20.1876   34.9383 C   0  0  0  0  0  0  0  0  0  0  0  0
   37.9657  -19.0536   34.2045 C   0  0  0  0  0  0  0  0  0  0  0  0
   37.4258  -17.8819   34.7412 C   0  0  0  0  0  0  0  0  0  0  0  0
   34.1050  -17.9179   34.8361 N   0  0  0  0  0  0  0  0  0  0  0  0
   34.1545  -16.6626   35.4822 C   0  0  0  0  0  0  0  0  0  0  0  0
   33.1556  -15.7486   35.5259 N   0  0  0  0  0  0  0  0  0  0  0  0
   33.5272  -14.6958   36.2288 N   0  0  0  0  0  0  0  0  0  0  0  0
   34.7867  -14.8752   36.6761 C   0  0  0  0  0  0  0  0  0  0  0  0
   35.5764  -14.0626   37.4509 C   0  0  0  0  0  0  0  0  0  0  0  0
   36.8366  -14.5025   37.7801 C   0  0  0  0  0  0  0  0  0  0  0  0
   37.2629  -15.7249   37.3299 C   0  0  0  0  0  0  0  0  0  0  0  0
   36.4620  -16.5664   36.5340 C   0  0  0  0  0  0  0  0  0  0  0  0
   35.2010  -16.1172   36.2112 C   0  0  0  0  0  0  0  0  0  0  0  0
   34.1460  -18.8390   35.3149 H   0  0  0  0  0  0  0  0  0  0  0  0
   34.0205  -17.9236   33.7971 H   0  0  0  0  0  0  0  0  0  0  0  0
   32.9485  -13.8294   36.4281 H   0  0  0  0  0  0  0  0  0  0  0  0
   38.6217  -21.3959   34.4406 N   0  0  0  0  0  0  0  0  0  0  0  0
   39.9798  -21.7076   34.2374 C   0  0  0  0  0  0  0  0  0  0  0  0
   40.9246  -20.9270   34.4857 O   0  0  0  0  0  0  0  0  0  0  0  0
   40.3194  -22.9771   33.7214 N   0  0  0  0  0  0  0  0  0  0  0  0
   37.9330  -22.1813   34.1766 H   0  0  0  0  0  0  0  0  0  0  0  0
   39.5485  -23.6867   33.4826 H   0  0  0  0  0  0  0  0  0  0  0  0
   41.6348  -23.4234   33.4816 C   0  0  0  0  0  0  0  0  0  0  0  0
   42.3740  -23.9579   34.5608 C   0  0  0  0  0  0  0  0  0  0  0  0
   43.6621  -24.3890   34.4311 C   0  0  0  0  0  0  0  0  0  0  0  0
   44.2777  -24.3045   33.2022 C   0  0  0  0  0  0  0  0  0  0  0  0
   43.6235  -23.7996   32.1212 C   0  0  0  0  0  0  0  0  0  0  0  0
   44.3598  -23.6708   30.5400 Cl  0  0  0  0  0  0  0  0  0  0  0  0
   42.3071  -23.3691   32.2961 C   0  0  0  0  0  0  0  0  0  0  0  0
  7  8  1  0  0  0
  8  9  2  0  0  0
  9 10  1  0  0  0
 10 11  1  0  0  0
 11 12  2  0  0  0
 12 13  1  0  0  0
 13 14  2  0  0  0
 14 15  1  0  0  0
 15  1  1  0  0  0
  1  2  2  0  0  0
  2  3  1  0  0  0
  3  4  2  0  0  0
  4 20  1  0  0  0
 20 21  1  0  0  0
 21 22  2  0  0  0
 21 23  1  0  0  0
 23 26  1  0  0  0
 26 27  2  0  0  0
 27 28  1  0  0  0
 28 29  2  0  0  0
 29 30  1  0  0  0
 30 31  1  0  0  0
 30 32  2  0  0  0
  4  5  1  0  0  0
  5  6  2  0  0  0
 15 16  2  0  0  0
 16  8  1  0  0  0
 16 11  1  0  0  0
  6  1  1  0  0  0
 32 26  1  0  0  0
  7 17  1  0  0  0
  7 18  1  0  0  0
 10 19  1  0  0  0
 20 24  1  0  0  0
 23 25  1  0  0  0
M  END
> <minimizedAffinity>
-6.70762

> <CNNscore>
0.2907749116

> <CNNaffinity>
4.7908949852

> <CNN_VS>
1.3930720091

> <CNNaffinity_variance>
0.0814736113

$$$$
[H]c1c([H])c(Cl)c([H])c(N([H])C(=O)N([H])c2c([H])c([H])c(-c3c([H])c([H])c([H])c4c3c(N([H])[H])nn4[H])c([H])c2[H])c1[H]


 32 35  0  0  0  0  0  0  0  0999 V2000
   34.6318  -14.0506   37.2178 C   0  0  0  0  0  0  0  0  0  0  0  0
   35.8490  -14.2269   37.8323 C   0  0  0  0  0  0  0  0  0  0  0  0
   36.7154  -15.2207   37.4419 C   0  0  0  0  0  0  0  0  0  0  0  0
   36.4090  -16.1017   36.4055 C   0  0  0  0  0  0  0  0  0  0  0  0
   35.2066  -15.9268   35.8005 C   0  0  0  0  0  0  0  0  0  0  0  0
   34.3197  -14.9198   36.1899 C   0  0  0  0  0  0  0  0  0  0  0  0
   36.0079  -11.5026   35.9964 N   0  0  0  0  0  0  0  0  0  0  0  0
   34.8351  -10.9917   36.5960 C   0  0  0  0  0  0  0  0  0  0  0  0
   34.4498   -9.6932   36.6141 N   0  0  0  0  0  0  0  0  0  0  0  0
   33.2951   -9.5659   37.2396 N   0  0  0  0  0  0  0  0  0  0  0  0
   32.8742  -10.7767   37.6582 C   0  0  0  0  0  0  0  0  0  0  0  0
   31.7337  -11.1340   38.3333 C   0  0  0  0  0  0  0  0  0  0  0  0
   31.5412  -12.4632   38.6270 C   0  0  0  0  0  0  0  0  0  0  0  0
   32.4829  -13.3818   38.2423 C   0  0  0  0  0  0  0  0  0  0  0  0
   33.6569  -13.0268   37.5503 C   0  0  0  0  0  0  0  0  0  0  0  0
   33.8393  -11.6932   37.2596 C   0  0  0  0  0  0  0  0  0  0  0  0
   36.0311  -12.1481   35.1827 H   0  0  0  0  0  0  0  0  0  0  0  0
   36.9235  -11.2105   36.4000 H   0  0  0  0  0  0  0  0  0  0  0  0
   32.7579   -8.6659   37.4030 H   0  0  0  0  0  0  0  0  0  0  0  0
   37.3295  -17.1091   36.0613 N   0  0  0  0  0  0  0  0  0  0  0  0
   37.4532  -18.3784   36.6584 C   0  0  0  0  0  0  0  0  0  0  0  0
   36.7348  -18.7862   37.5972 O   0  0  0  0  0  0  0  0  0  0  0  0
   38.4449  -19.2634   36.1824 N   0  0  0  0  0  0  0  0  0  0  0  0
   38.0263  -16.9150   35.2627 H   0  0  0  0  0  0  0  0  0  0  0  0
   39.0963  -18.9641   35.3819 H   0  0  0  0  0  0  0  0  0  0  0  0
   38.6694  -20.5634   36.6787 C   0  0  0  0  0  0  0  0  0  0  0  0
   39.6381  -20.7416   37.6920 C   0  0  0  0  0  0  0  0  0  0  0  0
   39.9433  -21.9648   38.2140 C   0  0  0  0  0  0  0  0  0  0  0  0
   39.2866  -23.0792   37.7415 C   0  0  0  0  0  0  0  0  0  0  0  0
   38.3429  -22.9785   36.7663 C   0  0  0  0  0  0  0  0  0  0  0  0
   37.4809  -24.3620   36.1323 Cl  0  0  0  0  0  0  0  0  0  0  0  0
   38.0602  -21.7092   36.2587 C   0  0  0  0  0  0  0  0  0  0  0  0
  7  8  1  0  0  0
  8  9  2  0  0  0
  9 10  1  0  0  0
 10 11  1  0  0  0
 11 12  2  0  0  0
 12 13  1  0  0  0
 13 14  2  0  0  0
 14 15  1  0  0  0
 15  1  1  0  0  0
  1  2  2  0  0  0
  2  3  1  0  0  0
  3  4  2  0  0  0
  4 20  1  0  0  0
 20 21  1  0  0  0
 21 22  2  0  0  0
 21 23  1  0  0  0
 23 26  1  0  0  0
 26 27  2  0  0  0
 27 28  1  0  0  0
 28 29  2  0  0  0
 29 30  1  0  0  0
 30 31  1  0  0  0
 30 32  2  0  0  0
  4  5  1  0  0  0
  5  6  2  0  0  0
 15 16  2  0  0  0
 16  8  1  0  0  0
 16 11  1  0  0  0
  6  1  1  0  0  0
 32 26  1  0  0  0
  7 17  1  0  0  0
  7 18  1  0  0  0
 10 19  1  0  0  0
 20 24  1  0  0  0
 23 25  1  0  0  0
M  END
> <minimizedAffinity>
-7.11799

> <CNNscore>
0.2713607550

> <CNNaffinity>
5.5646119118

> <CNN_VS>
1.5100172758

> <CNNaffinity_variance>
0.1061192006

$$$$
[H]c1c([H])c(C([H])([H])N([H])C(=O)c2nc(-c3c([H])c([H])c(OC([H])([H])[H])c4nc(C(F)(F)F)c([H])c([H])c34)oc2C([H])([H])N([H])[H])c([H])c([H])c1F


 37 40  0  0  0  0  0  0  0  0999 V2000
   34.1333  -13.5120   37.3085 C   0  0  0  0  0  0  0  0  0  0  0  0
   32.8122  -13.5522   37.3723 N   0  0  0  0  0  0  0  0  0  0  0  0
   32.2933  -12.3522   37.5286 C   0  0  0  0  0  0  0  0  0  0  0  0
   33.3848  -11.4701   37.5675 C   0  0  0  0  0  0  0  0  0  0  0  0
   34.4292  -12.2282   37.4328 O   0  0  0  0  0  0  0  0  0  0  0  0
   37.0392  -16.5686   36.8592 C   0  0  0  0  0  0  0  0  0  0  0  0
   37.3458  -15.4141   37.5385 C   0  0  0  0  0  0  0  0  0  0  0  0
   36.4216  -14.4037   37.6830 C   0  0  0  0  0  0  0  0  0  0  0  0
   35.1642  -14.5231   37.1490 C   0  0  0  0  0  0  0  0  0  0  0  0
   34.8570  -15.6917   36.4567 C   0  0  0  0  0  0  0  0  0  0  0  0
   33.5973  -15.8017   35.8641 C   0  0  0  0  0  0  0  0  0  0  0  0
   33.3038  -16.9734   35.1356 C   0  0  0  0  0  0  0  0  0  0  0  0
   34.2454  -17.9355   35.0375 C   0  0  0  0  0  0  0  0  0  0  0  0
   35.4611  -17.8370   35.5976 N   0  0  0  0  0  0  0  0  0  0  0  0
   35.7382  -16.7291   36.2824 C   0  0  0  0  0  0  0  0  0  0  0  0
   33.9004  -19.1857   34.2688 C   0  0  0  0  0  0  0  0  0  0  0  0
   33.7447  -20.2715   35.0720 F   0  0  0  0  0  0  0  0  0  0  0  0
   34.9337  -19.4309   33.3784 F   0  0  0  0  0  0  0  0  0  0  0  0
   32.7335  -18.9876   33.5778 F   0  0  0  0  0  0  0  0  0  0  0  0
   38.5941  -18.5777   36.6553 C   0  0  0  0  0  0  0  0  0  0  0  0
   37.8633  -17.5447   36.7006 O   0  0  0  0  0  0  0  0  0  0  0  0
   30.9220  -11.8075   37.5430 C   0  0  0  0  0  0  0  0  0  0  0  0
   30.6954  -10.7605   36.8948 O   0  0  0  0  0  0  0  0  0  0  0  0
   29.8940  -12.4502   38.2491 N   0  0  0  0  0  0  0  0  0  0  0  0
   30.1661  -13.3333   38.8063 H   0  0  0  0  0  0  0  0  0  0  0  0
   28.4968  -12.1231   38.3545 C   0  0  0  0  0  0  0  0  0  0  0  0
   28.3765  -11.1765   39.5145 C   0  0  0  0  0  0  0  0  0  0  0  0
   28.4569  -11.6844   40.8169 C   0  0  0  0  0  0  0  0  0  0  0  0
   28.2997  -10.8480   41.8967 C   0  0  0  0  0  0  0  0  0  0  0  0
   28.0708   -9.5277   41.7824 C   0  0  0  0  0  0  0  0  0  0  0  0
   27.8814   -8.7097   42.8698 F   0  0  0  0  0  0  0  0  0  0  0  0
   27.9942   -8.9836   40.4959 C   0  0  0  0  0  0  0  0  0  0  0  0
   28.1520   -9.8602   39.4070 C   0  0  0  0  0  0  0  0  0  0  0  0
   33.4656  -10.0113   37.7106 C   0  0  0  0  0  0  0  0  0  0  0  0
   34.3570   -9.4386   36.6357 N   0  0  0  0  0  0  0  0  0  0  0  0
   34.4995  -10.2580   35.9918 H   0  0  0  0  0  0  0  0  0  0  0  0
   33.8160   -8.6828   36.1501 H   0  0  0  0  0  0  0  0  0  0  0  0
 20 21  1  0  0  0
 21  6  1  0  0  0
  6  7  2  0  0  0
  7  8  1  0  0  0
  8  9  2  0  0  0
  9  1  1  0  0  0
  1  2  2  0  0  0
  2  3  1  0  0  0
  3 22  1  0  0  0
 22 23  2  0  0  0
 22 24  1  0  0  0
 24 26  1  0  0  0
 26 27  1  0  0  0
 27 28  2  0  0  0
 28 29  1  0  0  0
 29 30  2  0  0  0
 30 31  1  0  0  0
 30 32  1  0  0  0
 32 33  2  0  0  0
  3  4  2  0  0  0
  4 34  1  0  0  0
 34 35  1  0  0  0
  4  5  1  0  0  0
  9 10  1  0  0  0
 10 11  2  0  0  0
 11 12  1  0  0  0
 12 13  2  0  0  0
 13 14  1  0  0  0
 14 15  2  0  0  0
 13 16  1  0  0  0
 16 17  1  0  0  0
 16 18  1  0  0  0
 16 19  1  0  0  0
 15  6  1  0  0  0
  5  1  1  0  0  0
 15 10  1  0  0  0
 33 27  1  0  0  0
 24 25  1  0  0  0
 35 36  1  0  0  0
 35 37  1  0  0  0
M  END
> <minimizedAffinity>
-9.09982

> <CNNscore>
0.5418315530

> <CNNaffinity>
6.7455682755

> <CNN_VS>
3.6549618244

> <CNNaffinity_variance>
0.3241817951

$$$$
[H]c1c([H])c(C([H])([H])N([H])C(=O)c2nc(-c3c([H])c([H])c(OC([H])([H])[H])c4nc(C(F)(F)F)c([H])c([H])c34)oc2C([H])([H])N([H])[H])c([H])c([H])c1F


 37 40  0  0  0  0  0  0  0  0999 V2000
   35.0325  -14.5214   36.6846 C   0  0  0  0  0  0  0  0  0  0  0  0
   35.9044  -15.3270   37.2695 N   0  0  0  0  0  0  0  0  0  0  0  0
   35.6793  -16.5898   36.9724 C   0  0  0  0  0  0  0  0  0  0  0  0
   34.5627  -16.5851   36.1215 C   0  0  0  0  0  0  0  0  0  0  0  0
   34.2415  -15.3337   36.0021 O   0  0  0  0  0  0  0  0  0  0  0  0
   34.3223  -10.3403   36.6337 C   0  0  0  0  0  0  0  0  0  0  0  0
   35.5353  -10.8431   36.2285 C   0  0  0  0  0  0  0  0  0  0  0  0
   35.7911  -12.1959   36.2512 C   0  0  0  0  0  0  0  0  0  0  0  0
   34.8372  -13.0818   36.6821 C   0  0  0  0  0  0  0  0  0  0  0  0
   33.6104  -12.5700   37.0969 C   0  0  0  0  0  0  0  0  0  0  0  0
   32.6508  -13.4584   37.5868 C   0  0  0  0  0  0  0  0  0  0  0  0
   31.4226  -12.9306   38.0371 C   0  0  0  0  0  0  0  0  0  0  0  0
   31.2238  -11.5968   37.9801 C   0  0  0  0  0  0  0  0  0  0  0  0
   32.1416  -10.7338   37.5173 N   0  0  0  0  0  0  0  0  0  0  0  0
   33.3018  -11.2329   37.0954 C   0  0  0  0  0  0  0  0  0  0  0  0
   29.8959  -11.0598   38.4505 C   0  0  0  0  0  0  0  0  0  0  0  0
   29.8771   -9.7031   38.5364 F   0  0  0  0  0  0  0  0  0  0  0  0
   29.6474  -11.5921   39.7056 F   0  0  0  0  0  0  0  0  0  0  0  0
   28.9124  -11.4520   37.5803 F   0  0  0  0  0  0  0  0  0  0  0  0
   33.6533   -7.8847   36.4975 C   0  0  0  0  0  0  0  0  0  0  0  0
   34.0301   -9.0867   36.6267 O   0  0  0  0  0  0  0  0  0  0  0  0
   36.3815  -17.8602   37.2376 C   0  0  0  0  0  0  0  0  0  0  0  0
   35.9180  -18.6184   38.1196 O   0  0  0  0  0  0  0  0  0  0  0  0
   37.5279  -18.2199   36.5130 N   0  0  0  0  0  0  0  0  0  0  0  0
   37.8863  -17.5073   35.7862 H   0  0  0  0  0  0  0  0  0  0  0  0
   38.3262  -19.4154   36.5746 C   0  0  0  0  0  0  0  0  0  0  0  0
   39.6047  -19.1007   35.8517 C   0  0  0  0  0  0  0  0  0  0  0  0
   40.7409  -18.7624   36.5968 C   0  0  0  0  0  0  0  0  0  0  0  0
   41.9100  -18.4208   35.9593 C   0  0  0  0  0  0  0  0  0  0  0  0
   42.0421  -18.3937   34.6211 C   0  0  0  0  0  0  0  0  0  0  0  0
   43.2067  -18.0171   33.9971 F   0  0  0  0  0  0  0  0  0  0  0  0
   40.9299  -18.7357   33.8446 C   0  0  0  0  0  0  0  0  0  0  0  0
   39.7433  -19.0754   34.5194 C   0  0  0  0  0  0  0  0  0  0  0  0
   33.8357  -17.6676   35.4471 C   0  0  0  0  0  0  0  0  0  0  0  0
   32.9590  -17.0971   34.3589 N   0  0  0  0  0  0  0  0  0  0  0  0
   33.2863  -16.0994   34.2968 H   0  0  0  0  0  0  0  0  0  0  0  0
   33.1851  -17.6110   33.4731 H   0  0  0  0  0  0  0  0  0  0  0  0
 20 21  1  0  0  0
 21  6  1  0  0  0
  6  7  2  0  0  0
  7  8  1  0  0  0
  8  9  2  0  0  0
  9  1  1  0  0  0
  1  2  2  0  0  0
  2  3  1  0  0  0
  3 22  1  0  0  0
 22 23  2  0  0  0
 22 24  1  0  0  0
 24 26  1  0  0  0
 26 27  1  0  0  0
 27 28  2  0  0  0
 28 29  1  0  0  0
 29 30  2  0  0  0
 30 31  1  0  0  0
 30 32  1  0  0  0
 32 33  2  0  0  0
  3  4  2  0  0  0
  4 34  1  0  0  0
 34 35  1  0  0  0
  4  5  1  0  0  0
  9 10  1  0  0  0
 10 11  2  0  0  0
 11 12  1  0  0  0
 12 13  2  0  0  0
 13 14  1  0  0  0
 14 15  2  0  0  0
 13 16  1  0  0  0
 16 17  1  0  0  0
 16 18  1  0  0  0
 16 19  1  0  0  0
 15  6  1  0  0  0
  5  1  1  0  0  0
 15 10  1  0  0  0
 33 27  1  0  0  0
 24 25  1  0  0  0
 35 36  1  0  0  0
 35 37  1  0  0  0
M  END
> <minimizedAffinity>
-7.07725

> <CNNscore>
0.4239221215

> <CNNaffinity>
6.3366088867

> <CNN_VS>
2.6862287521

> <CNNaffinity_variance>
0.5118548870

$$$$
[H]c1c([H])c(C([H])([H])N([H])C(=O)c2nc(-c3c([H])c([H])c(OC([H])([H])[H])c4nc(C(F)(F)F)c([H])c([H])c34)oc2C([H])([H])N([H])[H])c([H])c([H])c1F


 37 40  0  0  0  0  0  0  0  0999 V2000
   38.4593  -20.9119   37.0464 C   0  0  0  0  0  0  0  0  0  0  0  0
   37.5590  -21.7077   36.4919 N   0  0  0  0  0  0  0  0  0  0  0  0
   36.6096  -22.0391   37.3420 C   0  0  0  0  0  0  0  0  0  0  0  0
   36.9374  -21.3948   38.5454 C   0  0  0  0  0  0  0  0  0  0  0  0
   38.0366  -20.7542   38.2904 O   0  0  0  0  0  0  0  0  0  0  0  0
   42.0782  -19.1846   35.6647 C   0  0  0  0  0  0  0  0  0  0  0  0
   41.1847  -18.4352   36.3916 C   0  0  0  0  0  0  0  0  0  0  0  0
   39.9978  -18.9727   36.8369 C   0  0  0  0  0  0  0  0  0  0  0  0
   39.6738  -20.2770   36.5643 C   0  0  0  0  0  0  0  0  0  0  0  0
   40.5782  -21.0333   35.8233 C   0  0  0  0  0  0  0  0  0  0  0  0
   40.2348  -22.3466   35.4953 C   0  0  0  0  0  0  0  0  0  0  0  0
   41.1398  -23.0971   34.7160 C   0  0  0  0  0  0  0  0  0  0  0  0
   42.2937  -22.5209   34.3176 C   0  0  0  0  0  0  0  0  0  0  0  0
   42.6304  -21.2578   34.6218 N   0  0  0  0  0  0  0  0  0  0  0  0
   41.7738  -20.5494   35.3549 C   0  0  0  0  0  0  0  0  0  0  0  0
   43.2521  -23.3502   33.5010 C   0  0  0  0  0  0  0  0  0  0  0  0
   44.5538  -23.1018   33.8044 F   0  0  0  0  0  0  0  0  0  0  0  0
   43.0373  -23.0484   32.1656 F   0  0  0  0  0  0  0  0  0  0  0  0
   43.0030  -24.6801   33.7190 F   0  0  0  0  0  0  0  0  0  0  0  0
   44.3384  -18.2488   34.9494 C   0  0  0  0  0  0  0  0  0  0  0  0
   43.2026  -18.7330   35.2303 O   0  0  0  0  0  0  0  0  0  0  0  0
   35.3372  -22.7793   37.2409 C   0  0  0  0  0  0  0  0  0  0  0  0
   35.2271  -23.8541   37.8736 O   0  0  0  0  0  0  0  0  0  0  0  0
   34.2720  -22.2883   36.4710 N   0  0  0  0  0  0  0  0  0  0  0  0
   34.4455  -21.3696   35.9320 H   0  0  0  0  0  0  0  0  0  0  0  0
   32.9475  -22.8162   36.2775 C   0  0  0  0  0  0  0  0  0  0  0  0
   32.1145  -21.6755   35.7666 C   0  0  0  0  0  0  0  0  0  0  0  0
   30.7975  -21.5386   36.2221 C   0  0  0  0  0  0  0  0  0  0  0  0
   29.9971  -20.5336   35.7329 C   0  0  0  0  0  0  0  0  0  0  0  0
   30.4098  -19.6386   34.8178 C   0  0  0  0  0  0  0  0  0  0  0  0
   29.5882  -18.6604   34.3123 F   0  0  0  0  0  0  0  0  0  0  0  0
   31.7234  -19.7388   34.3474 C   0  0  0  0  0  0  0  0  0  0  0  0
   32.5211  -20.7789   34.8581 C   0  0  0  0  0  0  0  0  0  0  0  0
   36.2744  -21.3604   39.8547 C   0  0  0  0  0  0  0  0  0  0  0  0
   36.4908  -22.6694   40.5743 N   0  0  0  0  0  0  0  0  0  0  0  0
   37.2193  -23.1423   39.9811 H   0  0  0  0  0  0  0  0  0  0  0  0
   36.8809  -22.4452   41.5216 H   0  0  0  0  0  0  0  0  0  0  0  0
 20 21  1  0  0  0
 21  6  1  0  0  0
  6  7  2  0  0  0
  7  8  1  0  0  0
  8  9  2  0  0  0
  9  1  1  0  0  0
  1  2  2  0  0  0
  2  3  1  0  0  0
  3 22  1  0  0  0
 22 23  2  0  0  0
 22 24  1  0  0  0
 24 26  1  0  0  0
 26 27  1  0  0  0
 27 28  2  0  0  0
 28 29  1  0  0  0
 29 30  2  0  0  0
 30 31  1  0  0  0
 30 32  1  0  0  0
 32 33  2  0  0  0
  3  4  2  0  0  0
  4 34  1  0  0  0
 34 35  1  0  0  0
  4  5  1  0  0  0
  9 10  1  0  0  0
 10 11  2  0  0  0
 11 12  1  0  0  0
 12 13  2  0  0  0
 13 14  1  0  0  0
 14 15  2  0  0  0
 13 16  1  0  0  0
 16 17  1  0  0  0
 16 18  1  0  0  0
 16 19  1  0  0  0
 15  6  1  0  0  0
  5  1  1  0  0  0
 15 10  1  0  0  0
 33 27  1  0  0  0
 24 25  1  0  0  0
 35 36  1  0  0  0
 35 37  1  0  0  0
M  END
> <minimizedAffinity>
-4.91033

> <CNNscore>
0.3975732327

> <CNNaffinity>
5.4734935760

> <CNN_VS>
2.1761145592

> <CNNaffinity_variance>
0.2059597075

$$$$
[H]c1c([H])c(C([H])([H])N([H])C(=O)c2nc(-c3c([H])c([H])c(OC([H])([H])[H])c4nc(C(F)(F)F)c([H])c([H])c34)oc2C([H])([H])N([H])[H])c([H])c([H])c1F


 37 40  0  0  0  0  0  0  0  0999 V2000
   36.7033  -21.5573   39.5796 C   0  0  0  0  0  0  0  0  0  0  0  0
   35.8281  -22.5065   39.2894 N   0  0  0  0  0  0  0  0  0  0  0  0
   34.9401  -22.6630   40.2490 C   0  0  0  0  0  0  0  0  0  0  0  0
   35.2832  -21.7276   41.2381 C   0  0  0  0  0  0  0  0  0  0  0  0
   36.3291  -21.1185   40.7706 O   0  0  0  0  0  0  0  0  0  0  0  0
   39.9946  -19.9673   37.4283 C   0  0  0  0  0  0  0  0  0  0  0  0
   40.2030  -20.7185   38.5599 C   0  0  0  0  0  0  0  0  0  0  0  0
   39.1479  -21.2314   39.2808 C   0  0  0  0  0  0  0  0  0  0  0  0
   37.8542  -21.0041   38.8868 C   0  0  0  0  0  0  0  0  0  0  0  0
   37.6450  -20.2385   37.7426 C   0  0  0  0  0  0  0  0  0  0  0  0
   36.3312  -19.9570   37.3621 C   0  0  0  0  0  0  0  0  0  0  0  0
   36.1257  -19.1530   36.2215 C   0  0  0  0  0  0  0  0  0  0  0  0
   37.1986  -18.6876   35.5475 C   0  0  0  0  0  0  0  0  0  0  0  0
   38.4651  -18.9468   35.9083 N   0  0  0  0  0  0  0  0  0  0  0  0
   38.6578  -19.7033   36.9871 C   0  0  0  0  0  0  0  0  0  0  0  0
   36.9519  -17.8456   34.3215 C   0  0  0  0  0  0  0  0  0  0  0  0
   38.0095  -17.8367   33.4673 F   0  0  0  0  0  0  0  0  0  0  0  0
   36.7057  -16.5489   34.7441 F   0  0  0  0  0  0  0  0  0  0  0  0
   35.8581  -18.3276   33.6510 F   0  0  0  0  0  0  0  0  0  0  0  0
   41.9703  -19.0056   36.1368 C   0  0  0  0  0  0  0  0  0  0  0  0
   40.9444  -19.4701   36.7157 O   0  0  0  0  0  0  0  0  0  0  0  0
   33.7111  -23.4643   40.4062 C   0  0  0  0  0  0  0  0  0  0  0  0
   33.7136  -24.3906   41.2486 O   0  0  0  0  0  0  0  0  0  0  0  0
   32.5642  -23.1894   39.6462 N   0  0  0  0  0  0  0  0  0  0  0  0
   32.6413  -22.3938   38.9213 H   0  0  0  0  0  0  0  0  0  0  0  0
   31.2638  -23.8044   39.6750 C   0  0  0  0  0  0  0  0  0  0  0  0
   30.5088  -23.2382   38.5065 C   0  0  0  0  0  0  0  0  0  0  0  0
   31.2048  -22.5008   37.5408 C   0  0  0  0  0  0  0  0  0  0  0  0
   30.5304  -21.9288   36.4881 C   0  0  0  0  0  0  0  0  0  0  0  0
   29.2012  -22.0379   36.3145 C   0  0  0  0  0  0  0  0  0  0  0  0
   28.5355  -21.4321   35.2765 F   0  0  0  0  0  0  0  0  0  0  0  0
   28.4747  -22.7761   37.2548 C   0  0  0  0  0  0  0  0  0  0  0  0
   29.1857  -23.3465   38.3263 C   0  0  0  0  0  0  0  0  0  0  0  0
   34.6798  -21.4034   42.5366 C   0  0  0  0  0  0  0  0  0  0  0  0
   35.0971  -20.0176   42.9649 N   0  0  0  0  0  0  0  0  0  0  0  0
   35.5510  -19.6336   42.0972 H   0  0  0  0  0  0  0  0  0  0  0  0
   34.2232  -19.4820   43.1869 H   0  0  0  0  0  0  0  0  0  0  0  0
 20 21  1  0  0  0
 21  6  1  0  0  0
  6  7  2  0  0  0
  7  8  1  0  0  0
  8  9  2  0  0  0
  9  1  1  0  0  0
  1  2  2  0  0  0
  2  3  1  0  0  0
  3 22  1  0  0  0
 22 23  2  0  0  0
 22 24  1  0  0  0
 24 26  1  0  0  0
 26 27  1  0  0  0
 27 28  2  0  0  0
 28 29  1  0  0  0
 29 30  2  0  0  0
 30 31  1  0  0  0
 30 32  1  0  0  0
 32 33  2  0  0  0
  3  4  2  0  0  0
  4 34  1  0  0  0
 34 35  1  0  0  0
  4  5  1  0  0  0
  9 10  1  0  0  0
 10 11  2  0  0  0
 11 12  1  0  0  0
 12 13  2  0  0  0
 13 14  1  0  0  0
 14 15  2  0  0  0
 13 16  1  0  0  0
 16 17  1  0  0  0
 16 18  1  0  0  0
 16 19  1  0  0  0
 15  6  1  0  0  0
  5  1  1  0  0  0
 15 10  1  0  0  0
 33 27  1  0  0  0
 24 25  1  0  0  0
 35 36  1  0  0  0
 35 37  1  0  0  0
M  END
> <minimizedAffinity>
-4.83814

> <CNNscore>
0.3866290748

> <CNNaffinity>
5.1870536804

> <CNN_VS>
2.0054657459

> <CNNaffinity_variance>
0.0826763138

$$$$
[H]c1c([H])c(C([H])([H])N([H])C(=O)c2nc(-c3c([H])c([H])c(OC([H])([H])[H])c4nc(C(F)(F)F)c([H])c([H])c34)oc2C([H])([H])N([H])[H])c([H])c([H])c1F


 37 40  0  0  0  0  0  0  0  0999 V2000
   38.0707  -21.5812   37.3616 C   0  0  0  0  0  0  0  0  0  0  0  0
   37.6651  -20.8542   36.3329 N   0  0  0  0  0  0  0  0  0  0  0  0
   36.4313  -20.4238   36.4945 C   0  0  0  0  0  0  0  0  0  0  0  0
   36.0162  -20.9232   37.7392 C   0  0  0  0  0  0  0  0  0  0  0  0
   37.0345  -21.5928   38.1845 O   0  0  0  0  0  0  0  0  0  0  0  0
   41.7558  -23.5003   38.2136 C   0  0  0  0  0  0  0  0  0  0  0  0
   40.6372  -24.2437   37.9228 C   0  0  0  0  0  0  0  0  0  0  0  0
   39.4281  -23.6406   37.6578 C   0  0  0  0  0  0  0  0  0  0  0  0
   39.3074  -22.2748   37.6781 C   0  0  0  0  0  0  0  0  0  0  0  0
   40.4408  -21.5234   37.9778 C   0  0  0  0  0  0  0  0  0  0  0  0
   40.3170  -20.1345   38.0527 C   0  0  0  0  0  0  0  0  0  0  0  0
   41.4608  -19.3809   38.3897 C   0  0  0  0  0  0  0  0  0  0  0  0
   42.6222  -20.0261   38.6278 C   0  0  0  0  0  0  0  0  0  0  0  0
   42.7505  -21.3606   38.5649 N   0  0  0  0  0  0  0  0  0  0  0  0
   41.6693  -22.0712   38.2497 C   0  0  0  0  0  0  0  0  0  0  0  0
   43.8342  -19.1965   38.9683 C   0  0  0  0  0  0  0  0  0  0  0  0
   44.5740  -18.8718   37.8749 F   0  0  0  0  0  0  0  0  0  0  0  0
   44.6198  -19.9363   39.8378 F   0  0  0  0  0  0  0  0  0  0  0  0
   43.4348  -18.0372   39.5805 F   0  0  0  0  0  0  0  0  0  0  0  0
   43.9822  -24.6540   38.6699 C   0  0  0  0  0  0  0  0  0  0  0  0
   42.9099  -24.0133   38.4627 O   0  0  0  0  0  0  0  0  0  0  0  0
   35.5442  -19.5098   35.7494 C   0  0  0  0  0  0  0  0  0  0  0  0
   35.9776  -18.3713   35.4602 O   0  0  0  0  0  0  0  0  0  0  0  0
   34.2562  -19.9068   35.3600 N   0  0  0  0  0  0  0  0  0  0  0  0
   33.9387  -20.8920   35.6651 H   0  0  0  0  0  0  0  0  0  0  0  0
   33.2604  -19.2028   34.5963 C   0  0  0  0  0  0  0  0  0  0  0  0
   31.9316  -19.7297   35.0576 C   0  0  0  0  0  0  0  0  0  0  0  0
   31.8985  -20.8608   35.8824 C   0  0  0  0  0  0  0  0  0  0  0  0
   30.6945  -21.3938   36.2778 C   0  0  0  0  0  0  0  0  0  0  0  0
   29.5046  -20.8811   35.9173 C   0  0  0  0  0  0  0  0  0  0  0  0
   28.3088  -21.4444   36.2918 F   0  0  0  0  0  0  0  0  0  0  0  0
   29.4994  -19.7446   35.1016 C   0  0  0  0  0  0  0  0  0  0  0  0
   30.7434  -19.2213   34.7049 C   0  0  0  0  0  0  0  0  0  0  0  0
   34.7585  -20.7863   38.4839 C   0  0  0  0  0  0  0  0  0  0  0  0
   34.9797  -19.9397   39.7138 N   0  0  0  0  0  0  0  0  0  0  0  0
   35.9433  -19.5489   39.5559 H   0  0  0  0  0  0  0  0  0  0  0  0
   34.2669  -19.1707   39.6969 H   0  0  0  0  0  0  0  0  0  0  0  0
 20 21  1  0  0  0
 21  6  1  0  0  0
  6  7  2  0  0  0
  7  8  1  0  0  0
  8  9  2  0  0  0
  9  1  1  0  0  0
  1  2  2  0  0  0
  2  3  1  0  0  0
  3 22  1  0  0  0
 22 23  2  0  0  0
 22 24  1  0  0  0
 24 26  1  0  0  0
 26 27  1  0  0  0
 27 28  2  0  0  0
 28 29  1  0  0  0
 29 30  2  0  0  0
 30 31  1  0  0  0
 30 32  1  0  0  0
 32 33  2  0  0  0
  3  4  2  0  0  0
  4 34  1  0  0  0
 34 35  1  0  0  0
  4  5  1  0  0  0
  9 10  1  0  0  0
 10 11  2  0  0  0
 11 12  1  0  0  0
 12 13  2  0  0  0
 13 14  1  0  0  0
 14 15  2  0  0  0
 13 16  1  0  0  0
 16 17  1  0  0  0
 16 18  1  0  0  0
 16 19  1  0  0  0
 15  6  1  0  0  0
  5  1  1  0  0  0
 15 10  1  0  0  0
 33 27  1  0  0  0
 24 25  1  0  0  0
 35 36  1  0  0  0
 35 37  1  0  0  0
M  END
> <minimizedAffinity>
-4.88681

> <CNNscore>
0.3703765869

> <CNNaffinity>
5.3709516525

> <CNN_VS>
1.9892747402

> <CNNaffinity_variance>
0.0161837582

$$$$
[H]c1c([H])c(C([H])([H])N([H])C(=O)c2nc(-c3c([H])c([H])c(OC([H])([H])[H])c4nc(C(F)(F)F)c([H])c([H])c34)oc2C([H])([H])N([H])[H])c([H])c([H])c1F


 37 40  0  0  0  0  0  0  0  0999 V2000
   32.6867  -20.5151   36.4111 C   0  0  0  0  0  0  0  0  0  0  0  0
   32.4487  -19.2134   36.4229 N   0  0  0  0  0  0  0  0  0  0  0  0
   33.2482  -18.5626   35.6037 C   0  0  0  0  0  0  0  0  0  0  0  0
   34.0682  -19.5406   35.0188 C   0  0  0  0  0  0  0  0  0  0  0  0
   33.6769  -20.6601   35.5453 O   0  0  0  0  0  0  0  0  0  0  0  0
   31.1359  -23.8751   38.4834 C   0  0  0  0  0  0  0  0  0  0  0  0
   30.5239  -23.4222   37.3395 C   0  0  0  0  0  0  0  0  0  0  0  0
   31.0027  -22.3244   36.6600 C   0  0  0  0  0  0  0  0  0  0  0  0
   32.1086  -21.6499   37.1101 C   0  0  0  0  0  0  0  0  0  0  0  0
   32.7244  -22.1074   38.2722 C   0  0  0  0  0  0  0  0  0  0  0  0
   33.8195  -21.3968   38.7682 C   0  0  0  0  0  0  0  0  0  0  0  0
   34.4185  -21.8451   39.9640 C   0  0  0  0  0  0  0  0  0  0  0  0
   33.9127  -22.9343   40.5803 C   0  0  0  0  0  0  0  0  0  0  0  0
   32.8569  -23.6205   40.1157 N   0  0  0  0  0  0  0  0  0  0  0  0
   32.2904  -23.1944   38.9885 C   0  0  0  0  0  0  0  0  0  0  0  0
   34.5821  -23.4037   41.8470 C   0  0  0  0  0  0  0  0  0  0  0  0
   34.5380  -24.7543   41.9964 F   0  0  0  0  0  0  0  0  0  0  0  0
   33.9247  -22.8127   42.9143 F   0  0  0  0  0  0  0  0  0  0  0  0
   35.8953  -23.0117   41.8399 F   0  0  0  0  0  0  0  0  0  0  0  0
   30.1963  -25.8761   39.7519 C   0  0  0  0  0  0  0  0  0  0  0  0
   30.7329  -24.8984   39.1523 O   0  0  0  0  0  0  0  0  0  0  0  0
   33.3481  -17.1645   35.1425 C   0  0  0  0  0  0  0  0  0  0  0  0
   33.1995  -16.9334   33.9210 O   0  0  0  0  0  0  0  0  0  0  0  0
   33.5870  -16.1183   36.0462 N   0  0  0  0  0  0  0  0  0  0  0  0
   33.7305  -16.3928   37.0799 H   0  0  0  0  0  0  0  0  0  0  0  0
   33.6706  -14.6996   35.8208 C   0  0  0  0  0  0  0  0  0  0  0  0
   34.9942  -14.2655   36.3828 C   0  0  0  0  0  0  0  0  0  0  0  0
   35.8049  -15.2122   37.0208 C   0  0  0  0  0  0  0  0  0  0  0  0
   36.9979  -14.8317   37.5883 C   0  0  0  0  0  0  0  0  0  0  0  0
   37.4572  -13.5678   37.5669 C   0  0  0  0  0  0  0  0  0  0  0  0
   38.6350  -13.1953   38.1681 F   0  0  0  0  0  0  0  0  0  0  0  0
   36.6780  -12.5968   36.9291 C   0  0  0  0  0  0  0  0  0  0  0  0
   35.4586  -13.0091   36.3614 C   0  0  0  0  0  0  0  0  0  0  0  0
   35.1450  -19.4549   34.0247 C   0  0  0  0  0  0  0  0  0  0  0  0
   36.4409  -19.0816   34.7024 N   0  0  0  0  0  0  0  0  0  0  0  0
   36.2058  -19.1810   35.7228 H   0  0  0  0  0  0  0  0  0  0  0  0
   37.1575  -19.7941   34.4221 H   0  0  0  0  0  0  0  0  0  0  0  0
 20 21  1  0  0  0
 21  6  1  0  0  0
  6  7  2  0  0  0
  7  8  1  0  0  0
  8  9  2  0  0  0
  9  1  1  0  0  0
  1  2  2  0  0  0
  2  3  1  0  0  0
  3 22  1  0  0  0
 22 23  2  0  0  0
 22 24  1  0  0  0
 24 26  1  0  0  0
 26 27  1  0  0  0
 27 28  2  0  0  0
 28 29  1  0  0  0
 29 30  2  0  0  0
 30 31  1  0  0  0
 30 32  1  0  0  0
 32 33  2  0  0  0
  3  4  2  0  0  0
  4 34  1  0  0  0
 34 35  1  0  0  0
  4  5  1  0  0  0
  9 10  1  0  0  0
 10 11  2  0  0  0
 11 12  1  0  0  0
 12 13  2  0  0  0
 13 14  1  0  0  0
 14 15  2  0  0  0
 13 16  1  0  0  0
 16 17  1  0  0  0
 16 18  1  0  0  0
 16 19  1  0  0  0
 15  6  1  0  0  0
  5  1  1  0  0  0
 15 10  1  0  0  0
 33 27  1  0  0  0
 24 25  1  0  0  0
 35 36  1  0  0  0
 35 37  1  0  0  0
M  END
> <minimizedAffinity>
-5.90472

> <CNNscore>
0.3480512798

> <CNNaffinity>
5.3950119019

> <CNN_VS>
1.8777407408

> <CNNaffinity_variance>
0.0591835491

$$$$
[H]c1c([H])c(C([H])([H])N([H])C(=O)c2nc(-c3c([H])c([H])c(OC([H])([H])[H])c4nc(C(F)(F)F)c([H])c([H])c34)oc2C([H])([H])N([H])[H])c([H])c([H])c1F


 37 40  0  0  0  0  0  0  0  0999 V2000
   35.0613  -14.6124   36.6393 C   0  0  0  0  0  0  0  0  0  0  0  0
   35.9806  -15.3801   37.2023 N   0  0  0  0  0  0  0  0  0  0  0  0
   35.8702  -16.6353   36.8205 C   0  0  0  0  0  0  0  0  0  0  0  0
   34.7818  -16.6670   35.9344 C   0  0  0  0  0  0  0  0  0  0  0  0
   34.3607  -15.4409   35.8818 O   0  0  0  0  0  0  0  0  0  0  0  0
   34.0034  -10.5097   36.8320 C   0  0  0  0  0  0  0  0  0  0  0  0
   35.2385  -10.8865   36.3621 C   0  0  0  0  0  0  0  0  0  0  0  0
   35.6070  -12.2120   36.3052 C   0  0  0  0  0  0  0  0  0  0  0  0
   34.7466  -13.1964   36.7191 C   0  0  0  0  0  0  0  0  0  0  0  0
   33.4973  -12.8122   37.1995 C   0  0  0  0  0  0  0  0  0  0  0  0
   32.6337  -13.8025   37.6723 C   0  0  0  0  0  0  0  0  0  0  0  0
   31.3829  -13.4045   38.1889 C   0  0  0  0  0  0  0  0  0  0  0  0
   31.0716  -12.0913   38.2089 C   0  0  0  0  0  0  0  0  0  0  0  0
   31.8967  -11.1312   37.7631 N   0  0  0  0  0  0  0  0  0  0  0  0
   33.0784  -11.5079   37.2785 C   0  0  0  0  0  0  0  0  0  0  0  0
   29.7215  -11.6935   38.7493 C   0  0  0  0  0  0  0  0  0  0  0  0
   29.8003  -10.7337   39.7088 F   0  0  0  0  0  0  0  0  0  0  0  0
   29.1362  -12.8254   39.2941 F   0  0  0  0  0  0  0  0  0  0  0  0
   28.9433  -11.2194   37.7256 F   0  0  0  0  0  0  0  0  0  0  0  0
   33.0742   -8.1405   36.9718 C   0  0  0  0  0  0  0  0  0  0  0  0
   33.6075   -9.2867   36.9006 O   0  0  0  0  0  0  0  0  0  0  0  0
   36.6683  -17.8586   37.0303 C   0  0  0  0  0  0  0  0  0  0  0  0
   37.8822  -17.8316   36.7249 O   0  0  0  0  0  0  0  0  0  0  0  0
   36.0908  -19.0172   37.5713 N   0  0  0  0  0  0  0  0  0  0  0  0
   35.0343  -18.9776   37.7873 H   0  0  0  0  0  0  0  0  0  0  0  0
   36.6885  -20.2840   37.9003 C   0  0  0  0  0  0  0  0  0  0  0  0
   36.2278  -20.6136   39.2915 C   0  0  0  0  0  0  0  0  0  0  0  0
   35.0097  -20.0929   39.7450 C   0  0  0  0  0  0  0  0  0  0  0  0
   34.5885  -20.3372   41.0307 C   0  0  0  0  0  0  0  0  0  0  0  0
   35.2899  -21.0726   41.9115 C   0  0  0  0  0  0  0  0  0  0  0  0
   34.8733  -21.2801   43.2042 F   0  0  0  0  0  0  0  0  0  0  0  0
   36.5074  -21.6173   41.4897 C   0  0  0  0  0  0  0  0  0  0  0  0
   36.9202  -21.3483   40.1720 C   0  0  0  0  0  0  0  0  0  0  0  0
   34.1672  -17.7596   35.1704 C   0  0  0  0  0  0  0  0  0  0  0  0
   32.8037  -17.3386   34.6786 N   0  0  0  0  0  0  0  0  0  0  0  0
   32.7922  -16.3068   34.8825 H   0  0  0  0  0  0  0  0  0  0  0  0
   32.7787  -17.5063   33.6437 H   0  0  0  0  0  0  0  0  0  0  0  0
 20 21  1  0  0  0
 21  6  1  0  0  0
  6  7  2  0  0  0
  7  8  1  0  0  0
  8  9  2  0  0  0
  9  1  1  0  0  0
  1  2  2  0  0  0
  2  3  1  0  0  0
  3 22  1  0  0  0
 22 23  2  0  0  0
 22 24  1  0  0  0
 24 26  1  0  0  0
 26 27  1  0  0  0
 27 28  2  0  0  0
 28 29  1  0  0  0
 29 30  2  0  0  0
 30 31  1  0  0  0
 30 32  1  0  0  0
 32 33  2  0  0  0
  3  4  2  0  0  0
  4 34  1  0  0  0
 34 35  1  0  0  0
  4  5  1  0  0  0
  9 10  1  0  0  0
 10 11  2  0  0  0
 11 12  1  0  0  0
 12 13  2  0  0  0
 13 14  1  0  0  0
 14 15  2  0  0  0
 13 16  1  0  0  0
 16 17  1  0  0  0
 16 18  1  0  0  0
 16 19  1  0  0  0
 15  6  1  0  0  0
  5  1  1  0  0  0
 15 10  1  0  0  0
 33 27  1  0  0  0
 24 25  1  0  0  0
 35 36  1  0  0  0
 35 37  1  0  0  0
M  END
> <minimizedAffinity>
-5.65441

> <CNNscore>
0.3324356973

> <CNNaffinity>
6.0457115173

> <CNN_VS>
2.0098102093

> <CNNaffinity_variance>
0.1792872846

$$$$
[H]c1c([H])c(C([H])([H])N([H])C(=O)c2nc(-c3c([H])c([H])c(OC([H])([H])[H])c4nc(C(F)(F)F)c([H])c([H])c34)oc2C([H])([H])N([H])[H])c([H])c([H])c1F


 37 40  0  0  0  0  0  0  0  0999 V2000
   35.1170  -14.4942   36.6094 C   0  0  0  0  0  0  0  0  0  0  0  0
   35.8676  -15.3120   37.3299 N   0  0  0  0  0  0  0  0  0  0  0  0
   35.7235  -16.5659   36.9551 C   0  0  0  0  0  0  0  0  0  0  0  0
   34.7970  -16.5416   35.9006 C   0  0  0  0  0  0  0  0  0  0  0  0
   34.4881  -15.2894   35.7590 O   0  0  0  0  0  0  0  0  0  0  0  0
   34.3601  -10.3211   36.5774 C   0  0  0  0  0  0  0  0  0  0  0  0
   35.5755  -10.8091   36.1614 C   0  0  0  0  0  0  0  0  0  0  0  0
   35.8465  -12.1590   36.1778 C   0  0  0  0  0  0  0  0  0  0  0  0
   34.9057  -13.0569   36.6130 C   0  0  0  0  0  0  0  0  0  0  0  0
   33.6765  -12.5600   37.0388 C   0  0  0  0  0  0  0  0  0  0  0  0
   32.7306  -13.4606   37.5330 C   0  0  0  0  0  0  0  0  0  0  0  0
   31.5001  -12.9480   37.9943 C   0  0  0  0  0  0  0  0  0  0  0  0
   31.2861  -11.6163   37.9431 C   0  0  0  0  0  0  0  0  0  0  0  0
   32.1907  -10.7416   37.4762 N   0  0  0  0  0  0  0  0  0  0  0  0
   33.3531  -11.2264   37.0439 C   0  0  0  0  0  0  0  0  0  0  0  0
   29.9559  -11.0956   38.4252 C   0  0  0  0  0  0  0  0  0  0  0  0
   29.9636   -9.7538   38.6442 F   0  0  0  0  0  0  0  0  0  0  0  0
   29.6566  -11.7423   39.6139 F   0  0  0  0  0  0  0  0  0  0  0  0
   28.9920  -11.3763   37.4922 F   0  0  0  0  0  0  0  0  0  0  0  0
   33.6086   -7.8860   36.5427 C   0  0  0  0  0  0  0  0  0  0  0  0
   34.0539   -9.0708   36.5767 O   0  0  0  0  0  0  0  0  0  0  0  0
   36.3774  -17.8390   37.3144 C   0  0  0  0  0  0  0  0  0  0  0  0
   37.5835  -17.9891   37.0135 O   0  0  0  0  0  0  0  0  0  0  0  0
   35.6756  -18.8496   37.9885 N   0  0  0  0  0  0  0  0  0  0  0  0
   34.6327  -18.6627   38.1935 H   0  0  0  0  0  0  0  0  0  0  0  0
   36.1266  -20.1281   38.4706 C   0  0  0  0  0  0  0  0  0  0  0  0
   35.2757  -21.1570   37.7824 C   0  0  0  0  0  0  0  0  0  0  0  0
   34.0421  -20.7694   37.2452 C   0  0  0  0  0  0  0  0  0  0  0  0
   33.2212  -21.7007   36.6547 C   0  0  0  0  0  0  0  0  0  0  0  0
   33.5364  -23.0040   36.5501 C   0  0  0  0  0  0  0  0  0  0  0  0
   32.6912  -23.9299   35.9881 F   0  0  0  0  0  0  0  0  0  0  0  0
   34.7661  -23.4255   37.0670 C   0  0  0  0  0  0  0  0  0  0  0  0
   35.5859  -22.4556   37.6719 C   0  0  0  0  0  0  0  0  0  0  0  0
   34.2330  -17.6066   35.0624 C   0  0  0  0  0  0  0  0  0  0  0  0
   32.7799  -17.3176   34.7738 N   0  0  0  0  0  0  0  0  0  0  0  0
   32.6679  -16.3292   35.1156 H   0  0  0  0  0  0  0  0  0  0  0  0
   32.6527  -17.3605   33.7337 H   0  0  0  0  0  0  0  0  0  0  0  0
 20 21  1  0  0  0
 21  6  1  0  0  0
  6  7  2  0  0  0
  7  8  1  0  0  0
  8  9  2  0  0  0
  9  1  1  0  0  0
  1  2  2  0  0  0
  2  3  1  0  0  0
  3 22  1  0  0  0
 22 23  2  0  0  0
 22 24  1  0  0  0
 24 26  1  0  0  0
 26 27  1  0  0  0
 27 28  2  0  0  0
 28 29  1  0  0  0
 29 30  2  0  0  0
 30 31  1  0  0  0
 30 32  1  0  0  0
 32 33  2  0  0  0
  3  4  2  0  0  0
  4 34  1  0  0  0
 34 35  1  0  0  0
  4  5  1  0  0  0
  9 10  1  0  0  0
 10 11  2  0  0  0
 11 12  1  0  0  0
 12 13  2  0  0  0
 13 14  1  0  0  0
 14 15  2  0  0  0
 13 16  1  0  0  0
 16 17  1  0  0  0
 16 18  1  0  0  0
 16 19  1  0  0  0
 15  6  1  0  0  0
  5  1  1  0  0  0
 15 10  1  0  0  0
 33 27  1  0  0  0
 24 25  1  0  0  0
 35 36  1  0  0  0
 35 37  1  0  0  0
M  END
> <minimizedAffinity>
-6.12519

> <CNNscore>
0.3246440589

> <CNNaffinity>
6.0643153191

> <CNN_VS>
1.9687439203

> <CNNaffinity_variance>
0.2134191245

$$$$
[H]c1c([H])c(C([H])([H])N([H])C(=O)c2nc(-c3c([H])c([H])c(OC([H])([H])[H])c4nc(C(F)(F)F)c([H])c([H])c34)oc2C([H])([H])N([H])[H])c([H])c([H])c1F


 37 40  0  0  0  0  0  0  0  0999 V2000
   35.9482  -20.0676   37.1161 C   0  0  0  0  0  0  0  0  0  0  0  0
   37.1534  -20.3325   36.6379 N   0  0  0  0  0  0  0  0  0  0  0  0
   37.8665  -19.2377   36.4750 C   0  0  0  0  0  0  0  0  0  0  0  0
   37.0382  -18.1819   36.8876 C   0  0  0  0  0  0  0  0  0  0  0  0
   35.9295  -18.7511   37.2484 O   0  0  0  0  0  0  0  0  0  0  0  0
   32.5158  -22.3426   38.1318 C   0  0  0  0  0  0  0  0  0  0  0  0
   33.7350  -22.6380   38.6926 C   0  0  0  0  0  0  0  0  0  0  0  0
   34.8642  -21.9212   38.3652 C   0  0  0  0  0  0  0  0  0  0  0  0
   34.8015  -20.8885   37.4652 C   0  0  0  0  0  0  0  0  0  0  0  0
   33.5661  -20.5939   36.8943 C   0  0  0  0  0  0  0  0  0  0  0  0
   33.5011  -19.5787   35.9375 C   0  0  0  0  0  0  0  0  0  0  0  0
   32.2535  -19.3072   35.3379 C   0  0  0  0  0  0  0  0  0  0  0  0
   31.1784  -20.0352   35.7069 C   0  0  0  0  0  0  0  0  0  0  0  0
   31.2313  -21.0171   36.6204 N   0  0  0  0  0  0  0  0  0  0  0  0
   32.4102  -21.2745   37.1835 C   0  0  0  0  0  0  0  0  0  0  0  0
   29.8531  -19.7133   35.0645 C   0  0  0  0  0  0  0  0  0  0  0  0
   28.9733  -20.7480   35.1253 F   0  0  0  0  0  0  0  0  0  0  0  0
   30.0935  -19.4065   33.7346 F   0  0  0  0  0  0  0  0  0  0  0  0
   29.2933  -18.6318   35.6933 F   0  0  0  0  0  0  0  0  0  0  0  0
   30.4051  -23.5910   38.8265 C   0  0  0  0  0  0  0  0  0  0  0  0
   31.4300  -22.9767   38.4073 O   0  0  0  0  0  0  0  0  0  0  0  0
   39.2652  -18.9556   36.0991 C   0  0  0  0  0  0  0  0  0  0  0  0
   40.1041  -18.8033   37.0161 O   0  0  0  0  0  0  0  0  0  0  0  0
   39.6521  -18.8753   34.7529 N   0  0  0  0  0  0  0  0  0  0  0  0
   38.8724  -18.9914   34.0159 H   0  0  0  0  0  0  0  0  0  0  0  0
   40.9516  -18.6626   34.1730 C   0  0  0  0  0  0  0  0  0  0  0  0
   41.6048  -20.0136   34.1069 C   0  0  0  0  0  0  0  0  0  0  0  0
   41.2447  -20.8927   33.0782 C   0  0  0  0  0  0  0  0  0  0  0  0
   41.7896  -22.1537   33.0233 C   0  0  0  0  0  0  0  0  0  0  0  0
   42.6802  -22.6143   33.9196 C   0  0  0  0  0  0  0  0  0  0  0  0
   43.1906  -23.8889   33.8722 F   0  0  0  0  0  0  0  0  0  0  0  0
   43.0708  -21.7594   34.9558 C   0  0  0  0  0  0  0  0  0  0  0  0
   42.4950  -20.4765   34.9945 C   0  0  0  0  0  0  0  0  0  0  0  0
   37.2546  -16.7315   36.9562 C   0  0  0  0  0  0  0  0  0  0  0  0
   36.6505  -16.0644   35.7445 N   0  0  0  0  0  0  0  0  0  0  0  0
   36.0892  -16.8398   35.3087 H   0  0  0  0  0  0  0  0  0  0  0  0
   36.0160  -15.3040   36.0893 H   0  0  0  0  0  0  0  0  0  0  0  0
 20 21  1  0  0  0
 21  6  1  0  0  0
  6  7  2  0  0  0
  7  8  1  0  0  0
  8  9  2  0  0  0
  9  1  1  0  0  0
  1  2  2  0  0  0
  2  3  1  0  0  0
  3 22  1  0  0  0
 22 23  2  0  0  0
 22 24  1  0  0  0
 24 26  1  0  0  0
 26 27  1  0  0  0
 27 28  2  0  0  0
 28 29  1  0  0  0
 29 30  2  0  0  0
 30 31  1  0  0  0
 30 32  1  0  0  0
 32 33  2  0  0  0
  3  4  2  0  0  0
  4 34  1  0  0  0
 34 35  1  0  0  0
  4  5  1  0  0  0
  9 10  1  0  0  0
 10 11  2  0  0  0
 11 12  1  0  0  0
 12 13  2  0  0  0
 13 14  1  0  0  0
 14 15  2  0  0  0
 13 16  1  0  0  0
 16 17  1  0  0  0
 16 18  1  0  0  0
 16 19  1  0  0  0
 15  6  1  0  0  0
  5  1  1  0  0  0
 15 10  1  0  0  0
 33 27  1  0  0  0
 24 25  1  0  0  0
 35 36  1  0  0  0
 35 37  1  0  0  0
M  END
> <minimizedAffinity>
-5.82604

> <CNNscore>
0.3051460683

> <CNNaffinity>
5.2915749550

> <CNN_VS>
1.6147032976

> <CNNaffinity_variance>
0.1611407399

$$$$
[H]N=C(N([H])[H])N([H])C([H])([H])C([H])([H])C([H])([H])[C@@]([H])(C(=O)c1nc([H])c([H])s1)N([H])C(=O)[C@@]1([H])N(C(=O)[C@@]([H])(N([H])C(=O)OC(C([H])([H])[H])(C([H])([H])[H])C([H])([H])[H])C([H])([H])C([H])([H])C(=O)O[H])C([H])([H])C([H])([H])C1([H])[H]


 46 47  0  0  0  0  0  0  0  0999 V2000
   33.9104  -12.7747   37.6869 C   0  0  0  0  0  0  0  0  0  0  0  0
   33.4564  -12.9407   38.9191 O   0  0  0  0  0  0  0  0  0  0  0  0
   34.8926  -13.6968   37.3395 N   0  0  0  0  0  0  0  0  0  0  0  0
   35.3596  -14.7766   38.3036 C   0  0  0  0  0  0  0  0  0  0  0  0
   36.8511  -14.7529   38.1367 C   0  0  0  0  0  0  0  0  0  0  0  0
   37.1224  -14.0411   36.8425 C   0  0  0  0  0  0  0  0  0  0  0  0
   35.7241  -13.9785   36.2087 C   0  0  0  0  0  0  0  0  0  0  0  0
   35.3570  -15.2893   35.5835 C   0  0  0  0  0  0  0  0  0  0  0  0
   34.1758  -15.4306   35.1894 O   0  0  0  0  0  0  0  0  0  0  0  0
   36.3483  -16.2602   35.4869 N   0  0  0  0  0  0  0  0  0  0  0  0
   37.3157  -16.1493   35.8016 H   0  0  0  0  0  0  0  0  0  0  0  0
   35.9532  -17.6195   34.8507 C   0  0  0  0  0  0  0  0  0  0  0  0
   35.5092  -18.3394   35.9605 C   0  0  0  0  0  0  0  0  0  0  0  0
   36.3125  -18.1715   37.0602 O   0  0  0  0  0  0  0  0  0  0  0  0
   34.4428  -19.2402   36.3253 C   0  0  0  0  0  0  0  0  0  0  0  0
   34.5321  -20.1519   37.3531 N   0  0  0  0  0  0  0  0  0  0  0  0
   33.5739  -20.9691   37.5650 C   0  0  0  0  0  0  0  0  0  0  0  0
   32.4731  -20.9183   36.7580 C   0  0  0  0  0  0  0  0  0  0  0  0
   32.9119  -19.6551   35.7187 S   0  0  0  0  0  0  0  0  0  0  0  0
   36.7454  -17.7599   33.6793 C   0  0  0  0  0  0  0  0  0  0  0  0
   38.1235  -18.1518   33.5539 C   0  0  0  0  0  0  0  0  0  0  0  0
   38.6500  -19.5103   33.6228 C   0  0  0  0  0  0  0  0  0  0  0  0
   39.6232  -19.7891   32.5688 N   0  0  0  0  0  0  0  0  0  0  0  0
   39.2907  -19.9188   31.6046 H   0  0  0  0  0  0  0  0  0  0  0  0
   40.9898  -19.8726   32.8909 C   0  0  0  0  0  0  0  0  0  0  0  0
   41.6853  -18.6741   33.2312 N   0  0  0  0  0  0  0  0  0  0  0  0
   41.6620  -20.9708   32.8975 N   0  0  0  0  0  0  0  0  0  0  0  0
   42.4966  -18.3367   32.6705 H   0  0  0  0  0  0  0  0  0  0  0  0
   41.3320  -18.1564   34.0782 H   0  0  0  0  0  0  0  0  0  0  0  0
   42.6676  -20.9860   33.1415 H   0  0  0  0  0  0  0  0  0  0  0  0
   33.3022  -11.6756   36.9562 C   0  0  0  0  0  0  0  0  0  0  0  0
   30.8692  -10.9263   37.1338 C   0  0  0  0  0  0  0  0  0  0  0  0
   31.0732   -9.6986   37.2228 O   0  0  0  0  0  0  0  0  0  0  0  0
   31.8462  -11.9280   36.9959 N   0  0  0  0  0  0  0  0  0  0  0  0
   31.5501  -12.9176   36.9098 H   0  0  0  0  0  0  0  0  0  0  0  0
   29.5318  -11.3173   37.1796 O   0  0  0  0  0  0  0  0  0  0  0  0
   28.7913  -10.0018   38.9964 C   0  0  0  0  0  0  0  0  0  0  0  0
   28.8124  -11.3891   38.3937 C   0  0  0  0  0  0  0  0  0  0  0  0
   27.3820  -11.8125   38.1855 C   0  0  0  0  0  0  0  0  0  0  0  0
   29.5706  -12.2842   39.3409 C   0  0  0  0  0  0  0  0  0  0  0  0
   33.6558  -10.3226   37.3601 C   0  0  0  0  0  0  0  0  0  0  0  0
   34.8249   -9.7292   36.5739 C   0  0  0  0  0  0  0  0  0  0  0  0
   34.5321   -8.4719   35.9062 C   0  0  0  0  0  0  0  0  0  0  0  0
   35.2253   -8.0231   34.7667 O   0  0  0  0  0  0  0  0  0  0  0  0
   33.6341   -7.7062   36.3148 O   0  0  0  0  0  0  0  0  0  0  0  0
   34.6530   -7.6339   34.0128 H   0  0  0  0  0  0  0  0  0  0  0  0
 37 38  1  0  0  0
 38 39  1  0  0  0
 38 40  1  0  0  0
 38 36  1  0  0  0
 36 32  1  0  0  0
 32 33  2  0  0  0
 32 34  1  0  0  0
 34 31  1  0  0  0
 31 41  1  0  0  0
 41 42  1  0  0  0
 42 43  1  0  0  0
 43 44  1  0  0  0
 43 45  2  0  0  0
 31  1  1  0  0  0
  1  2  2  0  0  0
  1  3  1  0  0  0
  3  4  1  0  0  0
  4  5  1  0  0  0
  5  6  1  0  0  0
  6  7  1  0  0  0
  7  8  1  0  0  0
  8  9  2  0  0  0
  8 10  1  0  0  0
 10 12  1  0  0  0
 12 20  1  0  0  0
 20 21  1  0  0  0
 21 22  1  0  0  0
 22 23  1  0  0  0
 23 25  1  0  0  0
 25 26  1  0  0  0
 25 27  2  0  0  0
 12 13  1  0  0  0
 13 14  2  0  0  0
 13 15  1  0  0  0
 15 16  2  0  0  0
 16 17  1  0  0  0
 17 18  2  0  0  0
 18 19  1  0  0  0
  7  3  1  0  0  0
 19 15  1  0  0  0
 34 35  1  0  0  0
 44 46  1  0  0  0
 10 11  1  0  0  0
 23 24  1  0  0  0
 26 28  1  0  0  0
 26 29  1  0  0  0
 27 30  1  0  0  0
M  END
> <minimizedAffinity>
-7.42746

> <CNNscore>
0.5128519535

> <CNNaffinity>
6.9350519180

> <CNN_VS>
3.5566549301

> <CNNaffinity_variance>
0.1726980507

$$$$
[H]N=C(N([H])[H])N([H])C([H])([H])C([H])([H])C([H])([H])[C@@]([H])(C(=O)c1nc([H])c([H])s1)N([H])C(=O)[C@@]1([H])N(C(=O)[C@@]([H])(N([H])C(=O)OC(C([H])([H])[H])(C([H])([H])[H])C([H])([H])[H])C([H])([H])C([H])([H])C(=O)O[H])C([H])([H])C([H])([H])C1([H])[H]


 46 47  0  0  0  0  0  0  0  0999 V2000
   32.7066  -21.5524   36.5785 C   0  0  0  0  0  0  0  0  0  0  0  0
   31.9483  -21.3106   37.6360 O   0  0  0  0  0  0  0  0  0  0  0  0
   32.7277  -20.4981   35.6709 N   0  0  0  0  0  0  0  0  0  0  0  0
   31.9531  -19.2118   35.9137 C   0  0  0  0  0  0  0  0  0  0  0  0
   31.3413  -18.9305   34.5723 C   0  0  0  0  0  0  0  0  0  0  0  0
   32.1106  -19.7479   33.5748 C   0  0  0  0  0  0  0  0  0  0  0  0
   33.3212  -20.2101   34.4004 C   0  0  0  0  0  0  0  0  0  0  0  0
   34.3413  -19.1194   34.5174 C   0  0  0  0  0  0  0  0  0  0  0  0
   34.2209  -18.1316   33.7557 O   0  0  0  0  0  0  0  0  0  0  0  0
   35.3533  -19.2785   35.4582 N   0  0  0  0  0  0  0  0  0  0  0  0
   35.4542  -20.0796   36.0869 H   0  0  0  0  0  0  0  0  0  0  0  0
   36.4131  -18.1492   35.5610 C   0  0  0  0  0  0  0  0  0  0  0  0
   35.8410  -17.3021   36.5108 C   0  0  0  0  0  0  0  0  0  0  0  0
   35.7565  -17.8764   37.7542 O   0  0  0  0  0  0  0  0  0  0  0  0
   35.2846  -15.9738   36.5985 C   0  0  0  0  0  0  0  0  0  0  0  0
   34.0748  -15.6153   36.0476 N   0  0  0  0  0  0  0  0  0  0  0  0
   33.6860  -14.4000   36.1001 C   0  0  0  0  0  0  0  0  0  0  0  0
   34.4883  -13.4764   36.7071 C   0  0  0  0  0  0  0  0  0  0  0  0
   35.7874  -14.4575   37.1746 S   0  0  0  0  0  0  0  0  0  0  0  0
   37.0928  -18.1219   34.3134 C   0  0  0  0  0  0  0  0  0  0  0  0
   38.2033  -18.9179   33.8640 C   0  0  0  0  0  0  0  0  0  0  0  0
   39.2951  -19.4280   34.6855 C   0  0  0  0  0  0  0  0  0  0  0  0
   40.2145  -20.2781   33.9320 N   0  0  0  0  0  0  0  0  0  0  0  0
   40.3087  -21.2674   34.1958 H   0  0  0  0  0  0  0  0  0  0  0  0
   40.9483  -19.7307   32.8642 C   0  0  0  0  0  0  0  0  0  0  0  0
   40.9113  -20.3924   31.6006 N   0  0  0  0  0  0  0  0  0  0  0  0
   41.6598  -18.6613   32.9532 N   0  0  0  0  0  0  0  0  0  0  0  0
   41.7758  -20.7708   31.1578 H   0  0  0  0  0  0  0  0  0  0  0  0
   39.9644  -20.4729   31.1457 H   0  0  0  0  0  0  0  0  0  0  0  0
   42.1842  -18.2934   32.1405 H   0  0  0  0  0  0  0  0  0  0  0  0
   33.3527  -22.8541   36.5767 C   0  0  0  0  0  0  0  0  0  0  0  0
   35.6692  -23.4999   37.4308 C   0  0  0  0  0  0  0  0  0  0  0  0
   35.9354  -24.3633   36.5702 O   0  0  0  0  0  0  0  0  0  0  0  0
   34.4925  -22.7345   37.5105 N   0  0  0  0  0  0  0  0  0  0  0  0
   34.3957  -22.0289   38.2637 H   0  0  0  0  0  0  0  0  0  0  0  0
   36.6518  -23.2938   38.3980 O   0  0  0  0  0  0  0  0  0  0  0  0
   37.5327  -21.7029   36.8906 C   0  0  0  0  0  0  0  0  0  0  0  0
   37.7936  -22.4991   38.1500 C   0  0  0  0  0  0  0  0  0  0  0  0
   38.0563  -21.5152   39.2597 C   0  0  0  0  0  0  0  0  0  0  0  0
   38.9578  -23.4165   37.8742 C   0  0  0  0  0  0  0  0  0  0  0  0
   32.5202  -24.0182   36.8419 C   0  0  0  0  0  0  0  0  0  0  0  0
   32.0914  -24.7705   35.5821 C   0  0  0  0  0  0  0  0  0  0  0  0
   31.1925  -24.0328   34.7103 C   0  0  0  0  0  0  0  0  0  0  0  0
   29.9225  -23.5811   35.1147 O   0  0  0  0  0  0  0  0  0  0  0  0
   31.5025  -23.7551   33.5328 O   0  0  0  0  0  0  0  0  0  0  0  0
   29.6760  -22.6245   34.8474 H   0  0  0  0  0  0  0  0  0  0  0  0
 37 38  1  0  0  0
 38 39  1  0  0  0
 38 40  1  0  0  0
 38 36  1  0  0  0
 36 32  1  0  0  0
 32 33  2  0  0  0
 32 34  1  0  0  0
 34 31  1  0  0  0
 31 41  1  0  0  0
 41 42  1  0  0  0
 42 43  1  0  0  0
 43 44  1  0  0  0
 43 45  2  0  0  0
 31  1  1  0  0  0
  1  2  2  0  0  0
  1  3  1  0  0  0
  3  4  1  0  0  0
  4  5  1  0  0  0
  5  6  1  0  0  0
  6  7  1  0  0  0
  7  8  1  0  0  0
  8  9  2  0  0  0
  8 10  1  0  0  0
 10 12  1  0  0  0
 12 20  1  0  0  0
 20 21  1  0  0  0
 21 22  1  0  0  0
 22 23  1  0  0  0
 23 25  1  0  0  0
 25 26  1  0  0  0
 25 27  2  0  0  0
 12 13  1  0  0  0
 13 14  2  0  0  0
 13 15  1  0  0  0
 15 16  2  0  0  0
 16 17  1  0  0  0
 17 18  2  0  0  0
 18 19  1  0  0  0
  7  3  1  0  0  0
 19 15  1  0  0  0
 34 35  1  0  0  0
 44 46  1  0  0  0
 10 11  1  0  0  0
 23 24  1  0  0  0
 26 28  1  0  0  0
 26 29  1  0  0  0
 27 30  1  0  0  0
M  END
> <minimizedAffinity>
-5.58696

> <CNNscore>
0.4869965911

> <CNNaffinity>
6.1458616257

> <CNN_VS>
2.9930136204

> <CNNaffinity_variance>
0.3781380951

$$$$
[H]N=C(N([H])[H])N([H])C([H])([H])C([H])([H])C([H])([H])[C@@]([H])(C(=O)c1nc([H])c([H])s1)N([H])C(=O)[C@@]1([H])N(C(=O)[C@@]([H])(N([H])C(=O)OC(C([H])([H])[H])(C([H])([H])[H])C([H])([H])[H])C([H])([H])C([H])([H])C(=O)O[H])C([H])([H])C([H])([H])C1([H])[H]


 46 47  0  0  0  0  0  0  0  0999 V2000
   32.8575  -12.9446   37.9183 C   0  0  0  0  0  0  0  0  0  0  0  0
   32.9284  -12.9175   39.2397 O   0  0  0  0  0  0  0  0  0  0  0  0
   33.9550  -13.5620   37.3265 N   0  0  0  0  0  0  0  0  0  0  0  0
   35.0927  -14.1435   38.1517 C   0  0  0  0  0  0  0  0  0  0  0  0
   36.3137  -13.6897   37.4059 C   0  0  0  0  0  0  0  0  0  0  0  0
   35.8505  -13.2943   36.0332 C   0  0  0  0  0  0  0  0  0  0  0  0
   34.4182  -13.8497   36.0029 C   0  0  0  0  0  0  0  0  0  0  0  0
   34.4179  -15.3246   35.7410 C   0  0  0  0  0  0  0  0  0  0  0  0
   33.3060  -15.8979   35.6667 O   0  0  0  0  0  0  0  0  0  0  0  0
   35.6488  -15.9574   35.6027 N   0  0  0  0  0  0  0  0  0  0  0  0
   36.5598  -15.4944   35.6567 H   0  0  0  0  0  0  0  0  0  0  0  0
   35.6371  -17.4880   35.3460 C   0  0  0  0  0  0  0  0  0  0  0  0
   35.6811  -17.9986   36.6438 C   0  0  0  0  0  0  0  0  0  0  0  0
   36.5102  -17.2823   37.4699 O   0  0  0  0  0  0  0  0  0  0  0  0
   35.1187  -19.0820   37.4131 C   0  0  0  0  0  0  0  0  0  0  0  0
   35.5154  -19.3946   38.6939 N   0  0  0  0  0  0  0  0  0  0  0  0
   35.0251  -20.4173   39.2809 C   0  0  0  0  0  0  0  0  0  0  0  0
   34.1104  -21.1838   38.6166 C   0  0  0  0  0  0  0  0  0  0  0  0
   34.0191  -20.3482   37.1463 S   0  0  0  0  0  0  0  0  0  0  0  0
   36.1990  -17.6828   34.0554 C   0  0  0  0  0  0  0  0  0  0  0  0
   37.5337  -18.0782   33.6938 C   0  0  0  0  0  0  0  0  0  0  0  0
   38.2696  -19.2265   34.2106 C   0  0  0  0  0  0  0  0  0  0  0  0
   39.6278  -18.8821   34.6258 N   0  0  0  0  0  0  0  0  0  0  0  0
   39.8310  -18.7754   35.6281 H   0  0  0  0  0  0  0  0  0  0  0  0
   40.6273  -18.7056   33.6521 C   0  0  0  0  0  0  0  0  0  0  0  0
   40.6871  -19.6237   32.5614 N   0  0  0  0  0  0  0  0  0  0  0  0
   41.5018  -17.7611   33.6811 N   0  0  0  0  0  0  0  0  0  0  0  0
   41.5281  -20.2160   32.3929 H   0  0  0  0  0  0  0  0  0  0  0  0
   39.8365  -19.6643   31.9410 H   0  0  0  0  0  0  0  0  0  0  0  0
   42.2203  -17.6686   32.9421 H   0  0  0  0  0  0  0  0  0  0  0  0
   31.6656  -12.3293   37.3591 C   0  0  0  0  0  0  0  0  0  0  0  0
   29.2795  -12.0770   38.2281 C   0  0  0  0  0  0  0  0  0  0  0  0
   28.8053  -11.4600   37.2526 O   0  0  0  0  0  0  0  0  0  0  0  0
   30.6020  -12.5340   38.3652 N   0  0  0  0  0  0  0  0  0  0  0  0
   30.8729  -13.0563   39.2186 H   0  0  0  0  0  0  0  0  0  0  0  0
   28.3893  -12.3237   39.2723 O   0  0  0  0  0  0  0  0  0  0  0  0
   28.5466  -10.1080   40.0757 C   0  0  0  0  0  0  0  0  0  0  0  0
   27.6292  -11.2930   39.8694 C   0  0  0  0  0  0  0  0  0  0  0  0
   26.4946  -10.8375   38.9896 C   0  0  0  0  0  0  0  0  0  0  0  0
   27.1812  -11.7627   41.2301 C   0  0  0  0  0  0  0  0  0  0  0  0
   31.7683  -10.9474   36.9136 C   0  0  0  0  0  0  0  0  0  0  0  0
   32.7969  -10.1237   37.6885 C   0  0  0  0  0  0  0  0  0  0  0  0
   33.4231   -9.0583   36.9234 C   0  0  0  0  0  0  0  0  0  0  0  0
   32.6994   -8.0131   36.3198 O   0  0  0  0  0  0  0  0  0  0  0  0
   34.6597   -9.0115   36.7554 O   0  0  0  0  0  0  0  0  0  0  0  0
   33.0863   -7.0721   36.4301 H   0  0  0  0  0  0  0  0  0  0  0  0
 37 38  1  0  0  0
 38 39  1  0  0  0
 38 40  1  0  0  0
 38 36  1  0  0  0
 36 32  1  0  0  0
 32 33  2  0  0  0
 32 34  1  0  0  0
 34 31  1  0  0  0
 31 41  1  0  0  0
 41 42  1  0  0  0
 42 43  1  0  0  0
 43 44  1  0  0  0
 43 45  2  0  0  0
 31  1  1  0  0  0
  1  2  2  0  0  0
  1  3  1  0  0  0
  3  4  1  0  0  0
  4  5  1  0  0  0
  5  6  1  0  0  0
  6  7  1  0  0  0
  7  8  1  0  0  0
  8  9  2  0  0  0
  8 10  1  0  0  0
 10 12  1  0  0  0
 12 20  1  0  0  0
 20 21  1  0  0  0
 21 22  1  0  0  0
 22 23  1  0  0  0
 23 25  1  0  0  0
 25 26  1  0  0  0
 25 27  2  0  0  0
 12 13  1  0  0  0
 13 14  2  0  0  0
 13 15  1  0  0  0
 15 16  2  0  0  0
 16 17  1  0  0  0
 17 18  2  0  0  0
 18 19  1  0  0  0
  7  3  1  0  0  0
 19 15  1  0  0  0
 34 35  1  0  0  0
 44 46  1  0  0  0
 10 11  1  0  0  0
 23 24  1  0  0  0
 26 28  1  0  0  0
 26 29  1  0  0  0
 27 30  1  0  0  0
M  END
> <minimizedAffinity>
-6.90591

> <CNNscore>
0.3521456718

> <CNNaffinity>
6.6670212746

> <CNN_VS>
2.3477625847

> <CNNaffinity_variance>
0.1228670254

$$$$
[H]N=C(N([H])[H])N([H])C([H])([H])C([H])([H])C([H])([H])[C@@]([H])(C(=O)c1nc([H])c([H])s1)N([H])C(=O)[C@@]1([H])N(C(=O)[C@@]([H])(N([H])C(=O)OC(C([H])([H])[H])(C([H])([H])[H])C([H])([H])[H])C([H])([H])C([H])([H])C(=O)O[H])C([H])([H])C([H])([H])C1([H])[H]


 46 47  0  0  0  0  0  0  0  0999 V2000
   39.0523  -20.9895   36.7774 C   0  0  0  0  0  0  0  0  0  0  0  0
   39.0405  -22.2992   36.5868 O   0  0  0  0  0  0  0  0  0  0  0  0
   39.0410  -20.2661   35.5890 N   0  0  0  0  0  0  0  0  0  0  0  0
   39.0067  -20.9502   34.2309 C   0  0  0  0  0  0  0  0  0  0  0  0
   40.0096  -20.1665   33.4353 C   0  0  0  0  0  0  0  0  0  0  0  0
   40.2179  -18.8735   34.1701 C   0  0  0  0  0  0  0  0  0  0  0  0
   39.0679  -18.8918   35.1889 C   0  0  0  0  0  0  0  0  0  0  0  0
   37.7742  -18.4921   34.5481 C   0  0  0  0  0  0  0  0  0  0  0  0
   37.8331  -17.9288   33.4302 O   0  0  0  0  0  0  0  0  0  0  0  0
   36.5983  -18.7685   35.2376 N   0  0  0  0  0  0  0  0  0  0  0  0
   36.5429  -19.2329   36.1477 H   0  0  0  0  0  0  0  0  0  0  0  0
   35.2647  -18.3371   34.5711 C   0  0  0  0  0  0  0  0  0  0  0  0
   34.8275  -17.3264   35.4281 C   0  0  0  0  0  0  0  0  0  0  0  0
   33.4772  -17.3780   35.6668 O   0  0  0  0  0  0  0  0  0  0  0  0
   35.3630  -16.2032   36.1584 C   0  0  0  0  0  0  0  0  0  0  0  0
   36.3552  -16.3126   37.1066 N   0  0  0  0  0  0  0  0  0  0  0  0
   36.7220  -15.2828   37.7666 C   0  0  0  0  0  0  0  0  0  0  0  0
   36.1144  -14.0861   37.5133 C   0  0  0  0  0  0  0  0  0  0  0  0
   35.0231  -14.5457   36.3023 S   0  0  0  0  0  0  0  0  0  0  0  0
   34.7903  -19.4682   33.8535 C   0  0  0  0  0  0  0  0  0  0  0  0
   33.4378  -19.9049   33.6332 C   0  0  0  0  0  0  0  0  0  0  0  0
   32.5982  -20.6396   34.5727 C   0  0  0  0  0  0  0  0  0  0  0  0
   31.1719  -20.4619   34.3084 N   0  0  0  0  0  0  0  0  0  0  0  0
   30.7739  -20.8455   33.4414 H   0  0  0  0  0  0  0  0  0  0  0  0
   30.3739  -19.7746   35.2406 C   0  0  0  0  0  0  0  0  0  0  0  0
   29.2663  -20.4578   35.8258 N   0  0  0  0  0  0  0  0  0  0  0  0
   30.5783  -18.5563   35.6035 N   0  0  0  0  0  0  0  0  0  0  0  0
   28.2889  -20.1169   35.7032 H   0  0  0  0  0  0  0  0  0  0  0  0
   29.4956  -21.3201   36.3861 H   0  0  0  0  0  0  0  0  0  0  0  0
   29.9651  -18.0892   36.2940 H   0  0  0  0  0  0  0  0  0  0  0  0
   39.0779  -20.5766   38.1705 C   0  0  0  0  0  0  0  0  0  0  0  0
   36.5795  -20.6498   38.6851 C   0  0  0  0  0  0  0  0  0  0  0  0
   36.2444  -19.6241   38.0585 O   0  0  0  0  0  0  0  0  0  0  0  0
   37.8776  -21.1801   38.7871 N   0  0  0  0  0  0  0  0  0  0  0  0
   38.0280  -22.0552   39.3219 H   0  0  0  0  0  0  0  0  0  0  0  0
   35.5458  -21.3166   39.3412 O   0  0  0  0  0  0  0  0  0  0  0  0
   33.3993  -22.2800   39.1317 C   0  0  0  0  0  0  0  0  0  0  0  0
   34.8581  -22.4003   38.7502 C   0  0  0  0  0  0  0  0  0  0  0  0
   34.9349  -22.3731   37.2461 C   0  0  0  0  0  0  0  0  0  0  0  0
   35.3814  -23.6788   39.3540 C   0  0  0  0  0  0  0  0  0  0  0  0
   40.2953  -20.8337   38.9256 C   0  0  0  0  0  0  0  0  0  0  0  0
   40.0975  -21.7740   40.1146 C   0  0  0  0  0  0  0  0  0  0  0  0
   40.3537  -23.1759   39.8298 C   0  0  0  0  0  0  0  0  0  0  0  0
   39.5250  -23.9606   39.0064 O   0  0  0  0  0  0  0  0  0  0  0  0
   41.3403  -23.7727   40.3096 O   0  0  0  0  0  0  0  0  0  0  0  0
   39.9999  -24.5639   38.3298 H   0  0  0  0  0  0  0  0  0  0  0  0
 37 38  1  0  0  0
 38 39  1  0  0  0
 38 40  1  0  0  0
 38 36  1  0  0  0
 36 32  1  0  0  0
 32 33  2  0  0  0
 32 34  1  0  0  0
 34 31  1  0  0  0
 31 41  1  0  0  0
 41 42  1  0  0  0
 42 43  1  0  0  0
 43 44  1  0  0  0
 43 45  2  0  0  0
 31  1  1  0  0  0
  1  2  2  0  0  0
  1  3  1  0  0  0
  3  4  1  0  0  0
  4  5  1  0  0  0
  5  6  1  0  0  0
  6  7  1  0  0  0
  7  8  1  0  0  0
  8  9  2  0  0  0
  8 10  1  0  0  0
 10 12  1  0  0  0
 12 20  1  0  0  0
 20 21  1  0  0  0
 21 22  1  0  0  0
 22 23  1  0  0  0
 23 25  1  0  0  0
 25 26  1  0  0  0
 25 27  2  0  0  0
 12 13  1  0  0  0
 13 14  2  0  0  0
 13 15  1  0  0  0
 15 16  2  0  0  0
 16 17  1  0  0  0
 17 18  2  0  0  0
 18 19  1  0  0  0
  7  3  1  0  0  0
 19 15  1  0  0  0
 34 35  1  0  0  0
 44 46  1  0  0  0
 10 11  1  0  0  0
 23 24  1  0  0  0
 26 28  1  0  0  0
 26 29  1  0  0  0
 27 30  1  0  0  0
M  END
> <minimizedAffinity>
-4.91177

> <CNNscore>
0.2569966018

> <CNNaffinity>
5.6321058273

> <CNN_VS>
1.4474320412

> <CNNaffinity_variance>
0.4015633166

$$$$
[H]N=C(N([H])[H])N([H])C([H])([H])C([H])([H])C([H])([H])[C@@]([H])(C(=O)c1nc([H])c([H])s1)N([H])C(=O)[C@@]1([H])N(C(=O)[C@@]([H])(N([H])C(=O)OC(C([H])([H])[H])(C([H])([H])[H])C([H])([H])[H])C([H])([H])C([H])([H])C(=O)O[H])C([H])([H])C([H])([H])C1([H])[H]


 46 47  0  0  0  0  0  0  0  0999 V2000
   40.8022  -20.0473   36.7549 C   0  0  0  0  0  0  0  0  0  0  0  0
   41.0748  -21.2377   37.2653 O   0  0  0  0  0  0  0  0  0  0  0  0
   39.8424  -20.0930   35.7486 N   0  0  0  0  0  0  0  0  0  0  0  0
   39.1899  -21.3976   35.3178 C   0  0  0  0  0  0  0  0  0  0  0  0
   39.1910  -21.2946   33.8203 C   0  0  0  0  0  0  0  0  0  0  0  0
   39.4012  -19.8438   33.4946 C   0  0  0  0  0  0  0  0  0  0  0  0
   39.1976  -19.1727   34.8616 C   0  0  0  0  0  0  0  0  0  0  0  0
   37.7410  -19.0428   35.1863 C   0  0  0  0  0  0  0  0  0  0  0  0
   36.9197  -19.3743   34.2997 O   0  0  0  0  0  0  0  0  0  0  0  0
   37.3994  -18.5600   36.4452 N   0  0  0  0  0  0  0  0  0  0  0  0
   38.0646  -18.2929   37.1755 H   0  0  0  0  0  0  0  0  0  0  0  0
   35.8877  -18.4158   36.7657 C   0  0  0  0  0  0  0  0  0  0  0  0
   35.6374  -17.0957   36.3893 C   0  0  0  0  0  0  0  0  0  0  0  0
   34.6047  -16.9845   35.4926 O   0  0  0  0  0  0  0  0  0  0  0  0
   36.1440  -15.7695   36.6470 C   0  0  0  0  0  0  0  0  0  0  0  0
   37.1331  -15.4955   37.5647 N   0  0  0  0  0  0  0  0  0  0  0  0
   37.4735  -14.2859   37.7924 C   0  0  0  0  0  0  0  0  0  0  0  0
   36.8410  -13.2837   37.1135 C   0  0  0  0  0  0  0  0  0  0  0  0
   35.7668  -14.1857   36.1642 S   0  0  0  0  0  0  0  0  0  0  0  0
   35.6057  -19.3491   37.7995 C   0  0  0  0  0  0  0  0  0  0  0  0
   34.5638  -20.3378   37.8743 C   0  0  0  0  0  0  0  0  0  0  0  0
   33.4196  -20.4633   36.9786 C   0  0  0  0  0  0  0  0  0  0  0  0
   33.8065  -20.8584   35.6259 N   0  0  0  0  0  0  0  0  0  0  0  0
   34.4355  -21.6623   35.5018 H   0  0  0  0  0  0  0  0  0  0  0  0
   33.3123  -20.1369   34.5243 C   0  0  0  0  0  0  0  0  0  0  0  0
   32.5656  -18.9457   34.7681 N   0  0  0  0  0  0  0  0  0  0  0  0
   33.4901  -20.4849   33.2975 N   0  0  0  0  0  0  0  0  0  0  0  0
   31.5751  -18.8501   34.4580 H   0  0  0  0  0  0  0  0  0  0  0  0
   33.0736  -18.1744   35.2753 H   0  0  0  0  0  0  0  0  0  0  0  0
   33.1084  -19.9230   32.5168 H   0  0  0  0  0  0  0  0  0  0  0  0
   41.5524  -18.9478   37.3380 C   0  0  0  0  0  0  0  0  0  0  0  0
   42.9279  -19.3219   39.4547 C   0  0  0  0  0  0  0  0  0  0  0  0
   42.2905  -18.5610   40.2109 O   0  0  0  0  0  0  0  0  0  0  0  0
   42.6529  -19.5758   38.0995 N   0  0  0  0  0  0  0  0  0  0  0  0
   43.2451  -20.2483   37.5786 H   0  0  0  0  0  0  0  0  0  0  0  0
   44.0163  -19.9712   40.0354 O   0  0  0  0  0  0  0  0  0  0  0  0
   45.1218  -21.9043   40.8231 C   0  0  0  0  0  0  0  0  0  0  0  0
   43.8561  -21.0793   40.8974 C   0  0  0  0  0  0  0  0  0  0  0  0
   43.6720  -20.6635   42.3334 C   0  0  0  0  0  0  0  0  0  0  0  0
   42.7282  -21.9298   40.3704 C   0  0  0  0  0  0  0  0  0  0  0  0
   42.0092  -17.8957   36.4418 C   0  0  0  0  0  0  0  0  0  0  0  0
   43.3920  -18.1522   35.8427 C   0  0  0  0  0  0  0  0  0  0  0  0
   43.9414  -17.0406   35.0845 C   0  0  0  0  0  0  0  0  0  0  0  0
   43.9207  -15.7095   35.5408 O   0  0  0  0  0  0  0  0  0  0  0  0
   44.4703  -17.2080   33.9656 O   0  0  0  0  0  0  0  0  0  0  0  0
   44.7854  -15.1759   35.4194 H   0  0  0  0  0  0  0  0  0  0  0  0
 37 38  1  0  0  0
 38 39  1  0  0  0
 38 40  1  0  0  0
 38 36  1  0  0  0
 36 32  1  0  0  0
 32 33  2  0  0  0
 32 34  1  0  0  0
 34 31  1  0  0  0
 31 41  1  0  0  0
 41 42  1  0  0  0
 42 43  1  0  0  0
 43 44  1  0  0  0
 43 45  2  0  0  0
 31  1  1  0  0  0
  1  2  2  0  0  0
  1  3  1  0  0  0
  3  4  1  0  0  0
  4  5  1  0  0  0
  5  6  1  0  0  0
  6  7  1  0  0  0
  7  8  1  0  0  0
  8  9  2  0  0  0
  8 10  1  0  0  0
 10 12  1  0  0  0
 12 20  1  0  0  0
 20 21  1  0  0  0
 21 22  1  0  0  0
 22 23  1  0  0  0
 23 25  1  0  0  0
 25 26  1  0  0  0
 25 27  2  0  0  0
 12 13  1  0  0  0
 13 14  2  0  0  0
 13 15  1  0  0  0
 15 16  2  0  0  0
 16 17  1  0  0  0
 17 18  2  0  0  0
 18 19  1  0  0  0
  7  3  1  0  0  0
 19 15  1  0  0  0
 34 35  1  0  0  0
 44 46  1  0  0  0
 10 11  1  0  0  0
 23 24  1  0  0  0
 26 28  1  0  0  0
 26 29  1  0  0  0
 27 30  1  0  0  0
M  END
> <minimizedAffinity>
-5.65163

> <CNNscore>
0.2207795680

> <CNNaffinity>
5.7669062614

> <CNN_VS>
1.2732150555

> <CNNaffinity_variance>
0.3636928499

$$$$
[H]N=C(N([H])[H])N([H])C([H])([H])C([H])([H])C([H])([H])[C@@]([H])(C(=O)c1nc([H])c([H])s1)N([H])C(=O)[C@@]1([H])N(C(=O)[C@@]([H])(N([H])C(=O)OC(C([H])([H])[H])(C([H])([H])[H])C([H])([H])[H])C([H])([H])C([H])([H])C(=O)O[H])C([H])([H])C([H])([H])C1([H])[H]


 46 47  0  0  0  0  0  0  0  0999 V2000
   38.2787  -20.9789   37.2154 C   0  0  0  0  0  0  0  0  0  0  0  0
   37.9248  -22.2239   36.9388 O   0  0  0  0  0  0  0  0  0  0  0  0
   38.1702  -20.1260   36.1216 N   0  0  0  0  0  0  0  0  0  0  0  0
   37.6793  -20.6133   34.7669 C   0  0  0  0  0  0  0  0  0  0  0  0
   38.6329  -19.9595   33.8098 C   0  0  0  0  0  0  0  0  0  0  0  0
   39.2899  -18.8391   34.5636 C   0  0  0  0  0  0  0  0  0  0  0  0
   38.4220  -18.7476   35.8281 C   0  0  0  0  0  0  0  0  0  0  0  0
   37.1455  -18.0136   35.5533 C   0  0  0  0  0  0  0  0  0  0  0  0
   37.0305  -17.4520   34.4389 O   0  0  0  0  0  0  0  0  0  0  0  0
   36.1783  -18.0013   36.5528 N   0  0  0  0  0  0  0  0  0  0  0  0
   36.2635  -18.4623   37.4624 H   0  0  0  0  0  0  0  0  0  0  0  0
   34.8656  -17.2257   36.2630 C   0  0  0  0  0  0  0  0  0  0  0  0
   34.0716  -18.2114   35.6756 C   0  0  0  0  0  0  0  0  0  0  0  0
   33.7364  -17.9211   34.3770 O   0  0  0  0  0  0  0  0  0  0  0  0
   33.4655  -19.4755   36.0167 C   0  0  0  0  0  0  0  0  0  0  0  0
   32.1095  -19.7090   35.9694 N   0  0  0  0  0  0  0  0  0  0  0  0
   31.6421  -20.8309   36.3615 C   0  0  0  0  0  0  0  0  0  0  0  0
   32.5078  -21.7809   36.8235 C   0  0  0  0  0  0  0  0  0  0  0  0
   33.9811  -20.9630   36.6533 S   0  0  0  0  0  0  0  0  0  0  0  0
   35.2299  -15.8598   36.1184 C   0  0  0  0  0  0  0  0  0  0  0  0
   34.4050  -14.6843   36.1968 C   0  0  0  0  0  0  0  0  0  0  0  0
   34.7249  -13.4433   36.8931 C   0  0  0  0  0  0  0  0  0  0  0  0
   33.7012  -12.4167   36.7093 N   0  0  0  0  0  0  0  0  0  0  0  0
   33.3692  -12.2079   35.7589 H   0  0  0  0  0  0  0  0  0  0  0  0
   33.1902  -11.7380   37.8303 C   0  0  0  0  0  0  0  0  0  0  0  0
   33.0815  -10.3163   37.7763 N   0  0  0  0  0  0  0  0  0  0  0  0
   32.8114  -12.3212   38.9139 N   0  0  0  0  0  0  0  0  0  0  0  0
   33.5975   -9.7044   38.4439 H   0  0  0  0  0  0  0  0  0  0  0  0
   32.4514   -9.9266   37.0272 H   0  0  0  0  0  0  0  0  0  0  0  0
   32.4407  -11.7816   39.7154 H   0  0  0  0  0  0  0  0  0  0  0  0
   38.7069  -20.7574   38.5864 C   0  0  0  0  0  0  0  0  0  0  0  0
   36.6302  -21.4668   39.8890 C   0  0  0  0  0  0  0  0  0  0  0  0
   35.9443  -20.4435   39.6900 O   0  0  0  0  0  0  0  0  0  0  0  0
   37.9281  -21.7098   39.4060 N   0  0  0  0  0  0  0  0  0  0  0  0
   38.3896  -22.6124   39.6222 H   0  0  0  0  0  0  0  0  0  0  0  0
   36.0274  -22.4504   40.6716 O   0  0  0  0  0  0  0  0  0  0  0  0
   36.2952  -23.7726   42.6106 C   0  0  0  0  0  0  0  0  0  0  0  0
   36.0149  -22.3829   42.0830 C   0  0  0  0  0  0  0  0  0  0  0  0
   37.0869  -21.4714   42.6204 C   0  0  0  0  0  0  0  0  0  0  0  0
   34.6255  -22.0006   42.5262 C   0  0  0  0  0  0  0  0  0  0  0  0
   40.1354  -20.8070   38.8608 C   0  0  0  0  0  0  0  0  0  0  0  0
   40.4737  -21.1111   40.3203 C   0  0  0  0  0  0  0  0  0  0  0  0
   40.9175  -19.9631   41.0931 C   0  0  0  0  0  0  0  0  0  0  0  0
   41.9075  -19.0679   40.6468 O   0  0  0  0  0  0  0  0  0  0  0  0
   40.4374  -19.7036   42.2164 O   0  0  0  0  0  0  0  0  0  0  0  0
   41.7118  -18.0726   40.7819 H   0  0  0  0  0  0  0  0  0  0  0  0
 37 38  1  0  0  0
 38 39  1  0  0  0
 38 40  1  0  0  0
 38 36  1  0  0  0
 36 32  1  0  0  0
 32 33  2  0  0  0
 32 34  1  0  0  0
 34 31  1  0  0  0
 31 41  1  0  0  0
 41 42  1  0  0  0
 42 43  1  0  0  0
 43 44  1  0  0  0
 43 45  2  0  0  0
 31  1  1  0  0  0
  1  2  2  0  0  0
  1  3  1  0  0  0
  3  4  1  0  0  0
  4  5  1  0  0  0
  5  6  1  0  0  0
  6  7  1  0  0  0
  7  8  1  0  0  0
  8  9  2  0  0  0
  8 10  1  0  0  0
 10 12  1  0  0  0
 12 20  1  0  0  0
 20 21  1  0  0  0
 21 22  1  0  0  0
 22 23  1  0  0  0
 23 25  1  0  0  0
 25 26  1  0  0  0
 25 27  2  0  0  0
 12 13  1  0  0  0
 13 14  2  0  0  0
 13 15  1  0  0  0
 15 16  2  0  0  0
 16 17  1  0  0  0
 17 18  2  0  0  0
 18 19  1  0  0  0
  7  3  1  0  0  0
 19 15  1  0  0  0
 34 35  1  0  0  0
 44 46  1  0  0  0
 10 11  1  0  0  0
 23 24  1  0  0  0
 26 28  1  0  0  0
 26 29  1  0  0  0
 27 30  1  0  0  0
M  END
> <minimizedAffinity>
-5.39228

> <CNNscore>
0.1963633150

> <CNNaffinity>
5.6710801125

> <CNN_VS>
1.1135921478

> <CNNaffinity_variance>
0.0948892385

$$$$
[H]N=C(N([H])[H])N([H])C([H])([H])C([H])([H])C([H])([H])[C@@]([H])(C(=O)c1nc([H])c([H])s1)N([H])C(=O)[C@@]1([H])N(C(=O)[C@@]([H])(N([H])C(=O)OC(C([H])([H])[H])(C([H])([H])[H])C([H])([H])[H])C([H])([H])C([H])([H])C(=O)O[H])C([H])([H])C([H])([H])C1([H])[H]


 46 47  0  0  0  0  0  0  0  0999 V2000
   32.9546  -12.9183   37.9175 C   0  0  0  0  0  0  0  0  0  0  0  0
   33.1008  -12.7726   39.2249 O   0  0  0  0  0  0  0  0  0  0  0  0
   34.0114  -13.6017   37.3242 N   0  0  0  0  0  0  0  0  0  0  0  0
   35.1893  -14.1215   38.1341 C   0  0  0  0  0  0  0  0  0  0  0  0
   36.3697  -13.7538   37.2830 C   0  0  0  0  0  0  0  0  0  0  0  0
   35.8325  -13.4781   35.9080 C   0  0  0  0  0  0  0  0  0  0  0  0
   34.3962  -14.0144   36.0085 C   0  0  0  0  0  0  0  0  0  0  0  0
   34.3685  -15.5069   35.8826 C   0  0  0  0  0  0  0  0  0  0  0  0
   33.3019  -16.0922   36.1829 O   0  0  0  0  0  0  0  0  0  0  0  0
   35.5270  -16.1408   35.4462 N   0  0  0  0  0  0  0  0  0  0  0  0
   36.3992  -15.6686   35.1941 H   0  0  0  0  0  0  0  0  0  0  0  0
   35.4918  -17.6883   35.3333 C   0  0  0  0  0  0  0  0  0  0  0  0
   36.7443  -18.0430   35.8357 C   0  0  0  0  0  0  0  0  0  0  0  0
   37.0443  -17.4081   37.0146 O   0  0  0  0  0  0  0  0  0  0  0  0
   37.8627  -18.8869   35.4909 C   0  0  0  0  0  0  0  0  0  0  0  0
   38.9002  -19.1680   36.3512 N   0  0  0  0  0  0  0  0  0  0  0  0
   39.8937  -19.8606   35.9462 C   0  0  0  0  0  0  0  0  0  0  0  0
   39.9029  -20.3094   34.6563 C   0  0  0  0  0  0  0  0  0  0  0  0
   38.4309  -19.6814   34.1019 S   0  0  0  0  0  0  0  0  0  0  0  0
   34.5908  -17.9933   34.2776 C   0  0  0  0  0  0  0  0  0  0  0  0
   34.3096  -19.2606   33.6582 C   0  0  0  0  0  0  0  0  0  0  0  0
   33.1762  -20.1336   33.9418 C   0  0  0  0  0  0  0  0  0  0  0  0
   31.8915  -19.4565   33.7783 N   0  0  0  0  0  0  0  0  0  0  0  0
   31.5964  -19.1675   32.8367 H   0  0  0  0  0  0  0  0  0  0  0  0
   31.0858  -19.2155   34.9057 C   0  0  0  0  0  0  0  0  0  0  0  0
   29.8728  -19.9533   35.0480 N   0  0  0  0  0  0  0  0  0  0  0  0
   31.3731  -18.3630   35.8269 N   0  0  0  0  0  0  0  0  0  0  0  0
   28.9461  -19.4774   35.0823 H   0  0  0  0  0  0  0  0  0  0  0  0
   29.9710  -21.0000   35.1173 H   0  0  0  0  0  0  0  0  0  0  0  0
   30.7505  -18.2180   36.6406 H   0  0  0  0  0  0  0  0  0  0  0  0
   31.7381  -12.3401   37.3720 C   0  0  0  0  0  0  0  0  0  0  0  0
   29.3502  -12.1904   38.2597 C   0  0  0  0  0  0  0  0  0  0  0  0
   28.8743  -11.4760   37.3540 O   0  0  0  0  0  0  0  0  0  0  0  0
   30.6745  -12.6539   38.3495 N   0  0  0  0  0  0  0  0  0  0  0  0
   30.9468  -13.2621   39.1436 H   0  0  0  0  0  0  0  0  0  0  0  0
   28.4602  -12.5493   39.2709 O   0  0  0  0  0  0  0  0  0  0  0  0
   26.7053  -11.7750   40.6495 C   0  0  0  0  0  0  0  0  0  0  0  0
   28.1897  -11.7008   40.3681 C   0  0  0  0  0  0  0  0  0  0  0  0
   28.9084  -12.1371   41.6178 C   0  0  0  0  0  0  0  0  0  0  0  0
   28.5042  -10.2840   39.9595 C   0  0  0  0  0  0  0  0  0  0  0  0
   31.7708  -10.9334   36.9995 C   0  0  0  0  0  0  0  0  0  0  0  0
   32.8878  -10.1406   37.6783 C   0  0  0  0  0  0  0  0  0  0  0  0
   33.3490   -8.9810   36.9334 C   0  0  0  0  0  0  0  0  0  0  0  0
   34.6363   -8.8854   36.3729 O   0  0  0  0  0  0  0  0  0  0  0  0
   32.6159   -7.9872   36.7474 O   0  0  0  0  0  0  0  0  0  0  0  0
   34.6885   -8.5183   35.4190 H   0  0  0  0  0  0  0  0  0  0  0  0
 37 38  1  0  0  0
 38 39  1  0  0  0
 38 40  1  0  0  0
 38 36  1  0  0  0
 36 32  1  0  0  0
 32 33  2  0  0  0
 32 34  1  0  0  0
 34 31  1  0  0  0
 31 41  1  0  0  0
 41 42  1  0  0  0
 42 43  1  0  0  0
 43 44  1  0  0  0
 43 45  2  0  0  0
 31  1  1  0  0  0
  1  2  2  0  0  0
  1  3  1  0  0  0
  3  4  1  0  0  0
  4  5  1  0  0  0
  5  6  1  0  0  0
  6  7  1  0  0  0
  7  8  1  0  0  0
  8  9  2  0  0  0
  8 10  1  0  0  0
 10 12  1  0  0  0
 12 20  1  0  0  0
 20 21  1  0  0  0
 21 22  1  0  0  0
 22 23  1  0  0  0
 23 25  1  0  0  0
 25 26  1  0  0  0
 25 27  2  0  0  0
 12 13  1  0  0  0
 13 14  2  0  0  0
 13 15  1  0  0  0
 15 16  2  0  0  0
 16 17  1  0  0  0
 17 18  2  0  0  0
 18 19  1  0  0  0
  7  3  1  0  0  0
 19 15  1  0  0  0
 34 35  1  0  0  0
 44 46  1  0  0  0
 10 11  1  0  0  0
 23 24  1  0  0  0
 26 28  1  0  0  0
 26 29  1  0  0  0
 27 30  1  0  0  0
M  END
> <minimizedAffinity>
-7.01297

> <CNNscore>
0.1777147353

> <CNNaffinity>
6.4686384201

> <CNN_VS>
1.1495723724

> <CNNaffinity_variance>
0.1813001931

$$$$
[H]N=C(N([H])[H])N([H])C([H])([H])C([H])([H])C([H])([H])[C@@]([H])(C(=O)c1nc([H])c([H])s1)N([H])C(=O)[C@@]1([H])N(C(=O)[C@@]([H])(N([H])C(=O)OC(C([H])([H])[H])(C([H])([H])[H])C([H])([H])[H])C([H])([H])C([H])([H])C(=O)O[H])C([H])([H])C([H])([H])C1([H])[H]


 46 47  0  0  0  0  0  0  0  0999 V2000
   30.6152  -20.3874   35.6048 C   0  0  0  0  0  0  0  0  0  0  0  0
   29.7337  -19.4112   35.7524 O   0  0  0  0  0  0  0  0  0  0  0  0
   31.9075  -19.9246   35.3777 N   0  0  0  0  0  0  0  0  0  0  0  0
   32.2324  -18.4396   35.3239 C   0  0  0  0  0  0  0  0  0  0  0  0
   33.1504  -18.3400   34.1405 C   0  0  0  0  0  0  0  0  0  0  0  0
   33.6474  -19.7310   33.8702 C   0  0  0  0  0  0  0  0  0  0  0  0
   33.2021  -20.4845   35.1330 C   0  0  0  0  0  0  0  0  0  0  0  0
   34.1307  -20.2144   36.2770 C   0  0  0  0  0  0  0  0  0  0  0  0
   33.6280  -20.1315   37.4219 O   0  0  0  0  0  0  0  0  0  0  0  0
   35.4842  -20.0698   35.9912 N   0  0  0  0  0  0  0  0  0  0  0  0
   35.9018  -20.1419   35.0597 H   0  0  0  0  0  0  0  0  0  0  0  0
   36.4353  -19.7759   37.1819 C   0  0  0  0  0  0  0  0  0  0  0  0
   36.8177  -18.4583   36.9274 C   0  0  0  0  0  0  0  0  0  0  0  0
   38.1247  -18.3519   36.5233 O   0  0  0  0  0  0  0  0  0  0  0  0
   36.2569  -17.1294   36.9649 C   0  0  0  0  0  0  0  0  0  0  0  0
   35.1463  -16.7493   36.2454 N   0  0  0  0  0  0  0  0  0  0  0  0
   34.7564  -15.5335   36.2707 C   0  0  0  0  0  0  0  0  0  0  0  0
   35.4581  -14.6310   37.0180 C   0  0  0  0  0  0  0  0  0  0  0  0
   36.6685  -15.6320   37.6519 S   0  0  0  0  0  0  0  0  0  0  0  0
   36.9681  -21.0288   37.5889 C   0  0  0  0  0  0  0  0  0  0  0  0
   37.6691  -21.3708   38.7972 C   0  0  0  0  0  0  0  0  0  0  0  0
   37.1874  -21.1896   40.1619 C   0  0  0  0  0  0  0  0  0  0  0  0
   35.9297  -21.8909   40.4109 N   0  0  0  0  0  0  0  0  0  0  0  0
   35.9572  -22.8792   40.6933 H   0  0  0  0  0  0  0  0  0  0  0  0
   34.7113  -21.2042   40.2622 C   0  0  0  0  0  0  0  0  0  0  0  0
   33.5788  -21.9215   39.7733 N   0  0  0  0  0  0  0  0  0  0  0  0
   34.5491  -19.9574   40.5399 N   0  0  0  0  0  0  0  0  0  0  0  0
   33.1018  -21.6490   38.8874 H   0  0  0  0  0  0  0  0  0  0  0  0
   33.2563  -22.7358   40.3589 H   0  0  0  0  0  0  0  0  0  0  0  0
   33.6332  -19.4920   40.4154 H   0  0  0  0  0  0  0  0  0  0  0  0
   30.0627  -21.7278   35.7049 C   0  0  0  0  0  0  0  0  0  0  0  0
   31.7056  -23.3748   36.7541 C   0  0  0  0  0  0  0  0  0  0  0  0
   32.1368  -23.8833   35.6994 O   0  0  0  0  0  0  0  0  0  0  0  0
   30.7437  -22.3546   36.8576 N   0  0  0  0  0  0  0  0  0  0  0  0
   30.4807  -21.9978   37.7946 H   0  0  0  0  0  0  0  0  0  0  0  0
   32.2464  -23.8875   37.9323 O   0  0  0  0  0  0  0  0  0  0  0  0
   31.7623  -24.9875   39.9658 C   0  0  0  0  0  0  0  0  0  0  0  0
   31.8435  -25.1338   38.4624 C   0  0  0  0  0  0  0  0  0  0  0  0
   30.4798  -25.5475   37.9749 C   0  0  0  0  0  0  0  0  0  0  0  0
   32.9199  -26.1460   38.1622 C   0  0  0  0  0  0  0  0  0  0  0  0
   28.6139  -21.8552   35.7625 C   0  0  0  0  0  0  0  0  0  0  0  0
   28.0827  -22.2451   37.1418 C   0  0  0  0  0  0  0  0  0  0  0  0
   27.6460  -21.1281   37.9628 C   0  0  0  0  0  0  0  0  0  0  0  0
   27.5732  -19.8045   37.4901 O   0  0  0  0  0  0  0  0  0  0  0  0
   27.3064  -21.2837   39.1545 O   0  0  0  0  0  0  0  0  0  0  0  0
   26.7314  -19.2798   37.7417 H   0  0  0  0  0  0  0  0  0  0  0  0
 37 38  1  0  0  0
 38 39  1  0  0  0
 38 40  1  0  0  0
 38 36  1  0  0  0
 36 32  1  0  0  0
 32 33  2  0  0  0
 32 34  1  0  0  0
 34 31  1  0  0  0
 31 41  1  0  0  0
 41 42  1  0  0  0
 42 43  1  0  0  0
 43 44  1  0  0  0
 43 45  2  0  0  0
 31  1  1  0  0  0
  1  2  2  0  0  0
  1  3  1  0  0  0
  3  4  1  0  0  0
  4  5  1  0  0  0
  5  6  1  0  0  0
  6  7  1  0  0  0
  7  8  1  0  0  0
  8  9  2  0  0  0
  8 10  1  0  0  0
 10 12  1  0  0  0
 12 20  1  0  0  0
 20 21  1  0  0  0
 21 22  1  0  0  0
 22 23  1  0  0  0
 23 25  1  0  0  0
 25 26  1  0  0  0
 25 27  2  0  0  0
 12 13  1  0  0  0
 13 14  2  0  0  0
 13 15  1  0  0  0
 15 16  2  0  0  0
 16 17  1  0  0  0
 17 18  2  0  0  0
 18 19  1  0  0  0
  7  3  1  0  0  0
 19 15  1  0  0  0
 34 35  1  0  0  0
 44 46  1  0  0  0
 10 11  1  0  0  0
 23 24  1  0  0  0
 26 28  1  0  0  0
 26 29  1  0  0  0
 27 30  1  0  0  0
M  END
> <minimizedAffinity>
-5.26960

> <CNNscore>
0.1768538952

> <CNNaffinity>
5.2636179924

> <CNN_VS>
0.9308913350

> <CNNaffinity_variance>
0.4306065142

$$$$
[H]N=C(N([H])[H])N([H])C([H])([H])C([H])([H])C([H])([H])[C@@]([H])(C(=O)c1nc([H])c([H])s1)N([H])C(=O)[C@@]1([H])N(C(=O)[C@@]([H])(N([H])C(=O)OC(C([H])([H])[H])(C([H])([H])[H])C([H])([H])[H])C([H])([H])C([H])([H])C(=O)O[H])C([H])([H])C([H])([H])C1([H])[H]


 46 47  0  0  0  0  0  0  0  0999 V2000
   39.0020  -21.5871   36.5913 C   0  0  0  0  0  0  0  0  0  0  0  0
   38.6703  -22.7571   36.0687 O   0  0  0  0  0  0  0  0  0  0  0  0
   38.8399  -20.5284   35.7032 N   0  0  0  0  0  0  0  0  0  0  0  0
   38.3205  -20.7369   34.2889 C   0  0  0  0  0  0  0  0  0  0  0  0
   39.2287  -19.8695   33.4669 C   0  0  0  0  0  0  0  0  0  0  0  0
   39.8806  -18.9118   34.4223 C   0  0  0  0  0  0  0  0  0  0  0  0
   39.0492  -19.1122   35.6987 C   0  0  0  0  0  0  0  0  0  0  0  0
   37.7475  -18.3757   35.6148 C   0  0  0  0  0  0  0  0  0  0  0  0
   37.4209  -17.9049   34.5003 O   0  0  0  0  0  0  0  0  0  0  0  0
   36.9931  -18.2607   36.7777 N   0  0  0  0  0  0  0  0  0  0  0  0
   37.2512  -18.6475   37.6894 H   0  0  0  0  0  0  0  0  0  0  0  0
   35.6532  -17.4833   36.6826 C   0  0  0  0  0  0  0  0  0  0  0  0
   34.7370  -18.5128   36.4643 C   0  0  0  0  0  0  0  0  0  0  0  0
   34.8630  -19.5380   37.3676 O   0  0  0  0  0  0  0  0  0  0  0  0
   33.6710  -18.8542   35.5539 C   0  0  0  0  0  0  0  0  0  0  0  0
   32.3360  -18.6831   35.8436 N   0  0  0  0  0  0  0  0  0  0  0  0
   31.4484  -19.0820   35.0167 C   0  0  0  0  0  0  0  0  0  0  0  0
   31.8495  -19.6751   33.8536 C   0  0  0  0  0  0  0  0  0  0  0  0
   33.5317  -19.6126   34.0409 S   0  0  0  0  0  0  0  0  0  0  0  0
   35.9798  -16.1735   36.2387 C   0  0  0  0  0  0  0  0  0  0  0  0
   35.1992  -14.9675   36.3084 C   0  0  0  0  0  0  0  0  0  0  0  0
   35.6118  -13.6985   36.8973 C   0  0  0  0  0  0  0  0  0  0  0  0
   34.5953  -12.6580   36.7572 N   0  0  0  0  0  0  0  0  0  0  0  0
   34.8414  -11.7814   36.2795 H   0  0  0  0  0  0  0  0  0  0  0  0
   33.3051  -12.8744   37.2740 C   0  0  0  0  0  0  0  0  0  0  0  0
   32.2088  -12.9477   36.3638 N   0  0  0  0  0  0  0  0  0  0  0  0
   33.0454  -13.0108   38.5277 N   0  0  0  0  0  0  0  0  0  0  0  0
   31.4162  -12.2723   36.4095 H   0  0  0  0  0  0  0  0  0  0  0  0
   32.2487  -13.7212   35.6495 H   0  0  0  0  0  0  0  0  0  0  0  0
   32.0797  -13.1690   38.8642 H   0  0  0  0  0  0  0  0  0  0  0  0
   39.4656  -21.6436   37.9674 C   0  0  0  0  0  0  0  0  0  0  0  0
   41.8538  -21.4148   38.8371 C   0  0  0  0  0  0  0  0  0  0  0  0
   41.7962  -22.2849   39.7296 O   0  0  0  0  0  0  0  0  0  0  0  0
   40.8200  -21.0514   37.9562 N   0  0  0  0  0  0  0  0  0  0  0  0
   40.9964  -20.3244   37.2387 H   0  0  0  0  0  0  0  0  0  0  0  0
   43.0748  -20.7514   38.7237 O   0  0  0  0  0  0  0  0  0  0  0  0
   42.0879  -19.1663   40.1704 C   0  0  0  0  0  0  0  0  0  0  0  0
   43.3208  -19.5179   39.3676 C   0  0  0  0  0  0  0  0  0  0  0  0
   44.4779  -19.5965   40.3288 C   0  0  0  0  0  0  0  0  0  0  0  0
   43.4915  -18.4575   38.3096 C   0  0  0  0  0  0  0  0  0  0  0  0
   38.6035  -21.0718   38.9912 C   0  0  0  0  0  0  0  0  0  0  0  0
   38.3191  -22.0178   40.1579 C   0  0  0  0  0  0  0  0  0  0  0  0
   38.4450  -21.4142   41.4741 C   0  0  0  0  0  0  0  0  0  0  0  0
   37.3881  -21.3571   42.4016 O   0  0  0  0  0  0  0  0  0  0  0  0
   39.5165  -20.9026   41.8610 O   0  0  0  0  0  0  0  0  0  0  0  0
   37.6219  -21.5938   43.3694 H   0  0  0  0  0  0  0  0  0  0  0  0
 37 38  1  0  0  0
 38 39  1  0  0  0
 38 40  1  0  0  0
 38 36  1  0  0  0
 36 32  1  0  0  0
 32 33  2  0  0  0
 32 34  1  0  0  0
 34 31  1  0  0  0
 31 41  1  0  0  0
 41 42  1  0  0  0
 42 43  1  0  0  0
 43 44  1  0  0  0
 43 45  2  0  0  0
 31  1  1  0  0  0
  1  2  2  0  0  0
  1  3  1  0  0  0
  3  4  1  0  0  0
  4  5  1  0  0  0
  5  6  1  0  0  0
  6  7  1  0  0  0
  7  8  1  0  0  0
  8  9  2  0  0  0
  8 10  1  0  0  0
 10 12  1  0  0  0
 12 20  1  0  0  0
 20 21  1  0  0  0
 21 22  1  0  0  0
 22 23  1  0  0  0
 23 25  1  0  0  0
 25 26  1  0  0  0
 25 27  2  0  0  0
 12 13  1  0  0  0
 13 14  2  0  0  0
 13 15  1  0  0  0
 15 16  2  0  0  0
 16 17  1  0  0  0
 17 18  2  0  0  0
 18 19  1  0  0  0
  7  3  1  0  0  0
 19 15  1  0  0  0
 34 35  1  0  0  0
 44 46  1  0  0  0
 10 11  1  0  0  0
 23 24  1  0  0  0
 26 28  1  0  0  0
 26 29  1  0  0  0
 27 30  1  0  0  0
M  END
> <minimizedAffinity>
-5.84936

> <CNNscore>
0.1758993119

> <CNNaffinity>
5.8234868050

> <CNN_VS>
1.0243473053

> <CNNaffinity_variance>
0.3783091903

$$$$
[H]N=C(N([H])[H])N([H])C([H])([H])C([H])([H])C([H])([H])[C@@]1([H])C(=O)N2C([H])([H])C([H])([H])C([H])([H])[C@@]2([H])C(=O)N([H])[C@@]([H])(C([H])([H])C([H])([H])C([H])([H])N([H])C(=N[H])N([H])[H])C(=O)N2C([H])([H])C([H])([H])C([H])([H])[C@@]2([H])C(=O)N([H])[C@@]([H])(C([H])(C([H])([H])[H])C([H])([H])[H])C(=O)N1[H]


 54 56  0  0  0  0  0  0  0  0999 V2000
   32.3017  -21.9334   36.1328 C   0  0  0  0  0  0  0  0  0  0  0  0
   32.7099  -21.0032   37.1390 N   0  0  0  0  0  0  0  0  0  0  0  0
   33.8404  -21.1615   37.9867 C   0  0  0  0  0  0  0  0  0  0  0  0
   33.9158  -20.4294   39.0006 O   0  0  0  0  0  0  0  0  0  0  0  0
   34.9263  -22.1246   37.7593 C   0  0  0  0  0  0  0  0  0  0  0  0
   34.3951  -23.4523   38.2830 C   0  0  0  0  0  0  0  0  0  0  0  0
   35.3731  -23.8703   39.3085 C   0  0  0  0  0  0  0  0  0  0  0  0
   35.8992  -22.5409   39.8116 C   0  0  0  0  0  0  0  0  0  0  0  0
   36.1460  -21.8888   38.4904 N   0  0  0  0  0  0  0  0  0  0  0  0
   37.3231  -21.2491   38.0838 C   0  0  0  0  0  0  0  0  0  0  0  0
   38.4347  -21.8961   38.2984 O   0  0  0  0  0  0  0  0  0  0  0  0
   37.5272  -19.9324   37.4351 C   0  0  0  0  0  0  0  0  0  0  0  0
   36.8722  -18.8368   38.0790 N   0  0  0  0  0  0  0  0  0  0  0  0
   36.2654  -17.7142   37.5209 C   0  0  0  0  0  0  0  0  0  0  0  0
   36.0621  -16.7201   38.3129 O   0  0  0  0  0  0  0  0  0  0  0  0
   35.8188  -17.4962   36.1435 C   0  0  0  0  0  0  0  0  0  0  0  0
   36.4297  -16.1834   35.6246 C   0  0  0  0  0  0  0  0  0  0  0  0
   35.5226  -15.1467   36.2252 C   0  0  0  0  0  0  0  0  0  0  0  0
   34.2463  -15.8638   36.5083 C   0  0  0  0  0  0  0  0  0  0  0  0
   34.4325  -17.2223   35.9544 N   0  0  0  0  0  0  0  0  0  0  0  0
   33.5471  -18.1302   35.3489 C   0  0  0  0  0  0  0  0  0  0  0  0
   32.3099  -17.8817   35.4878 O   0  0  0  0  0  0  0  0  0  0  0  0
   33.9008  -19.3387   34.5705 C   0  0  0  0  0  0  0  0  0  0  0  0
   32.7498  -20.1571   34.2961 N   0  0  0  0  0  0  0  0  0  0  0  0
   32.4404  -21.4449   34.7365 C   0  0  0  0  0  0  0  0  0  0  0  0
   32.2410  -22.3570   33.8462 O   0  0  0  0  0  0  0  0  0  0  0  0
   32.1063  -20.1511   37.2442 H   0  0  0  0  0  0  0  0  0  0  0  0
   36.8582  -18.9154   39.1472 H   0  0  0  0  0  0  0  0  0  0  0  0
   32.0330  -19.6972   33.6490 H   0  0  0  0  0  0  0  0  0  0  0  0
   30.5183  -22.8216   37.6716 C   0  0  0  0  0  0  0  0  0  0  0  0
   30.7936  -22.1759   36.3308 C   0  0  0  0  0  0  0  0  0  0  0  0
   29.9945  -20.9439   36.0768 C   0  0  0  0  0  0  0  0  0  0  0  0
   39.0424  -19.6104   37.5698 C   0  0  0  0  0  0  0  0  0  0  0  0
   39.5716  -18.7552   36.5039 C   0  0  0  0  0  0  0  0  0  0  0  0
   41.0201  -19.0195   36.2301 C   0  0  0  0  0  0  0  0  0  0  0  0
   41.7234  -18.0614   35.4652 N   0  0  0  0  0  0  0  0  0  0  0  0
   41.3620  -17.8598   34.4861 H   0  0  0  0  0  0  0  0  0  0  0  0
   42.8673  -17.3112   35.8155 C   0  0  0  0  0  0  0  0  0  0  0  0
   44.1643  -17.8727   35.9224 N   0  0  0  0  0  0  0  0  0  0  0  0
   42.7689  -16.0237   36.0551 N   0  0  0  0  0  0  0  0  0  0  0  0
   44.5273  -18.2500   36.8193 H   0  0  0  0  0  0  0  0  0  0  0  0
   44.7650  -17.9080   35.0876 H   0  0  0  0  0  0  0  0  0  0  0  0
   41.8296  -15.5614   35.9833 H   0  0  0  0  0  0  0  0  0  0  0  0
   34.4336  -18.7498   33.2286 C   0  0  0  0  0  0  0  0  0  0  0  0
   35.8859  -18.4828   33.3133 C   0  0  0  0  0  0  0  0  0  0  0  0
   36.6068  -19.5829   34.0339 C   0  0  0  0  0  0  0  0  0  0  0  0
   37.7800  -20.1033   33.4400 N   0  0  0  0  0  0  0  0  0  0  0  0
   37.8164  -21.1551   33.2394 H   0  0  0  0  0  0  0  0  0  0  0  0
   38.9414  -19.3957   33.0649 C   0  0  0  0  0  0  0  0  0  0  0  0
   40.0735  -20.0182   32.4287 N   0  0  0  0  0  0  0  0  0  0  0  0
   39.0651  -18.1329   33.2804 N   0  0  0  0  0  0  0  0  0  0  0  0
   40.0655  -19.9954   31.3833 H   0  0  0  0  0  0  0  0  0  0  0  0
   40.8499  -20.4625   32.9658 H   0  0  0  0  0  0  0  0  0  0  0  0
   38.2858  -17.6311   33.7421 H   0  0  0  0  0  0  0  0  0  0  0  0
 30 31  1  0  0  0
 31 32  1  0  0  0
 31  1  1  0  0  0
  1  2  1  0  0  0
  2  3  1  0  0  0
  3  4  2  0  0  0
  3  5  1  0  0  0
  5  6  1  0  0  0
  6  7  1  0  0  0
  7  8  1  0  0  0
  8  9  1  0  0  0
  9 10  1  0  0  0
 10 11  2  0  0  0
 10 12  1  0  0  0
 12 33  1  0  0  0
 33 34  1  0  0  0
 34 35  1  0  0  0
 35 36  1  0  0  0
 36 38  1  0  0  0
 38 39  1  0  0  0
 38 40  2  0  0  0
 12 13  1  0  0  0
 13 14  1  0  0  0
 14 15  2  0  0  0
 14 16  1  0  0  0
 16 17  1  0  0  0
 17 18  1  0  0  0
 18 19  1  0  0  0
 19 20  1  0  0  0
 20 21  1  0  0  0
 21 22  2  0  0  0
 21 23  1  0  0  0
 23 44  1  0  0  0
 44 45  1  0  0  0
 45 46  1  0  0  0
 46 47  1  0  0  0
 47 49  1  0  0  0
 49 50  1  0  0  0
 49 51  2  0  0  0
 23 24  1  0  0  0
 24 25  1  0  0  0
 25 26  2  0  0  0
 25  1  1  0  0  0
  9  5  1  0  0  0
 20 16  1  0  0  0
  2 27  1  0  0  0
 36 37  1  0  0  0
 39 41  1  0  0  0
 39 42  1  0  0  0
 40 43  1  0  0  0
 13 28  1  0  0  0
 47 48  1  0  0  0
 50 52  1  0  0  0
 50 53  1  0  0  0
 51 54  1  0  0  0
 24 29  1  0  0  0
M  END
> <minimizedAffinity>
-5.54891

> <CNNscore>
0.4867791533

> <CNNaffinity>
6.1957731247

> <CNN_VS>
3.0159730911

> <CNNaffinity_variance>
0.3577916920

$$$$
[H]N=C(N([H])[H])N([H])C([H])([H])C([H])([H])C([H])([H])[C@@]1([H])C(=O)N2C([H])([H])C([H])([H])C([H])([H])[C@@]2([H])C(=O)N([H])[C@@]([H])(C([H])([H])C([H])([H])C([H])([H])N([H])C(=N[H])N([H])[H])C(=O)N2C([H])([H])C([H])([H])C([H])([H])[C@@]2([H])C(=O)N([H])[C@@]([H])(C([H])(C([H])([H])[H])C([H])([H])[H])C(=O)N1[H]


 54 56  0  0  0  0  0  0  0  0999 V2000
   36.0742  -23.5909   36.9543 C   0  0  0  0  0  0  0  0  0  0  0  0
   37.3483  -23.9580   37.4893 N   0  0  0  0  0  0  0  0  0  0  0  0
   38.4838  -24.3240   36.7158 C   0  0  0  0  0  0  0  0  0  0  0  0
   39.4317  -24.8930   37.3051 O   0  0  0  0  0  0  0  0  0  0  0  0
   38.6239  -24.0841   35.2731 C   0  0  0  0  0  0  0  0  0  0  0  0
   37.8522  -25.2150   34.6062 C   0  0  0  0  0  0  0  0  0  0  0  0
   38.8422  -25.8845   33.7375 C   0  0  0  0  0  0  0  0  0  0  0  0
   40.1411  -25.6318   34.4765 C   0  0  0  0  0  0  0  0  0  0  0  0
   39.9614  -24.1729   34.7429 N   0  0  0  0  0  0  0  0  0  0  0  0
   40.8880  -23.1572   34.4787 C   0  0  0  0  0  0  0  0  0  0  0  0
   41.4349  -23.1691   33.2951 O   0  0  0  0  0  0  0  0  0  0  0  0
   41.3643  -22.0440   35.3332 C   0  0  0  0  0  0  0  0  0  0  0  0
   41.8034  -22.4322   36.6373 N   0  0  0  0  0  0  0  0  0  0  0  0
   41.6690  -21.7663   37.8532 C   0  0  0  0  0  0  0  0  0  0  0  0
   42.4440  -22.1521   38.8058 O   0  0  0  0  0  0  0  0  0  0  0  0
   40.7617  -20.6742   38.2111 C   0  0  0  0  0  0  0  0  0  0  0  0
   41.5832  -19.5236   38.8170 C   0  0  0  0  0  0  0  0  0  0  0  0
   41.7962  -19.9893   40.2299 C   0  0  0  0  0  0  0  0  0  0  0  0
   40.6981  -20.9645   40.4876 C   0  0  0  0  0  0  0  0  0  0  0  0
   39.8487  -20.9223   39.2778 N   0  0  0  0  0  0  0  0  0  0  0  0
   38.4641  -21.0648   39.0844 C   0  0  0  0  0  0  0  0  0  0  0  0
   37.8102  -21.5475   40.0597 O   0  0  0  0  0  0  0  0  0  0  0  0
   37.6906  -20.7141   37.8719 C   0  0  0  0  0  0  0  0  0  0  0  0
   36.3395  -21.2043   37.9359 N   0  0  0  0  0  0  0  0  0  0  0  0
   35.6980  -22.1677   37.1560 C   0  0  0  0  0  0  0  0  0  0  0  0
   34.6367  -21.8161   36.5121 O   0  0  0  0  0  0  0  0  0  0  0  0
   37.4208  -23.9567   38.5363 H   0  0  0  0  0  0  0  0  0  0  0  0
   42.3050  -23.3786   36.6551 H   0  0  0  0  0  0  0  0  0  0  0  0
   35.7461  -20.7464   38.6990 H   0  0  0  0  0  0  0  0  0  0  0  0
   34.7394  -25.7238   37.0324 C   0  0  0  0  0  0  0  0  0  0  0  0
   35.0142  -24.4042   37.7205 C   0  0  0  0  0  0  0  0  0  0  0  0
   35.3514  -24.5342   39.1663 C   0  0  0  0  0  0  0  0  0  0  0  0
   42.6415  -21.4830   34.6463 C   0  0  0  0  0  0  0  0  0  0  0  0
   43.1995  -20.2938   35.2960 C   0  0  0  0  0  0  0  0  0  0  0  0
   42.3316  -19.0870   35.1136 C   0  0  0  0  0  0  0  0  0  0  0  0
   42.0661  -18.6701   33.7895 N   0  0  0  0  0  0  0  0  0  0  0  0
   42.8130  -18.0915   33.3024 H   0  0  0  0  0  0  0  0  0  0  0  0
   40.9249  -18.9125   32.9939 C   0  0  0  0  0  0  0  0  0  0  0  0
   40.7722  -20.0637   32.1813 N   0  0  0  0  0  0  0  0  0  0  0  0
   39.9288  -18.0567   32.9839 N   0  0  0  0  0  0  0  0  0  0  0  0
   41.0765  -20.0794   31.1884 H   0  0  0  0  0  0  0  0  0  0  0  0
   40.3474  -20.9093   32.5855 H   0  0  0  0  0  0  0  0  0  0  0  0
   39.9933  -17.1913   33.5738 H   0  0  0  0  0  0  0  0  0  0  0  0
   37.6650  -19.1555   37.9091 C   0  0  0  0  0  0  0  0  0  0  0  0
   37.1686  -18.6085   36.6277 C   0  0  0  0  0  0  0  0  0  0  0  0
   36.0976  -17.5816   36.8454 C   0  0  0  0  0  0  0  0  0  0  0  0
   36.4242  -16.4393   37.6126 N   0  0  0  0  0  0  0  0  0  0  0  0
   36.8627  -16.5923   38.5781 H   0  0  0  0  0  0  0  0  0  0  0  0
   36.2440  -15.0853   37.2598 C   0  0  0  0  0  0  0  0  0  0  0  0
   36.7722  -14.5082   36.0507 N   0  0  0  0  0  0  0  0  0  0  0  0
   35.5945  -14.2690   38.0135 N   0  0  0  0  0  0  0  0  0  0  0  0
   36.1207  -14.5133   35.2329 H   0  0  0  0  0  0  0  0  0  0  0  0
   37.7352  -14.1115   35.9876 H   0  0  0  0  0  0  0  0  0  0  0  0
   35.1969  -14.6248   38.9010 H   0  0  0  0  0  0  0  0  0  0  0  0
 30 31  1  0  0  0
 31 32  1  0  0  0
 31  1  1  0  0  0
  1  2  1  0  0  0
  2  3  1  0  0  0
  3  4  2  0  0  0
  3  5  1  0  0  0
  5  6  1  0  0  0
  6  7  1  0  0  0
  7  8  1  0  0  0
  8  9  1  0  0  0
  9 10  1  0  0  0
 10 11  2  0  0  0
 10 12  1  0  0  0
 12 33  1  0  0  0
 33 34  1  0  0  0
 34 35  1  0  0  0
 35 36  1  0  0  0
 36 38  1  0  0  0
 38 39  1  0  0  0
 38 40  2  0  0  0
 12 13  1  0  0  0
 13 14  1  0  0  0
 14 15  2  0  0  0
 14 16  1  0  0  0
 16 17  1  0  0  0
 17 18  1  0  0  0
 18 19  1  0  0  0
 19 20  1  0  0  0
 20 21  1  0  0  0
 21 22  2  0  0  0
 21 23  1  0  0  0
 23 44  1  0  0  0
 44 45  1  0  0  0
 45 46  1  0  0  0
 46 47  1  0  0  0
 47 49  1  0  0  0
 49 50  1  0  0  0
 49 51  2  0  0  0
 23 24  1  0  0  0
 24 25  1  0  0  0
 25 26  2  0  0  0
 25  1  1  0  0  0
  9  5  1  0  0  0
 20 16  1  0  0  0
  2 27  1  0  0  0
 36 37  1  0  0  0
 39 41  1  0  0  0
 39 42  1  0  0  0
 40 43  1  0  0  0
 13 28  1  0  0  0
 47 48  1  0  0  0
 50 52  1  0  0  0
 50 53  1  0  0  0
 51 54  1  0  0  0
 24 29  1  0  0  0
M  END
> <minimizedAffinity>
-4.73172

> <CNNscore>
0.4785794616

> <CNNaffinity>
6.0607576370

> <CNN_VS>
2.9005541801

> <CNNaffinity_variance>
0.1795485914

$$$$
[H]N=C(N([H])[H])N([H])C([H])([H])C([H])([H])C([H])([H])[C@@]1([H])C(=O)N2C([H])([H])C([H])([H])C([H])([H])[C@@]2([H])C(=O)N([H])[C@@]([H])(C([H])([H])C([H])([H])C([H])([H])N([H])C(=N[H])N([H])[H])C(=O)N2C([H])([H])C([H])([H])C([H])([H])[C@@]2([H])C(=O)N([H])[C@@]([H])(C([H])(C([H])([H])[H])C([H])([H])[H])C(=O)N1[H]


 54 56  0  0  0  0  0  0  0  0999 V2000
   31.8293  -22.0200   35.6835 C   0  0  0  0  0  0  0  0  0  0  0  0
   32.1652  -21.2424   36.8353 N   0  0  0  0  0  0  0  0  0  0  0  0
   32.9956  -21.6811   37.9028 C   0  0  0  0  0  0  0  0  0  0  0  0
   32.9730  -21.0218   38.9679 O   0  0  0  0  0  0  0  0  0  0  0  0
   33.8777  -22.8548   37.8464 C   0  0  0  0  0  0  0  0  0  0  0  0
   32.9688  -24.0472   38.1135 C   0  0  0  0  0  0  0  0  0  0  0  0
   33.5572  -24.7110   39.2950 C   0  0  0  0  0  0  0  0  0  0  0  0
   34.2110  -23.5529   40.0220 C   0  0  0  0  0  0  0  0  0  0  0  0
   34.9036  -22.9257   38.8565 N   0  0  0  0  0  0  0  0  0  0  0  0
   36.2514  -22.5526   38.7900 C   0  0  0  0  0  0  0  0  0  0  0  0
   37.1161  -23.4401   39.1960 O   0  0  0  0  0  0  0  0  0  0  0  0
   36.8787  -21.2928   38.3256 C   0  0  0  0  0  0  0  0  0  0  0  0
   36.3309  -20.1021   38.8965 N   0  0  0  0  0  0  0  0  0  0  0  0
   36.1275  -18.8523   38.3161 C   0  0  0  0  0  0  0  0  0  0  0  0
   35.9501  -17.8673   39.1255 O   0  0  0  0  0  0  0  0  0  0  0  0
   36.0864  -18.4900   36.8980 C   0  0  0  0  0  0  0  0  0  0  0  0
   37.0664  -17.3301   36.6525 C   0  0  0  0  0  0  0  0  0  0  0  0
   36.2781  -16.1385   37.1182 C   0  0  0  0  0  0  0  0  0  0  0  0
   34.8503  -16.5602   37.0352 C   0  0  0  0  0  0  0  0  0  0  0  0
   34.8772  -17.9049   36.4202 N   0  0  0  0  0  0  0  0  0  0  0  0
   33.9964  -18.5681   35.5490 C   0  0  0  0  0  0  0  0  0  0  0  0
   32.8431  -18.0532   35.4212 O   0  0  0  0  0  0  0  0  0  0  0  0
   34.2681  -19.7963   34.7683 C   0  0  0  0  0  0  0  0  0  0  0  0
   33.0737  -20.3246   34.1647 N   0  0  0  0  0  0  0  0  0  0  0  0
   32.4036  -21.5250   34.4058 C   0  0  0  0  0  0  0  0  0  0  0  0
   32.2410  -22.3362   33.4159 O   0  0  0  0  0  0  0  0  0  0  0  0
   31.7465  -20.2808   36.8744 H   0  0  0  0  0  0  0  0  0  0  0  0
   36.0405  -20.2141   39.9215 H   0  0  0  0  0  0  0  0  0  0  0  0
   32.6492  -19.6923   33.4138 H   0  0  0  0  0  0  0  0  0  0  0  0
   29.5868  -22.8849   36.4323 C   0  0  0  0  0  0  0  0  0  0  0  0
   30.3022  -21.9244   35.5070 C   0  0  0  0  0  0  0  0  0  0  0  0
   29.8186  -20.5181   35.6028 C   0  0  0  0  0  0  0  0  0  0  0  0
   38.3480  -21.3246   38.8333 C   0  0  0  0  0  0  0  0  0  0  0  0
   39.2837  -20.5510   38.0126 C   0  0  0  0  0  0  0  0  0  0  0  0
   39.0711  -20.7729   36.5468 C   0  0  0  0  0  0  0  0  0  0  0  0
   39.6934  -21.8990   35.9618 N   0  0  0  0  0  0  0  0  0  0  0  0
   39.2657  -22.8510   36.1634 H   0  0  0  0  0  0  0  0  0  0  0  0
   40.8310  -21.9514   35.1269 C   0  0  0  0  0  0  0  0  0  0  0  0
   41.9956  -21.1741   35.3477 N   0  0  0  0  0  0  0  0  0  0  0  0
   40.8549  -22.7531   34.0870 N   0  0  0  0  0  0  0  0  0  0  0  0
   42.1182  -20.2351   34.9213 H   0  0  0  0  0  0  0  0  0  0  0  0
   42.7422  -21.5502   35.9477 H   0  0  0  0  0  0  0  0  0  0  0  0
   40.0177  -23.3527   33.8854 H   0  0  0  0  0  0  0  0  0  0  0  0
   35.2234  -19.2940   33.6428 C   0  0  0  0  0  0  0  0  0  0  0  0
   36.6220  -19.6784   33.9321 C   0  0  0  0  0  0  0  0  0  0  0  0
   37.5791  -18.5784   33.5812 C   0  0  0  0  0  0  0  0  0  0  0  0
   38.6311  -18.8794   32.6852 N   0  0  0  0  0  0  0  0  0  0  0  0
   38.3984  -18.9408   31.6412 H   0  0  0  0  0  0  0  0  0  0  0  0
   39.9868  -19.1139   32.9973 C   0  0  0  0  0  0  0  0  0  0  0  0
   40.8325  -19.9914   32.2300 N   0  0  0  0  0  0  0  0  0  0  0  0
   40.5561  -18.5564   34.0079 N   0  0  0  0  0  0  0  0  0  0  0  0
   41.3818  -19.5288   31.4700 H   0  0  0  0  0  0  0  0  0  0  0  0
   40.8976  -21.0165   32.4133 H   0  0  0  0  0  0  0  0  0  0  0  0
   39.9959  -17.9198   34.6023 H   0  0  0  0  0  0  0  0  0  0  0  0
 30 31  1  0  0  0
 31 32  1  0  0  0
 31  1  1  0  0  0
  1  2  1  0  0  0
  2  3  1  0  0  0
  3  4  2  0  0  0
  3  5  1  0  0  0
  5  6  1  0  0  0
  6  7  1  0  0  0
  7  8  1  0  0  0
  8  9  1  0  0  0
  9 10  1  0  0  0
 10 11  2  0  0  0
 10 12  1  0  0  0
 12 33  1  0  0  0
 33 34  1  0  0  0
 34 35  1  0  0  0
 35 36  1  0  0  0
 36 38  1  0  0  0
 38 39  1  0  0  0
 38 40  2  0  0  0
 12 13  1  0  0  0
 13 14  1  0  0  0
 14 15  2  0  0  0
 14 16  1  0  0  0
 16 17  1  0  0  0
 17 18  1  0  0  0
 18 19  1  0  0  0
 19 20  1  0  0  0
 20 21  1  0  0  0
 21 22  2  0  0  0
 21 23  1  0  0  0
 23 44  1  0  0  0
 44 45  1  0  0  0
 45 46  1  0  0  0
 46 47  1  0  0  0
 47 49  1  0  0  0
 49 50  1  0  0  0
 49 51  2  0  0  0
 23 24  1  0  0  0
 24 25  1  0  0  0
 25 26  2  0  0  0
 25  1  1  0  0  0
  9  5  1  0  0  0
 20 16  1  0  0  0
  2 27  1  0  0  0
 36 37  1  0  0  0
 39 41  1  0  0  0
 39 42  1  0  0  0
 40 43  1  0  0  0
 13 28  1  0  0  0
 47 48  1  0  0  0
 50 52  1  0  0  0
 50 53  1  0  0  0
 51 54  1  0  0  0
 24 29  1  0  0  0
M  END
> <minimizedAffinity>
-3.64205

> <CNNscore>
0.4698465765

> <CNNaffinity>
6.0167055130

> <CNN_VS>
2.8269283772

> <CNNaffinity_variance>
0.3331753612

$$$$
[H]N=C(N([H])[H])N([H])C([H])([H])C([H])([H])C([H])([H])[C@@]1([H])C(=O)N2C([H])([H])C([H])([H])C([H])([H])[C@@]2([H])C(=O)N([H])[C@@]([H])(C([H])([H])C([H])([H])C([H])([H])N([H])C(=N[H])N([H])[H])C(=O)N2C([H])([H])C([H])([H])C([H])([H])[C@@]2([H])C(=O)N([H])[C@@]([H])(C([H])(C([H])([H])[H])C([H])([H])[H])C(=O)N1[H]


 54 56  0  0  0  0  0  0  0  0999 V2000
   35.5727  -18.2407   36.0817 C   0  0  0  0  0  0  0  0  0  0  0  0
   34.3907  -18.6151   36.7937 N   0  0  0  0  0  0  0  0  0  0  0  0
   33.3104  -19.3609   36.2476 C   0  0  0  0  0  0  0  0  0  0  0  0
   32.2293  -19.3698   36.8805 O   0  0  0  0  0  0  0  0  0  0  0  0
   33.3711  -20.1210   34.9917 C   0  0  0  0  0  0  0  0  0  0  0  0
   33.1640  -19.0877   33.8923 C   0  0  0  0  0  0  0  0  0  0  0  0
   31.9831  -19.5662   33.1443 C   0  0  0  0  0  0  0  0  0  0  0  0
   31.2058  -20.3094   34.2122 C   0  0  0  0  0  0  0  0  0  0  0  0
   32.3323  -21.1003   34.7927 N   0  0  0  0  0  0  0  0  0  0  0  0
   32.3473  -22.4804   35.0278 C   0  0  0  0  0  0  0  0  0  0  0  0
   31.9388  -23.2369   34.0474 O   0  0  0  0  0  0  0  0  0  0  0  0
   32.7584  -23.2472   36.2276 C   0  0  0  0  0  0  0  0  0  0  0  0
   32.1729  -22.8040   37.4542 N   0  0  0  0  0  0  0  0  0  0  0  0
   32.7257  -22.7476   38.7315 C   0  0  0  0  0  0  0  0  0  0  0  0
   31.8961  -22.6440   39.7102 O   0  0  0  0  0  0  0  0  0  0  0  0
   34.1342  -22.7906   39.1293 C   0  0  0  0  0  0  0  0  0  0  0  0
   34.3183  -23.8906   40.1886 C   0  0  0  0  0  0  0  0  0  0  0  0
   33.8453  -23.2120   41.4432 C   0  0  0  0  0  0  0  0  0  0  0  0
   33.9833  -21.7523   41.1714 C   0  0  0  0  0  0  0  0  0  0  0  0
   34.6330  -21.6634   39.8459 N   0  0  0  0  0  0  0  0  0  0  0  0
   35.5483  -20.7494   39.2966 C   0  0  0  0  0  0  0  0  0  0  0  0
   35.6976  -19.6591   39.9294 O   0  0  0  0  0  0  0  0  0  0  0  0
   36.3528  -20.9212   38.0658 C   0  0  0  0  0  0  0  0  0  0  0  0
   37.0067  -19.7002   37.6765 N   0  0  0  0  0  0  0  0  0  0  0  0
   36.8185  -18.9044   36.5454 C   0  0  0  0  0  0  0  0  0  0  0  0
   37.8343  -18.6935   35.7785 O   0  0  0  0  0  0  0  0  0  0  0  0
   34.3388  -18.2948   37.7919 H   0  0  0  0  0  0  0  0  0  0  0  0
   31.1606  -22.4699   37.3484 H   0  0  0  0  0  0  0  0  0  0  0  0
   37.7531  -19.3671   38.3663 H   0  0  0  0  0  0  0  0  0  0  0  0
   36.6060  -16.5134   37.5937 C   0  0  0  0  0  0  0  0  0  0  0  0
   35.7934  -16.7379   36.3367 C   0  0  0  0  0  0  0  0  0  0  0  0
   36.3344  -16.0435   35.1342 C   0  0  0  0  0  0  0  0  0  0  0  0
   32.2068  -24.6880   36.0341 C   0  0  0  0  0  0  0  0  0  0  0  0
   31.2705  -25.1174   37.0764 C   0  0  0  0  0  0  0  0  0  0  0  0
   29.8620  -25.2022   36.5748 C   0  0  0  0  0  0  0  0  0  0  0  0
   28.9592  -24.2000   36.9968 N   0  0  0  0  0  0  0  0  0  0  0  0
   28.1573  -24.5010   37.6263 H   0  0  0  0  0  0  0  0  0  0  0  0
   28.9615  -22.8197   36.6985 C   0  0  0  0  0  0  0  0  0  0  0  0
   28.5392  -22.2914   35.4529 N   0  0  0  0  0  0  0  0  0  0  0  0
   29.3605  -21.9475   37.5955 N   0  0  0  0  0  0  0  0  0  0  0  0
   29.2019  -22.1387   34.6680 H   0  0  0  0  0  0  0  0  0  0  0  0
   27.5473  -22.0514   35.3212 H   0  0  0  0  0  0  0  0  0  0  0  0
   29.6777  -22.2903   38.5352 H   0  0  0  0  0  0  0  0  0  0  0  0
   37.4346  -21.9593   38.4943 C   0  0  0  0  0  0  0  0  0  0  0  0
   38.6715  -21.2769   38.9326 C   0  0  0  0  0  0  0  0  0  0  0  0
   39.0778  -21.7054   40.3112 C   0  0  0  0  0  0  0  0  0  0  0  0
   40.3917  -21.4014   40.7367 N   0  0  0  0  0  0  0  0  0  0  0  0
   41.1475  -22.1491   40.6038 H   0  0  0  0  0  0  0  0  0  0  0  0
   40.8495  -20.2056   41.3290 C   0  0  0  0  0  0  0  0  0  0  0  0
   40.2084  -19.5910   42.4627 N   0  0  0  0  0  0  0  0  0  0  0  0
   41.8785  -19.5769   40.8791 N   0  0  0  0  0  0  0  0  0  0  0  0
   40.5926  -19.8664   43.3954 H   0  0  0  0  0  0  0  0  0  0  0  0
   39.4165  -18.9183   42.3680 H   0  0  0  0  0  0  0  0  0  0  0  0
   42.3774  -19.9669   40.0599 H   0  0  0  0  0  0  0  0  0  0  0  0
 30 31  1  0  0  0
 31 32  1  0  0  0
 31  1  1  0  0  0
  1  2  1  0  0  0
  2  3  1  0  0  0
  3  4  2  0  0  0
  3  5  1  0  0  0
  5  6  1  0  0  0
  6  7  1  0  0  0
  7  8  1  0  0  0
  8  9  1  0  0  0
  9 10  1  0  0  0
 10 11  2  0  0  0
 10 12  1  0  0  0
 12 33  1  0  0  0
 33 34  1  0  0  0
 34 35  1  0  0  0
 35 36  1  0  0  0
 36 38  1  0  0  0
 38 39  1  0  0  0
 38 40  2  0  0  0
 12 13  1  0  0  0
 13 14  1  0  0  0
 14 15  2  0  0  0
 14 16  1  0  0  0
 16 17  1  0  0  0
 17 18  1  0  0  0
 18 19  1  0  0  0
 19 20  1  0  0  0
 20 21  1  0  0  0
 21 22  2  0  0  0
 21 23  1  0  0  0
 23 44  1  0  0  0
 44 45  1  0  0  0
 45 46  1  0  0  0
 46 47  1  0  0  0
 47 49  1  0  0  0
 49 50  1  0  0  0
 49 51  2  0  0  0
 23 24  1  0  0  0
 24 25  1  0  0  0
 25 26  2  0  0  0
 25  1  1  0  0  0
  9  5  1  0  0  0
 20 16  1  0  0  0
  2 27  1  0  0  0
 36 37  1  0  0  0
 39 41  1  0  0  0
 39 42  1  0  0  0
 40 43  1  0  0  0
 13 28  1  0  0  0
 47 48  1  0  0  0
 50 52  1  0  0  0
 50 53  1  0  0  0
 51 54  1  0  0  0
 24 29  1  0  0  0
M  END
> <minimizedAffinity>
-4.05986

> <CNNscore>
0.4258096516

> <CNNaffinity>
5.7463202477

> <CNN_VS>
2.4468386173

> <CNNaffinity_variance>
0.5004163980

$$$$
[H]N=C(N([H])[H])N([H])C([H])([H])C([H])([H])C([H])([H])[C@@]1([H])C(=O)N2C([H])([H])C([H])([H])C([H])([H])[C@@]2([H])C(=O)N([H])[C@@]([H])(C([H])([H])C([H])([H])C([H])([H])N([H])C(=N[H])N([H])[H])C(=O)N2C([H])([H])C([H])([H])C([H])([H])[C@@]2([H])C(=O)N([H])[C@@]([H])(C([H])(C([H])([H])[H])C([H])([H])[H])C(=O)N1[H]


 54 56  0  0  0  0  0  0  0  0999 V2000
   36.7824  -18.6209   36.0989 C   0  0  0  0  0  0  0  0  0  0  0  0
   37.0308  -19.8681   35.4453 N   0  0  0  0  0  0  0  0  0  0  0  0
   38.3112  -20.4654   35.2856 C   0  0  0  0  0  0  0  0  0  0  0  0
   38.4204  -21.3972   34.4553 O   0  0  0  0  0  0  0  0  0  0  0  0
   39.5169  -20.0659   36.0242 C   0  0  0  0  0  0  0  0  0  0  0  0
   40.0408  -18.8369   35.2932 C   0  0  0  0  0  0  0  0  0  0  0  0
   41.4202  -19.1924   34.9010 C   0  0  0  0  0  0  0  0  0  0  0  0
   41.3319  -20.6973   34.7440 C   0  0  0  0  0  0  0  0  0  0  0  0
   40.6080  -21.0079   36.0133 N   0  0  0  0  0  0  0  0  0  0  0  0
   40.9693  -21.9690   36.9651 C   0  0  0  0  0  0  0  0  0  0  0  0
   42.2188  -21.9700   37.3380 O   0  0  0  0  0  0  0  0  0  0  0  0
   40.1560  -23.0092   37.6380 C   0  0  0  0  0  0  0  0  0  0  0  0
   39.3781  -23.8260   36.7597 N   0  0  0  0  0  0  0  0  0  0  0  0
   38.1061  -24.3634   36.9423 C   0  0  0  0  0  0  0  0  0  0  0  0
   37.7781  -25.3349   36.1642 O   0  0  0  0  0  0  0  0  0  0  0  0
   37.0723  -23.9793   37.9055 C   0  0  0  0  0  0  0  0  0  0  0  0
   36.6170  -25.2323   38.6725 C   0  0  0  0  0  0  0  0  0  0  0  0
   35.6651  -25.8749   37.7034 C   0  0  0  0  0  0  0  0  0  0  0  0
   35.2178  -24.7702   36.8072 C   0  0  0  0  0  0  0  0  0  0  0  0
   35.8252  -23.5442   37.3686 N   0  0  0  0  0  0  0  0  0  0  0  0
   35.3849  -22.2114   37.4352 C   0  0  0  0  0  0  0  0  0  0  0  0
   34.4018  -21.9095   36.6908 O   0  0  0  0  0  0  0  0  0  0  0  0
   35.9415  -21.1276   38.2761 C   0  0  0  0  0  0  0  0  0  0  0  0
   35.4004  -19.8420   37.9234 N   0  0  0  0  0  0  0  0  0  0  0  0
   36.0316  -18.7235   37.3769 C   0  0  0  0  0  0  0  0  0  0  0  0
   35.9777  -17.6161   38.0365 O   0  0  0  0  0  0  0  0  0  0  0  0
   36.1866  -20.3549   35.0555 H   0  0  0  0  0  0  0  0  0  0  0  0
   39.8668  -24.0406   35.8309 H   0  0  0  0  0  0  0  0  0  0  0  0
   34.3543  -19.7408   38.1219 H   0  0  0  0  0  0  0  0  0  0  0  0
   36.3509  -16.3590   35.0817 C   0  0  0  0  0  0  0  0  0  0  0  0
   35.8805  -17.7952   35.1625 C   0  0  0  0  0  0  0  0  0  0  0  0
   35.7081  -18.4513   33.8356 C   0  0  0  0  0  0  0  0  0  0  0  0
   41.1645  -23.9957   38.2917 C   0  0  0  0  0  0  0  0  0  0  0  0
   40.6752  -24.6287   39.5195 C   0  0  0  0  0  0  0  0  0  0  0  0
   41.7253  -24.6876   40.5856 C   0  0  0  0  0  0  0  0  0  0  0  0
   42.0617  -23.4784   41.2355 N   0  0  0  0  0  0  0  0  0  0  0  0
   41.3442  -23.0697   41.9050 H   0  0  0  0  0  0  0  0  0  0  0  0
   43.2406  -22.7089   41.1253 C   0  0  0  0  0  0  0  0  0  0  0  0
   43.4980  -21.8289   40.0445 N   0  0  0  0  0  0  0  0  0  0  0  0
   44.1670  -22.7773   42.0536 N   0  0  0  0  0  0  0  0  0  0  0  0
   44.0001  -22.1403   39.1903 H   0  0  0  0  0  0  0  0  0  0  0  0
   43.1790  -20.8526   40.1067 H   0  0  0  0  0  0  0  0  0  0  0  0
   44.0192  -23.4113   42.8766 H   0  0  0  0  0  0  0  0  0  0  0  0
   35.4526  -21.5062   39.7076 C   0  0  0  0  0  0  0  0  0  0  0  0
   36.4195  -21.0496   40.7295 C   0  0  0  0  0  0  0  0  0  0  0  0
   37.3236  -22.1628   41.1682 C   0  0  0  0  0  0  0  0  0  0  0  0
   38.6878  -22.0883   40.8030 N   0  0  0  0  0  0  0  0  0  0  0  0
   39.0850  -22.8686   40.1856 H   0  0  0  0  0  0  0  0  0  0  0  0
   39.6197  -21.0893   41.1550 C   0  0  0  0  0  0  0  0  0  0  0  0
   39.6125  -20.4175   42.4289 N   0  0  0  0  0  0  0  0  0  0  0  0
   40.5412  -20.7052   40.3428 N   0  0  0  0  0  0  0  0  0  0  0  0
   40.2229  -20.8458   43.1619 H   0  0  0  0  0  0  0  0  0  0  0  0
   39.0415  -19.5642   42.6146 H   0  0  0  0  0  0  0  0  0  0  0  0
   40.5922  -21.1472   39.4078 H   0  0  0  0  0  0  0  0  0  0  0  0
 30 31  1  0  0  0
 31 32  1  0  0  0
 31  1  1  0  0  0
  1  2  1  0  0  0
  2  3  1  0  0  0
  3  4  2  0  0  0
  3  5  1  0  0  0
  5  6  1  0  0  0
  6  7  1  0  0  0
  7  8  1  0  0  0
  8  9  1  0  0  0
  9 10  1  0  0  0
 10 11  2  0  0  0
 10 12  1  0  0  0
 12 33  1  0  0  0
 33 34  1  0  0  0
 34 35  1  0  0  0
 35 36  1  0  0  0
 36 38  1  0  0  0
 38 39  1  0  0  0
 38 40  2  0  0  0
 12 13  1  0  0  0
 13 14  1  0  0  0
 14 15  2  0  0  0
 14 16  1  0  0  0
 16 17  1  0  0  0
 17 18  1  0  0  0
 18 19  1  0  0  0
 19 20  1  0  0  0
 20 21  1  0  0  0
 21 22  2  0  0  0
 21 23  1  0  0  0
 23 44  1  0  0  0
 44 45  1  0  0  0
 45 46  1  0  0  0
 46 47  1  0  0  0
 47 49  1  0  0  0
 49 50  1  0  0  0
 49 51  2  0  0  0
 23 24  1  0  0  0
 24 25  1  0  0  0
 25 26  2  0  0  0
 25  1  1  0  0  0
  9  5  1  0  0  0
 20 16  1  0  0  0
  2 27  1  0  0  0
 36 37  1  0  0  0
 39 41  1  0  0  0
 39 42  1  0  0  0
 40 43  1  0  0  0
 13 28  1  0  0  0
 47 48  1  0  0  0
 50 52  1  0  0  0
 50 53  1  0  0  0
 51 54  1  0  0  0
 24 29  1  0  0  0
M  END
> <minimizedAffinity>
-3.39027

> <CNNscore>
0.3981522024

> <CNNaffinity>
5.3772635460

> <CNN_VS>
2.1409692764

> <CNNaffinity_variance>
0.8149851561

$$$$
[H]N=C(N([H])[H])N([H])C([H])([H])C([H])([H])C([H])([H])[C@@]1([H])C(=O)N2C([H])([H])C([H])([H])C([H])([H])[C@@]2([H])C(=O)N([H])[C@@]([H])(C([H])([H])C([H])([H])C([H])([H])N([H])C(=N[H])N([H])[H])C(=O)N2C([H])([H])C([H])([H])C([H])([H])[C@@]2([H])C(=O)N([H])[C@@]([H])(C([H])(C([H])([H])[H])C([H])([H])[H])C(=O)N1[H]


 54 56  0  0  0  0  0  0  0  0999 V2000
   37.1095  -18.7769   35.5806 C   0  0  0  0  0  0  0  0  0  0  0  0
   37.4220  -20.0894   35.1073 N   0  0  0  0  0  0  0  0  0  0  0  0
   38.7362  -20.5928   34.9046 C   0  0  0  0  0  0  0  0  0  0  0  0
   38.8621  -21.6368   34.2236 O   0  0  0  0  0  0  0  0  0  0  0  0
   39.9585  -19.9741   35.4357 C   0  0  0  0  0  0  0  0  0  0  0  0
   40.2831  -18.8433   34.4686 C   0  0  0  0  0  0  0  0  0  0  0  0
   41.6489  -19.1394   33.9891 C   0  0  0  0  0  0  0  0  0  0  0  0
   41.7008  -20.6514   34.0802 C   0  0  0  0  0  0  0  0  0  0  0  0
   41.1344  -20.8076   35.4537 N   0  0  0  0  0  0  0  0  0  0  0  0
   41.6797  -21.5625   36.4991 C   0  0  0  0  0  0  0  0  0  0  0  0
   42.9520  -21.3943   36.7292 O   0  0  0  0  0  0  0  0  0  0  0  0
   41.0437  -22.5422   37.4112 C   0  0  0  0  0  0  0  0  0  0  0  0
   40.2747  -23.5574   36.7617 N   0  0  0  0  0  0  0  0  0  0  0  0
   39.0871  -24.1642   37.1636 C   0  0  0  0  0  0  0  0  0  0  0  0
   38.7889  -25.2760   36.5877 O   0  0  0  0  0  0  0  0  0  0  0  0
   38.1141  -23.7154   38.1616 C   0  0  0  0  0  0  0  0  0  0  0  0
   37.8633  -24.8579   39.1604 C   0  0  0  0  0  0  0  0  0  0  0  0
   36.8956  -25.7320   38.4134 C   0  0  0  0  0  0  0  0  0  0  0  0
   36.2558  -24.8341   37.4094 C   0  0  0  0  0  0  0  0  0  0  0  0
   36.7843  -23.4844   37.7023 N   0  0  0  0  0  0  0  0  0  0  0  0
   36.2180  -22.2018   37.6069 C   0  0  0  0  0  0  0  0  0  0  0  0
   35.1439  -22.1134   36.9360 O   0  0  0  0  0  0  0  0  0  0  0  0
   36.7370  -20.9495   38.2020 C   0  0  0  0  0  0  0  0  0  0  0  0
   36.0365  -19.7917   37.7133 N   0  0  0  0  0  0  0  0  0  0  0  0
   36.4960  -18.7297   36.9329 C   0  0  0  0  0  0  0  0  0  0  0  0
   36.3909  -17.5368   37.4129 O   0  0  0  0  0  0  0  0  0  0  0  0
   36.5993  -20.7049   34.8929 H   0  0  0  0  0  0  0  0  0  0  0  0
   40.6937  -23.8807   35.8303 H   0  0  0  0  0  0  0  0  0  0  0  0
   35.0087  -19.7491   38.0063 H   0  0  0  0  0  0  0  0  0  0  0  0
   36.6842  -17.5938   33.3996 C   0  0  0  0  0  0  0  0  0  0  0  0
   36.0441  -18.1989   34.6303 C   0  0  0  0  0  0  0  0  0  0  0  0
   34.9712  -19.1887   34.3301 C   0  0  0  0  0  0  0  0  0  0  0  0
   42.2046  -23.3161   38.0976 C   0  0  0  0  0  0  0  0  0  0  0  0
   42.4957  -22.8739   39.4641 C   0  0  0  0  0  0  0  0  0  0  0  0
   42.4306  -23.9985   40.4509 C   0  0  0  0  0  0  0  0  0  0  0  0
   41.1562  -24.5352   40.7433 N   0  0  0  0  0  0  0  0  0  0  0  0
   40.7501  -25.2306   40.0495 H   0  0  0  0  0  0  0  0  0  0  0  0
   40.3167  -24.2784   41.8494 C   0  0  0  0  0  0  0  0  0  0  0  0
   40.1869  -23.0004   42.4484 N   0  0  0  0  0  0  0  0  0  0  0  0
   39.5974  -25.2433   42.3749 N   0  0  0  0  0  0  0  0  0  0  0  0
   40.7893  -22.7009   43.2397 H   0  0  0  0  0  0  0  0  0  0  0  0
   39.4752  -22.3494   42.0900 H   0  0  0  0  0  0  0  0  0  0  0  0
   39.6558  -26.2063   41.9622 H   0  0  0  0  0  0  0  0  0  0  0  0
   36.4255  -21.1254   39.7197 C   0  0  0  0  0  0  0  0  0  0  0  0
   35.1816  -20.4136   40.0855 C   0  0  0  0  0  0  0  0  0  0  0  0
   34.1075  -21.3678   40.5156 C   0  0  0  0  0  0  0  0  0  0  0  0
   33.3066  -21.9573   39.5100 N   0  0  0  0  0  0  0  0  0  0  0  0
   32.8865  -21.3148   38.7627 H   0  0  0  0  0  0  0  0  0  0  0  0
   32.9816  -23.3217   39.3584 C   0  0  0  0  0  0  0  0  0  0  0  0
   32.7440  -24.2044   40.4712 N   0  0  0  0  0  0  0  0  0  0  0  0
   32.8854  -23.8709   38.1984 N   0  0  0  0  0  0  0  0  0  0  0  0
   31.7444  -24.2914   40.7655 H   0  0  0  0  0  0  0  0  0  0  0  0
   33.5095  -24.7232   40.9545 H   0  0  0  0  0  0  0  0  0  0  0  0
   33.0529  -23.2875   37.3595 H   0  0  0  0  0  0  0  0  0  0  0  0
 30 31  1  0  0  0
 31 32  1  0  0  0
 31  1  1  0  0  0
  1  2  1  0  0  0
  2  3  1  0  0  0
  3  4  2  0  0  0
  3  5  1  0  0  0
  5  6  1  0  0  0
  6  7  1  0  0  0
  7  8  1  0  0  0
  8  9  1  0  0  0
  9 10  1  0  0  0
 10 11  2  0  0  0
 10 12  1  0  0  0
 12 33  1  0  0  0
 33 34  1  0  0  0
 34 35  1  0  0  0
 35 36  1  0  0  0
 36 38  1  0  0  0
 38 39  1  0  0  0
 38 40  2  0  0  0
 12 13  1  0  0  0
 13 14  1  0  0  0
 14 15  2  0  0  0
 14 16  1  0  0  0
 16 17  1  0  0  0
 17 18  1  0  0  0
 18 19  1  0  0  0
 19 20  1  0  0  0
 20 21  1  0  0  0
 21 22  2  0  0  0
 21 23  1  0  0  0
 23 44  1  0  0  0
 44 45  1  0  0  0
 45 46  1  0  0  0
 46 47  1  0  0  0
 47 49  1  0  0  0
 49 50  1  0  0  0
 49 51  2  0  0  0
 23 24  1  0  0  0
 24 25  1  0  0  0
 25 26  2  0  0  0
 25  1  1  0  0  0
  9  5  1  0  0  0
 20 16  1  0  0  0
  2 27  1  0  0  0
 36 37  1  0  0  0
 39 41  1  0  0  0
 39 42  1  0  0  0
 40 43  1  0  0  0
 13 28  1  0  0  0
 47 48  1  0  0  0
 50 52  1  0  0  0
 50 53  1  0  0  0
 51 54  1  0  0  0
 24 29  1  0  0  0
M  END
> <minimizedAffinity>
-3.63028

> <CNNscore>
0.3853418529

> <CNNaffinity>
5.5119199753

> <CNN_VS>
2.1239733696

> <CNNaffinity_variance>
1.2866353989

$$$$
[H]N=C(N([H])[H])N([H])C([H])([H])C([H])([H])C([H])([H])[C@@]1([H])C(=O)N2C([H])([H])C([H])([H])C([H])([H])[C@@]2([H])C(=O)N([H])[C@@]([H])(C([H])([H])C([H])([H])C([H])([H])N([H])C(=N[H])N([H])[H])C(=O)N2C([H])([H])C([H])([H])C([H])([H])[C@@]2([H])C(=O)N([H])[C@@]([H])(C([H])(C([H])([H])[H])C([H])([H])[H])C(=O)N1[H]


 54 56  0  0  0  0  0  0  0  0999 V2000
   36.0708  -23.7523   36.9657 C   0  0  0  0  0  0  0  0  0  0  0  0
   37.3769  -24.0758   37.4493 N   0  0  0  0  0  0  0  0  0  0  0  0
   38.4978  -24.3832   36.6303 C   0  0  0  0  0  0  0  0  0  0  0  0
   39.4882  -24.9224   37.1761 O   0  0  0  0  0  0  0  0  0  0  0  0
   38.5766  -24.1150   35.1879 C   0  0  0  0  0  0  0  0  0  0  0  0
   37.8274  -25.2656   34.5290 C   0  0  0  0  0  0  0  0  0  0  0  0
   38.8117  -25.8804   33.6147 C   0  0  0  0  0  0  0  0  0  0  0  0
   40.1251  -25.5869   34.3120 C   0  0  0  0  0  0  0  0  0  0  0  0
   39.8967  -24.1410   34.6096 N   0  0  0  0  0  0  0  0  0  0  0  0
   40.7719  -23.0843   34.3307 C   0  0  0  0  0  0  0  0  0  0  0  0
   41.2762  -23.0553   33.1286 O   0  0  0  0  0  0  0  0  0  0  0  0
   41.2335  -21.9664   35.1870 C   0  0  0  0  0  0  0  0  0  0  0  0
   41.7340  -22.3571   36.4680 N   0  0  0  0  0  0  0  0  0  0  0  0
   41.6167  -21.7165   37.6992 C   0  0  0  0  0  0  0  0  0  0  0  0
   42.4400  -22.0855   38.6172 O   0  0  0  0  0  0  0  0  0  0  0  0
   40.6797  -20.6680   38.1075 C   0  0  0  0  0  0  0  0  0  0  0  0
   41.4756  -19.4946   38.7040 C   0  0  0  0  0  0  0  0  0  0  0  0
   41.7575  -19.9735   40.1002 C   0  0  0  0  0  0  0  0  0  0  0  0
   40.7092  -20.9965   40.3795 C   0  0  0  0  0  0  0  0  0  0  0  0
   39.8161  -20.9697   39.2010 N   0  0  0  0  0  0  0  0  0  0  0  0
   38.4323  -21.1653   39.0539 C   0  0  0  0  0  0  0  0  0  0  0  0
   37.8335  -21.6895   40.0430 O   0  0  0  0  0  0  0  0  0  0  0  0
   37.6026  -20.8272   37.8755 C   0  0  0  0  0  0  0  0  0  0  0  0
   36.2753  -21.3728   37.9784 N   0  0  0  0  0  0  0  0  0  0  0  0
   35.6454  -22.3490   37.2050 C   0  0  0  0  0  0  0  0  0  0  0  0
   34.5486  -22.0306   36.6049 O   0  0  0  0  0  0  0  0  0  0  0  0
   37.4867  -24.0882   38.4930 H   0  0  0  0  0  0  0  0  0  0  0  0
   42.2734  -23.2825   36.4519 H   0  0  0  0  0  0  0  0  0  0  0  0
   35.6917  -20.9515   38.7696 H   0  0  0  0  0  0  0  0  0  0  0  0
   34.7304  -25.8830   36.9938 C   0  0  0  0  0  0  0  0  0  0  0  0
   35.0723  -24.6201   37.7545 C   0  0  0  0  0  0  0  0  0  0  0  0
   35.5284  -24.8604   39.1528 C   0  0  0  0  0  0  0  0  0  0  0  0
   42.4618  -21.3431   34.4655 C   0  0  0  0  0  0  0  0  0  0  0  0
   42.8577  -20.0295   34.9804 C   0  0  0  0  0  0  0  0  0  0  0  0
   41.7603  -19.0177   34.8594 C   0  0  0  0  0  0  0  0  0  0  0  0
   41.9098  -17.8065   35.5724 N   0  0  0  0  0  0  0  0  0  0  0  0
   41.2088  -17.6075   36.3462 H   0  0  0  0  0  0  0  0  0  0  0  0
   42.8774  -16.7915   35.4060 C   0  0  0  0  0  0  0  0  0  0  0  0
   43.8179  -16.7784   34.3457 N   0  0  0  0  0  0  0  0  0  0  0  0
   42.9377  -15.7872   36.2500 N   0  0  0  0  0  0  0  0  0  0  0  0
   44.7550  -17.2169   34.4373 H   0  0  0  0  0  0  0  0  0  0  0  0
   43.5663  -16.3213   33.4589 H   0  0  0  0  0  0  0  0  0  0  0  0
   42.2583  -15.7502   37.0489 H   0  0  0  0  0  0  0  0  0  0  0  0
   37.5159  -19.2716   37.9405 C   0  0  0  0  0  0  0  0  0  0  0  0
   38.1377  -18.6616   36.7451 C   0  0  0  0  0  0  0  0  0  0  0  0
   37.9219  -19.5028   35.5224 C   0  0  0  0  0  0  0  0  0  0  0  0
   36.5911  -19.7155   35.0938 N   0  0  0  0  0  0  0  0  0  0  0  0
   35.9929  -20.4140   35.6434 H   0  0  0  0  0  0  0  0  0  0  0  0
   35.9298  -19.1078   34.0059 C   0  0  0  0  0  0  0  0  0  0  0  0
   36.4193  -17.9249   33.3461 N   0  0  0  0  0  0  0  0  0  0  0  0
   34.8268  -19.5756   33.5359 N   0  0  0  0  0  0  0  0  0  0  0  0
   37.0270  -18.0985   32.5131 H   0  0  0  0  0  0  0  0  0  0  0  0
   36.1886  -16.9604   33.6705 H   0  0  0  0  0  0  0  0  0  0  0  0
   34.4214  -20.4214   33.9746 H   0  0  0  0  0  0  0  0  0  0  0  0
 30 31  1  0  0  0
 31 32  1  0  0  0
 31  1  1  0  0  0
  1  2  1  0  0  0
  2  3  1  0  0  0
  3  4  2  0  0  0
  3  5  1  0  0  0
  5  6  1  0  0  0
  6  7  1  0  0  0
  7  8  1  0  0  0
  8  9  1  0  0  0
  9 10  1  0  0  0
 10 11  2  0  0  0
 10 12  1  0  0  0
 12 33  1  0  0  0
 33 34  1  0  0  0
 34 35  1  0  0  0
 35 36  1  0  0  0
 36 38  1  0  0  0
 38 39  1  0  0  0
 38 40  2  0  0  0
 12 13  1  0  0  0
 13 14  1  0  0  0
 14 15  2  0  0  0
 14 16  1  0  0  0
 16 17  1  0  0  0
 17 18  1  0  0  0
 18 19  1  0  0  0
 19 20  1  0  0  0
 20 21  1  0  0  0
 21 22  2  0  0  0
 21 23  1  0  0  0
 23 44  1  0  0  0
 44 45  1  0  0  0
 45 46  1  0  0  0
 46 47  1  0  0  0
 47 49  1  0  0  0
 49 50  1  0  0  0
 49 51  2  0  0  0
 23 24  1  0  0  0
 24 25  1  0  0  0
 25 26  2  0  0  0
 25  1  1  0  0  0
  9  5  1  0  0  0
 20 16  1  0  0  0
  2 27  1  0  0  0
 36 37  1  0  0  0
 39 41  1  0  0  0
 39 42  1  0  0  0
 40 43  1  0  0  0
 13 28  1  0  0  0
 47 48  1  0  0  0
 50 52  1  0  0  0
 50 53  1  0  0  0
 51 54  1  0  0  0
 24 29  1  0  0  0
M  END
> <minimizedAffinity>
-4.76942

> <CNNscore>
0.3836955726

> <CNNaffinity>
5.8380637169

> <CNN_VS>
2.2400391102

> <CNNaffinity_variance>
0.1519008577

$$$$
[H]N=C(N([H])[H])N([H])C([H])([H])C([H])([H])C([H])([H])[C@@]1([H])C(=O)N2C([H])([H])C([H])([H])C([H])([H])[C@@]2([H])C(=O)N([H])[C@@]([H])(C([H])([H])C([H])([H])C([H])([H])N([H])C(=N[H])N([H])[H])C(=O)N2C([H])([H])C([H])([H])C([H])([H])[C@@]2([H])C(=O)N([H])[C@@]([H])(C([H])(C([H])([H])[H])C([H])([H])[H])C(=O)N1[H]


 54 56  0  0  0  0  0  0  0  0999 V2000
   36.3705  -20.7270   37.3626 C   0  0  0  0  0  0  0  0  0  0  0  0
   37.0417  -21.4214   36.3082 N   0  0  0  0  0  0  0  0  0  0  0  0
   37.8748  -20.8122   35.3303 C   0  0  0  0  0  0  0  0  0  0  0  0
   38.1610  -21.4807   34.3101 O   0  0  0  0  0  0  0  0  0  0  0  0
   38.4229  -19.4527   35.4301 C   0  0  0  0  0  0  0  0  0  0  0  0
   37.2921  -18.5355   34.9835 C   0  0  0  0  0  0  0  0  0  0  0  0
   37.8528  -17.7725   33.8493 C   0  0  0  0  0  0  0  0  0  0  0  0
   38.8654  -18.7444   33.2774 C   0  0  0  0  0  0  0  0  0  0  0  0
   39.5268  -19.1485   34.5545 N   0  0  0  0  0  0  0  0  0  0  0  0
   40.9030  -19.1670   34.8108 C   0  0  0  0  0  0  0  0  0  0  0  0
   41.5681  -18.0995   34.4667 O   0  0  0  0  0  0  0  0  0  0  0  0
   41.7535  -20.2159   35.4213 C   0  0  0  0  0  0  0  0  0  0  0  0
   41.6002  -21.5196   34.8549 N   0  0  0  0  0  0  0  0  0  0  0  0
   41.6355  -22.7661   35.4754 C   0  0  0  0  0  0  0  0  0  0  0  0
   41.8190  -23.7827   34.7076 O   0  0  0  0  0  0  0  0  0  0  0  0
   41.4931  -23.0935   36.8954 C   0  0  0  0  0  0  0  0  0  0  0  0
   42.6869  -23.9618   37.3277 C   0  0  0  0  0  0  0  0  0  0  0  0
   42.2889  -25.3247   36.8353 C   0  0  0  0  0  0  0  0  0  0  0  0
   40.8034  -25.2758   36.7142 C   0  0  0  0  0  0  0  0  0  0  0  0
   40.4130  -23.9540   37.2501 N   0  0  0  0  0  0  0  0  0  0  0  0
   39.2855  -23.5146   37.9646 C   0  0  0  0  0  0  0  0  0  0  0  0
   38.2891  -24.3013   37.9757 O   0  0  0  0  0  0  0  0  0  0  0  0
   39.1361  -22.2397   38.7020 C   0  0  0  0  0  0  0  0  0  0  0  0
   37.7775  -22.0164   39.1197 N   0  0  0  0  0  0  0  0  0  0  0  0
   36.8704  -21.0305   38.7285 C   0  0  0  0  0  0  0  0  0  0  0  0
   36.3791  -20.2637   39.6423 O   0  0  0  0  0  0  0  0  0  0  0  0
   36.8833  -22.4583   36.2718 H   0  0  0  0  0  0  0  0  0  0  0  0
   41.4332  -21.5088   33.7968 H   0  0  0  0  0  0  0  0  0  0  0  0
   37.4248  -22.7177   39.8462 H   0  0  0  0  0  0  0  0  0  0  0  0
   34.0499  -20.3035   36.4837 C   0  0  0  0  0  0  0  0  0  0  0  0
   34.9053  -21.2015   37.3511 C   0  0  0  0  0  0  0  0  0  0  0  0
   34.7925  -22.6499   37.0189 C   0  0  0  0  0  0  0  0  0  0  0  0
   43.2241  -19.8256   35.1011 C   0  0  0  0  0  0  0  0  0  0  0  0
   44.1483  -19.9930   36.2261 C   0  0  0  0  0  0  0  0  0  0  0  0
   44.1510  -18.8068   37.1403 C   0  0  0  0  0  0  0  0  0  0  0  0
   44.5393  -17.5633   36.5921 N   0  0  0  0  0  0  0  0  0  0  0  0
   45.5248  -17.4904   36.2007 H   0  0  0  0  0  0  0  0  0  0  0  0
   43.7941  -16.3686   36.4843 C   0  0  0  0  0  0  0  0  0  0  0  0
   43.3886  -15.5999   37.6039 N   0  0  0  0  0  0  0  0  0  0  0  0
   43.4455  -15.9081   35.3049 N   0  0  0  0  0  0  0  0  0  0  0  0
   42.4753  -15.7535   38.0738 H   0  0  0  0  0  0  0  0  0  0  0  0
   44.0165  -14.8677   37.9624 H   0  0  0  0  0  0  0  0  0  0  0  0
   43.7274  -16.4399   34.4454 H   0  0  0  0  0  0  0  0  0  0  0  0
   40.0239  -22.4574   39.9653 C   0  0  0  0  0  0  0  0  0  0  0  0
   41.0452  -21.3935   40.0780 C   0  0  0  0  0  0  0  0  0  0  0  0
   42.3862  -21.9547   40.4468 C   0  0  0  0  0  0  0  0  0  0  0  0
   42.4370  -22.9186   41.4804 N   0  0  0  0  0  0  0  0  0  0  0  0
   42.1789  -22.6049   42.4717 H   0  0  0  0  0  0  0  0  0  0  0  0
   42.7920  -24.2796   41.3712 C   0  0  0  0  0  0  0  0  0  0  0  0
   43.3597  -25.0363   42.4570 N   0  0  0  0  0  0  0  0  0  0  0  0
   42.6362  -24.9350   40.2746 N   0  0  0  0  0  0  0  0  0  0  0  0
   42.6700  -25.5566   43.0461 H   0  0  0  0  0  0  0  0  0  0  0  0
   44.3849  -25.0678   42.6487 H   0  0  0  0  0  0  0  0  0  0  0  0
   42.2387  -24.4416   39.4556 H   0  0  0  0  0  0  0  0  0  0  0  0
 30 31  1  0  0  0
 31 32  1  0  0  0
 31  1  1  0  0  0
  1  2  1  0  0  0
  2  3  1  0  0  0
  3  4  2  0  0  0
  3  5  1  0  0  0
  5  6  1  0  0  0
  6  7  1  0  0  0
  7  8  1  0  0  0
  8  9  1  0  0  0
  9 10  1  0  0  0
 10 11  2  0  0  0
 10 12  1  0  0  0
 12 33  1  0  0  0
 33 34  1  0  0  0
 34 35  1  0  0  0
 35 36  1  0  0  0
 36 38  1  0  0  0
 38 39  1  0  0  0
 38 40  2  0  0  0
 12 13  1  0  0  0
 13 14  1  0  0  0
 14 15  2  0  0  0
 14 16  1  0  0  0
 16 17  1  0  0  0
 17 18  1  0  0  0
 18 19  1  0  0  0
 19 20  1  0  0  0
 20 21  1  0  0  0
 21 22  2  0  0  0
 21 23  1  0  0  0
 23 44  1  0  0  0
 44 45  1  0  0  0
 45 46  1  0  0  0
 46 47  1  0  0  0
 47 49  1  0  0  0
 49 50  1  0  0  0
 49 51  2  0  0  0
 23 24  1  0  0  0
 24 25  1  0  0  0
 25 26  2  0  0  0
 25  1  1  0  0  0
  9  5  1  0  0  0
 20 16  1  0  0  0
  2 27  1  0  0  0
 36 37  1  0  0  0
 39 41  1  0  0  0
 39 42  1  0  0  0
 40 43  1  0  0  0
 13 28  1  0  0  0
 47 48  1  0  0  0
 50 52  1  0  0  0
 50 53  1  0  0  0
 51 54  1  0  0  0
 24 29  1  0  0  0
M  END
> <minimizedAffinity>
-3.46707

> <CNNscore>
0.3753824830

> <CNNaffinity>
5.5347719193

> <CNN_VS>
2.0776565075

> <CNNaffinity_variance>
0.8196372986

$$$$
[H]N=C(N([H])[H])N([H])C([H])([H])C([H])([H])C([H])([H])[C@@]1([H])C(=O)N2C([H])([H])C([H])([H])C([H])([H])[C@@]2([H])C(=O)N([H])[C@@]([H])(C([H])([H])C([H])([H])C([H])([H])N([H])C(=N[H])N([H])[H])C(=O)N2C([H])([H])C([H])([H])C([H])([H])[C@@]2([H])C(=O)N([H])[C@@]([H])(C([H])(C([H])([H])[H])C([H])([H])[H])C(=O)N1[H]


 54 56  0  0  0  0  0  0  0  0999 V2000
   38.3564  -19.4717   36.0557 C   0  0  0  0  0  0  0  0  0  0  0  0
   37.7085  -20.7086   35.7480 N   0  0  0  0  0  0  0  0  0  0  0  0
   37.5508  -21.7946   36.6521 C   0  0  0  0  0  0  0  0  0  0  0  0
   37.2289  -22.9077   36.1757 O   0  0  0  0  0  0  0  0  0  0  0  0
   37.7404  -21.7047   38.1063 C   0  0  0  0  0  0  0  0  0  0  0  0
   39.2459  -21.7977   38.3165 C   0  0  0  0  0  0  0  0  0  0  0  0
   39.4294  -22.9591   39.2111 C   0  0  0  0  0  0  0  0  0  0  0  0
   38.2424  -23.8311   38.8535 C   0  0  0  0  0  0  0  0  0  0  0  0
   37.1811  -22.7804   38.8860 N   0  0  0  0  0  0  0  0  0  0  0  0
   35.9605  -22.8496   39.5684 C   0  0  0  0  0  0  0  0  0  0  0  0
   36.0158  -23.2424   40.8105 O   0  0  0  0  0  0  0  0  0  0  0  0
   34.5843  -22.5448   39.1108 C   0  0  0  0  0  0  0  0  0  0  0  0
   34.2057  -23.1728   37.8835 N   0  0  0  0  0  0  0  0  0  0  0  0
   33.4102  -22.6884   36.8478 C   0  0  0  0  0  0  0  0  0  0  0  0
   32.9410  -23.5638   36.0291 O   0  0  0  0  0  0  0  0  0  0  0  0
   33.0232  -21.3079   36.5506 C   0  0  0  0  0  0  0  0  0  0  0  0
   31.4927  -21.2390   36.4138 C   0  0  0  0  0  0  0  0  0  0  0  0
   31.2713  -21.7441   35.0159 C   0  0  0  0  0  0  0  0  0  0  0  0
   32.5652  -21.5162   34.3106 C   0  0  0  0  0  0  0  0  0  0  0  0
   33.4142  -20.7914   35.2805 N   0  0  0  0  0  0  0  0  0  0  0  0
   34.3995  -19.8014   35.1258 C   0  0  0  0  0  0  0  0  0  0  0  0
   34.8403  -19.6307   33.9475 O   0  0  0  0  0  0  0  0  0  0  0  0
   34.9752  -18.9408   36.1838 C   0  0  0  0  0  0  0  0  0  0  0  0
   36.1187  -18.2044   35.7146 N   0  0  0  0  0  0  0  0  0  0  0  0
   37.4580  -18.2891   36.0982 C   0  0  0  0  0  0  0  0  0  0  0  0
   38.0254  -17.2234   36.5528 O   0  0  0  0  0  0  0  0  0  0  0  0
   37.3375  -20.7983   34.7704 H   0  0  0  0  0  0  0  0  0  0  0  0
   34.6070  -24.1591   37.7666 H   0  0  0  0  0  0  0  0  0  0  0  0
   35.8908  -17.4805   34.9609 H   0  0  0  0  0  0  0  0  0  0  0  0
   40.7782  -19.2536   35.4041 C   0  0  0  0  0  0  0  0  0  0  0  0
   39.3484  -19.1879   34.9123 C   0  0  0  0  0  0  0  0  0  0  0  0
   39.0792  -20.0388   33.7188 C   0  0  0  0  0  0  0  0  0  0  0  0
   33.6266  -23.1587   40.1708 C   0  0  0  0  0  0  0  0  0  0  0  0
   32.6187  -22.2255   40.6813 C   0  0  0  0  0  0  0  0  0  0  0  0
   32.8181  -21.9119   42.1321 C   0  0  0  0  0  0  0  0  0  0  0  0
   33.8174  -20.9688   42.4630 N   0  0  0  0  0  0  0  0  0  0  0  0
   34.7621  -21.3478   42.7692 H   0  0  0  0  0  0  0  0  0  0  0  0
   33.7472  -19.5585   42.4487 C   0  0  0  0  0  0  0  0  0  0  0  0
   34.8910  -18.7222   42.4107 N   0  0  0  0  0  0  0  0  0  0  0  0
   32.5827  -18.9516   42.4630 N   0  0  0  0  0  0  0  0  0  0  0  0
   35.3461  -18.3742   43.2770 H   0  0  0  0  0  0  0  0  0  0  0  0
   35.2827  -18.4508   41.4987 H   0  0  0  0  0  0  0  0  0  0  0  0
   31.7066  -19.5287   42.4858 H   0  0  0  0  0  0  0  0  0  0  0  0
   33.8201  -17.9391   36.4903 C   0  0  0  0  0  0  0  0  0  0  0  0
   33.6496  -16.9794   35.3778 C   0  0  0  0  0  0  0  0  0  0  0  0
   33.7536  -15.5609   35.8537 C   0  0  0  0  0  0  0  0  0  0  0  0
   34.9614  -15.1578   36.4691 N   0  0  0  0  0  0  0  0  0  0  0  0
   35.7672  -15.8631   36.5019 H   0  0  0  0  0  0  0  0  0  0  0  0
   35.2513  -13.9103   37.0607 C   0  0  0  0  0  0  0  0  0  0  0  0
   36.4194  -13.1343   36.7331 N   0  0  0  0  0  0  0  0  0  0  0  0
   34.4821  -13.3864   37.9496 N   0  0  0  0  0  0  0  0  0  0  0  0
   36.2854  -12.4248   35.9768 H   0  0  0  0  0  0  0  0  0  0  0  0
   37.3374  -13.2652   37.2116 H   0  0  0  0  0  0  0  0  0  0  0  0
   33.6296  -13.9019   38.2320 H   0  0  0  0  0  0  0  0  0  0  0  0
 30 31  1  0  0  0
 31 32  1  0  0  0
 31  1  1  0  0  0
  1  2  1  0  0  0
  2  3  1  0  0  0
  3  4  2  0  0  0
  3  5  1  0  0  0
  5  6  1  0  0  0
  6  7  1  0  0  0
  7  8  1  0  0  0
  8  9  1  0  0  0
  9 10  1  0  0  0
 10 11  2  0  0  0
 10 12  1  0  0  0
 12 33  1  0  0  0
 33 34  1  0  0  0
 34 35  1  0  0  0
 35 36  1  0  0  0
 36 38  1  0  0  0
 38 39  1  0  0  0
 38 40  2  0  0  0
 12 13  1  0  0  0
 13 14  1  0  0  0
 14 15  2  0  0  0
 14 16  1  0  0  0
 16 17  1  0  0  0
 17 18  1  0  0  0
 18 19  1  0  0  0
 19 20  1  0  0  0
 20 21  1  0  0  0
 21 22  2  0  0  0
 21 23  1  0  0  0
 23 44  1  0  0  0
 44 45  1  0  0  0
 45 46  1  0  0  0
 46 47  1  0  0  0
 47 49  1  0  0  0
 49 50  1  0  0  0
 49 51  2  0  0  0
 23 24  1  0  0  0
 24 25  1  0  0  0
 25 26  2  0  0  0
 25  1  1  0  0  0
  9  5  1  0  0  0
 20 16  1  0  0  0
  2 27  1  0  0  0
 36 37  1  0  0  0
 39 41  1  0  0  0
 39 42  1  0  0  0
 40 43  1  0  0  0
 13 28  1  0  0  0
 47 48  1  0  0  0
 50 52  1  0  0  0
 50 53  1  0  0  0
 51 54  1  0  0  0
 24 29  1  0  0  0
M  END
> <minimizedAffinity>
-4.76005

> <CNNscore>
0.3715647459

> <CNNaffinity>
5.9546308517

> <CNN_VS>
2.2125308514

> <CNNaffinity_variance>
0.4914969802

$$$$
[H]OC(=O)C([H])([H])[C@@]([H])(C(=O)N([H])[C@]([H])(C(=O)N([H])[H])C([H])([H])c1c([H])c([H])c([H])c([H])c1[H])N([H])C(=O)[C@@]([H])(N([H])C(=O)[C@@]([H])(N([H])C(=O)[C@@]([H])(N([H])C(=O)[C@@]([H])(N([H])[H])C([H])([H])c1c([H])c([H])c(O[H])c([H])c1[H])C([H])([H])C([H])(C([H])([H])[H])C([H])([H])[H])C([H])([H])C([H])([H])C(=O)N([H])[H])C([H])([H])C([H])(C([H])([H])[H])C([H])([H])[H]


 70 71  0  0  0  0  0  0  0  0999 V2000
   34.3246  -12.8519   36.1624 N   0  0  0  0  0  0  0  0  0  0  0  0
   33.7704  -12.4888   37.3878 C   0  0  0  0  0  0  0  0  0  0  0  0
   33.9555  -13.1655   38.4171 O   0  0  0  0  0  0  0  0  0  0  0  0
   34.0351  -12.1421   35.3602 H   0  0  0  0  0  0  0  0  0  0  0  0
   32.9378  -11.2815   37.5257 C   0  0  0  0  0  0  0  0  0  0  0  0
   31.7353  -11.5075   38.2833 N   0  0  0  0  0  0  0  0  0  0  0  0
   30.4075  -11.2879   37.8874 C   0  0  0  0  0  0  0  0  0  0  0  0
   30.1270  -10.8230   36.7368 O   0  0  0  0  0  0  0  0  0  0  0  0
   31.9024  -11.8848   39.2641 H   0  0  0  0  0  0  0  0  0  0  0  0
   29.3193  -11.5970   38.8286 C   0  0  0  0  0  0  0  0  0  0  0  0
   29.7133  -11.8606   40.1970 N   0  0  0  0  0  0  0  0  0  0  0  0
   29.4448  -13.1537   40.7480 C   0  0  0  0  0  0  0  0  0  0  0  0
   28.8706  -13.9513   39.8682 O   0  0  0  0  0  0  0  0  0  0  0  0
   30.1502  -11.1047   40.7261 H   0  0  0  0  0  0  0  0  0  0  0  0
   29.6718  -13.7086   42.0442 C   0  0  0  0  0  0  0  0  0  0  0  0
   29.2663  -12.6785   43.0488 N   0  0  0  0  0  0  0  0  0  0  0  0
   28.2266  -12.5396   43.0109 H   0  0  0  0  0  0  0  0  0  0  0  0
   29.7655  -11.7922   42.8152 H   0  0  0  0  0  0  0  0  0  0  0  0
   28.9476  -14.9400   42.4085 C   0  0  0  0  0  0  0  0  0  0  0  0
   29.7354  -15.9546   43.1011 C   0  0  0  0  0  0  0  0  0  0  0  0
   30.4164  -15.7180   44.2803 C   0  0  0  0  0  0  0  0  0  0  0  0
   31.1429  -16.7668   44.8067 C   0  0  0  0  0  0  0  0  0  0  0  0
   31.1996  -17.9993   44.2009 C   0  0  0  0  0  0  0  0  0  0  0  0
   31.9086  -19.0589   44.6905 O   0  0  0  0  0  0  0  0  0  0  0  0
   30.5018  -18.2200   43.0048 C   0  0  0  0  0  0  0  0  0  0  0  0
   29.7836  -17.2014   42.4750 C   0  0  0  0  0  0  0  0  0  0  0  0
   32.4525  -19.0474   45.5287 H   0  0  0  0  0  0  0  0  0  0  0  0
   28.1384  -10.6919   38.6867 C   0  0  0  0  0  0  0  0  0  0  0  0
   27.8937   -9.6906   39.7236 C   0  0  0  0  0  0  0  0  0  0  0  0
   28.7626   -8.4651   39.3772 C   0  0  0  0  0  0  0  0  0  0  0  0
   26.5355   -9.1942   39.9830 C   0  0  0  0  0  0  0  0  0  0  0  0
   33.6426  -10.0291   37.8749 C   0  0  0  0  0  0  0  0  0  0  0  0
   33.5613   -8.8960   36.9010 C   0  0  0  0  0  0  0  0  0  0  0  0
   34.7776   -8.8965   36.0171 C   0  0  0  0  0  0  0  0  0  0  0  0
   35.1241   -7.7137   35.3367 N   0  0  0  0  0  0  0  0  0  0  0  0
   35.4782   -9.9225   35.8843 O   0  0  0  0  0  0  0  0  0  0  0  0
   36.0764   -7.2859   35.3847 H   0  0  0  0  0  0  0  0  0  0  0  0
   34.4047   -7.2289   34.7545 H   0  0  0  0  0  0  0  0  0  0  0  0
   35.1312  -13.8812   35.7003 C   0  0  0  0  0  0  0  0  0  0  0  0
   34.3853  -15.2203   35.8162 C   0  0  0  0  0  0  0  0  0  0  0  0
   33.2345  -15.0781   36.3009 O   0  0  0  0  0  0  0  0  0  0  0  0
   34.9756  -16.3806   35.4209 N   0  0  0  0  0  0  0  0  0  0  0  0
   33.9538  -17.1210   35.9834 H   0  0  0  0  0  0  0  0  0  0  0  0
   35.5826  -17.5825   35.0133 C   0  0  0  0  0  0  0  0  0  0  0  0
   34.6593  -18.7336   35.2050 C   0  0  0  0  0  0  0  0  0  0  0  0
   34.8429  -19.7659   34.4771 O   0  0  0  0  0  0  0  0  0  0  0  0
   33.5894  -18.8316   36.1281 N   0  0  0  0  0  0  0  0  0  0  0  0
   33.4009  -18.0009   36.7265 H   0  0  0  0  0  0  0  0  0  0  0  0
   32.7705  -19.9954   36.3001 C   0  0  0  0  0  0  0  0  0  0  0  0
   33.3891  -21.0647   37.1474 C   0  0  0  0  0  0  0  0  0  0  0  0
   34.1907  -22.0353   36.5401 N   0  0  0  0  0  0  0  0  0  0  0  0
   33.1789  -21.0712   38.3692 O   0  0  0  0  0  0  0  0  0  0  0  0
   35.1573  -21.8788   36.2058 H   0  0  0  0  0  0  0  0  0  0  0  0
   33.7916  -22.9891   36.4128 H   0  0  0  0  0  0  0  0  0  0  0  0
   32.0546  -20.5254   35.1444 C   0  0  0  0  0  0  0  0  0  0  0  0
   30.8335  -21.3125   35.3964 C   0  0  0  0  0  0  0  0  0  0  0  0
   30.8160  -22.6719   35.1378 C   0  0  0  0  0  0  0  0  0  0  0  0
   29.7215  -23.4461   35.3289 C   0  0  0  0  0  0  0  0  0  0  0  0
   28.5354  -22.9017   35.8085 C   0  0  0  0  0  0  0  0  0  0  0  0
   28.5428  -21.5410   36.0721 C   0  0  0  0  0  0  0  0  0  0  0  0
   29.6484  -20.7788   35.8733 C   0  0  0  0  0  0  0  0  0  0  0  0
   36.8768  -17.6535   35.7632 C   0  0  0  0  0  0  0  0  0  0  0  0
   37.0348  -18.5215   36.8879 C   0  0  0  0  0  0  0  0  0  0  0  0
   36.0713  -18.4850   37.9363 O   0  0  0  0  0  0  0  0  0  0  0  0
   37.9516  -19.3308   37.0588 O   0  0  0  0  0  0  0  0  0  0  0  0
   36.3911  -18.1088   38.8336 H   0  0  0  0  0  0  0  0  0  0  0  0
   36.5529  -14.0615   36.0246 C   0  0  0  0  0  0  0  0  0  0  0  0
   38.4881  -13.2362   37.5102 C   0  0  0  0  0  0  0  0  0  0  0  0
   37.1171  -13.7665   37.3331 C   0  0  0  0  0  0  0  0  0  0  0  0
   37.0312  -14.9989   38.2722 C   0  0  0  0  0  0  0  0  0  0  0  0
 68 69  1  0  0  0
 69 70  1  0  0  0
 69 67  1  0  0  0
 67 39  1  0  0  0
 39  1  1  0  0  0
  1  2  1  0  0  0
  2  3  2  0  0  0
  2  5  1  0  0  0
  5 32  1  0  0  0
 32 33  1  0  0  0
 33 34  1  0  0  0
 34 35  1  0  0  0
 34 36  2  0  0  0
  5  6  1  0  0  0
  6  7  1  0  0  0
  7  8  2  0  0  0
  7 10  1  0  0  0
 10 28  1  0  0  0
 28 29  1  0  0  0
 29 30  1  0  0  0
 29 31  1  0  0  0
 10 11  1  0  0  0
 11 12  1  0  0  0
 12 13  2  0  0  0
 12 15  1  0  0  0
 15 16  1  0  0  0
 15 19  1  0  0  0
 19 20  1  0  0  0
 20 21  2  0  0  0
 21 22  1  0  0  0
 22 23  2  0  0  0
 23 24  1  0  0  0
 23 25  1  0  0  0
 25 26  2  0  0  0
 39 40  1  0  0  0
 40 41  2  0  0  0
 40 42  1  0  0  0
 42 44  1  0  0  0
 44 62  1  0  0  0
 62 63  1  0  0  0
 63 64  1  0  0  0
 63 65  2  0  0  0
 44 45  1  0  0  0
 45 46  2  0  0  0
 45 47  1  0  0  0
 47 49  1  0  0  0
 49 55  1  0  0  0
 55 56  1  0  0  0
 56 57  2  0  0  0
 57 58  1  0  0  0
 58 59  2  0  0  0
 59 60  1  0  0  0
 60 61  2  0  0  0
 49 50  1  0  0  0
 50 51  1  0  0  0
 50 52  2  0  0  0
 26 20  1  0  0  0
 61 56  1  0  0  0
  1  4  1  0  0  0
 35 37  1  0  0  0
 35 38  1  0  0  0
  6  9  1  0  0  0
 11 14  1  0  0  0
 16 17  1  0  0  0
 16 18  1  0  0  0
 24 27  1  0  0  0
 42 43  1  0  0  0
 64 66  1  0  0  0
 47 48  1  0  0  0
 51 53  1  0  0  0
 51 54  1  0  0  0
M  END
> <minimizedAffinity>
-8.41917

> <CNNscore>
0.3775313199

> <CNNaffinity>
7.7622618675

> <CNN_VS>
2.9304969311

> <CNNaffinity_variance>
0.1519651115

$$$$
[H]OC(=O)C([H])([H])[C@@]([H])(C(=O)N([H])[C@]([H])(C(=O)N([H])[H])C([H])([H])c1c([H])c([H])c([H])c([H])c1[H])N([H])C(=O)[C@@]([H])(N([H])C(=O)[C@@]([H])(N([H])C(=O)[C@@]([H])(N([H])C(=O)[C@@]([H])(N([H])[H])C([H])([H])c1c([H])c([H])c(O[H])c([H])c1[H])C([H])([H])C([H])(C([H])([H])[H])C([H])([H])[H])C([H])([H])C([H])([H])C(=O)N([H])[H])C([H])([H])C([H])(C([H])([H])[H])C([H])([H])[H]


 70 71  0  0  0  0  0  0  0  0999 V2000
   35.1907  -16.9651   35.9557 N   0  0  0  0  0  0  0  0  0  0  0  0
   34.5540  -15.7319   36.0768 C   0  0  0  0  0  0  0  0  0  0  0  0
   33.4519  -15.5079   35.5413 O   0  0  0  0  0  0  0  0  0  0  0  0
   36.1677  -16.9704   36.4815 H   0  0  0  0  0  0  0  0  0  0  0  0
   35.1551  -14.6308   36.8488 C   0  0  0  0  0  0  0  0  0  0  0  0
   34.1942  -13.6467   37.2723 N   0  0  0  0  0  0  0  0  0  0  0  0
   34.1883  -12.2697   37.0047 C   0  0  0  0  0  0  0  0  0  0  0  0
   35.1102  -11.7239   36.3184 O   0  0  0  0  0  0  0  0  0  0  0  0
   33.4014  -14.0383   37.8644 H   0  0  0  0  0  0  0  0  0  0  0  0
   33.0942  -11.4416   37.5363 C   0  0  0  0  0  0  0  0  0  0  0  0
   32.3598  -11.9945   38.6553 N   0  0  0  0  0  0  0  0  0  0  0  0
   30.9767  -12.3141   38.4735 C   0  0  0  0  0  0  0  0  0  0  0  0
   30.5737  -12.0624   37.2431 O   0  0  0  0  0  0  0  0  0  0  0  0
   32.8522  -12.1162   39.5412 H   0  0  0  0  0  0  0  0  0  0  0  0
   29.9875  -12.8296   39.3652 C   0  0  0  0  0  0  0  0  0  0  0  0
   30.3369  -12.3596   40.7406 N   0  0  0  0  0  0  0  0  0  0  0  0
   30.2135  -11.3189   40.7992 H   0  0  0  0  0  0  0  0  0  0  0  0
   31.3296  -12.6242   40.9249 H   0  0  0  0  0  0  0  0  0  0  0  0
   28.5833  -12.4379   39.1454 C   0  0  0  0  0  0  0  0  0  0  0  0
   28.2085  -11.1210   39.6503 C   0  0  0  0  0  0  0  0  0  0  0  0
   28.6107   -9.9362   39.0633 C   0  0  0  0  0  0  0  0  0  0  0  0
   28.2009   -8.7653   39.6681 C   0  0  0  0  0  0  0  0  0  0  0  0
   27.4271   -8.7562   40.8041 C   0  0  0  0  0  0  0  0  0  0  0  0
   27.0045   -7.6188   41.4311 O   0  0  0  0  0  0  0  0  0  0  0  0
   27.0290   -9.9687   41.3851 C   0  0  0  0  0  0  0  0  0  0  0  0
   27.4223  -11.1269   40.8038 C   0  0  0  0  0  0  0  0  0  0  0  0
   27.2120   -6.6881   41.1327 H   0  0  0  0  0  0  0  0  0  0  0  0
   33.4613  -10.0006   37.6867 C   0  0  0  0  0  0  0  0  0  0  0  0
   32.8372   -9.0214   36.7981 C   0  0  0  0  0  0  0  0  0  0  0  0
   31.5467   -8.5439   37.4934 C   0  0  0  0  0  0  0  0  0  0  0  0
   33.5670   -7.8187   36.3747 C   0  0  0  0  0  0  0  0  0  0  0  0
   36.1278  -15.0117   37.8956 C   0  0  0  0  0  0  0  0  0  0  0  0
   37.5804  -14.9622   37.5400 C   0  0  0  0  0  0  0  0  0  0  0  0
   38.0613  -13.5378   37.5623 C   0  0  0  0  0  0  0  0  0  0  0  0
   37.7227  -12.6891   36.4913 N   0  0  0  0  0  0  0  0  0  0  0  0
   38.7473  -13.1032   38.5118 O   0  0  0  0  0  0  0  0  0  0  0  0
   37.2718  -11.7556   36.6235 H   0  0  0  0  0  0  0  0  0  0  0  0
   37.9240  -12.9949   35.5128 H   0  0  0  0  0  0  0  0  0  0  0  0
   34.9118  -18.1727   35.3331 C   0  0  0  0  0  0  0  0  0  0  0  0
   36.2096  -18.9752   35.1468 C   0  0  0  0  0  0  0  0  0  0  0  0
   36.4343  -19.2333   33.9375 O   0  0  0  0  0  0  0  0  0  0  0  0
   36.9678  -19.3286   36.2198 N   0  0  0  0  0  0  0  0  0  0  0  0
   37.7471  -20.1511   35.4294 H   0  0  0  0  0  0  0  0  0  0  0  0
   37.7545  -19.6959   37.3267 C   0  0  0  0  0  0  0  0  0  0  0  0
   39.1853  -19.8264   36.9394 C   0  0  0  0  0  0  0  0  0  0  0  0
   39.8390  -18.7518   36.7222 O   0  0  0  0  0  0  0  0  0  0  0  0
   39.9303  -21.0225   36.7959 N   0  0  0  0  0  0  0  0  0  0  0  0
   39.4237  -21.9189   36.9497 H   0  0  0  0  0  0  0  0  0  0  0  0
   41.3259  -21.0752   36.4731 C   0  0  0  0  0  0  0  0  0  0  0  0
   41.6253  -21.6537   35.1242 C   0  0  0  0  0  0  0  0  0  0  0  0
   42.7367  -21.1887   34.4158 N   0  0  0  0  0  0  0  0  0  0  0  0
   40.8833  -22.5318   34.6599 O   0  0  0  0  0  0  0  0  0  0  0  0
   43.7188  -21.4339   34.6297 H   0  0  0  0  0  0  0  0  0  0  0  0
   42.5705  -20.5482   33.6111 H   0  0  0  0  0  0  0  0  0  0  0  0
   42.2669  -21.5069   37.5012 C   0  0  0  0  0  0  0  0  0  0  0  0
   42.5623  -20.5670   38.5982 C   0  0  0  0  0  0  0  0  0  0  0  0
   42.4714  -20.9832   39.9149 C   0  0  0  0  0  0  0  0  0  0  0  0
   42.7101  -20.1642   40.9667 C   0  0  0  0  0  0  0  0  0  0  0  0
   43.0700  -18.8355   40.7710 C   0  0  0  0  0  0  0  0  0  0  0  0
   43.1654  -18.4089   39.4558 C   0  0  0  0  0  0  0  0  0  0  0  0
   42.9209  -19.2426   38.4127 C   0  0  0  0  0  0  0  0  0  0  0  0
   37.1146  -20.9306   37.8823 C   0  0  0  0  0  0  0  0  0  0  0  0
   35.9931  -20.8507   38.7650 C   0  0  0  0  0  0  0  0  0  0  0  0
   35.5378  -22.0303   39.4208 O   0  0  0  0  0  0  0  0  0  0  0  0
   35.3485  -19.8318   39.0315 O   0  0  0  0  0  0  0  0  0  0  0  0
   34.6258  -22.3905   39.1251 H   0  0  0  0  0  0  0  0  0  0  0  0
   34.0337  -18.3486   34.1683 C   0  0  0  0  0  0  0  0  0  0  0  0
   31.8655  -18.7535   35.4980 C   0  0  0  0  0  0  0  0  0  0  0  0
   32.6748  -18.8605   34.2628 C   0  0  0  0  0  0  0  0  0  0  0  0
   32.6096  -20.3577   33.8600 C   0  0  0  0  0  0  0  0  0  0  0  0
 68 69  1  0  0  0
 69 70  1  0  0  0
 69 67  1  0  0  0
 67 39  1  0  0  0
 39  1  1  0  0  0
  1  2  1  0  0  0
  2  3  2  0  0  0
  2  5  1  0  0  0
  5 32  1  0  0  0
 32 33  1  0  0  0
 33 34  1  0  0  0
 34 35  1  0  0  0
 34 36  2  0  0  0
  5  6  1  0  0  0
  6  7  1  0  0  0
  7  8  2  0  0  0
  7 10  1  0  0  0
 10 28  1  0  0  0
 28 29  1  0  0  0
 29 30  1  0  0  0
 29 31  1  0  0  0
 10 11  1  0  0  0
 11 12  1  0  0  0
 12 13  2  0  0  0
 12 15  1  0  0  0
 15 16  1  0  0  0
 15 19  1  0  0  0
 19 20  1  0  0  0
 20 21  2  0  0  0
 21 22  1  0  0  0
 22 23  2  0  0  0
 23 24  1  0  0  0
 23 25  1  0  0  0
 25 26  2  0  0  0
 39 40  1  0  0  0
 40 41  2  0  0  0
 40 42  1  0  0  0
 42 44  1  0  0  0
 44 62  1  0  0  0
 62 63  1  0  0  0
 63 64  1  0  0  0
 63 65  2  0  0  0
 44 45  1  0  0  0
 45 46  2  0  0  0
 45 47  1  0  0  0
 47 49  1  0  0  0
 49 55  1  0  0  0
 55 56  1  0  0  0
 56 57  2  0  0  0
 57 58  1  0  0  0
 58 59  2  0  0  0
 59 60  1  0  0  0
 60 61  2  0  0  0
 49 50  1  0  0  0
 50 51  1  0  0  0
 50 52  2  0  0  0
 26 20  1  0  0  0
 61 56  1  0  0  0
  1  4  1  0  0  0
 35 37  1  0  0  0
 35 38  1  0  0  0
  6  9  1  0  0  0
 11 14  1  0  0  0
 16 17  1  0  0  0
 16 18  1  0  0  0
 24 27  1  0  0  0
 42 43  1  0  0  0
 64 66  1  0  0  0
 47 48  1  0  0  0
 51 53  1  0  0  0
 51 54  1  0  0  0
M  END
> <minimizedAffinity>
-8.02559

> <CNNscore>
0.3420534134

> <CNNaffinity>
7.6219434738

> <CNN_VS>
2.6071116924

> <CNNaffinity_variance>
0.0440289266

$$$$
[H]OC(=O)C([H])([H])[C@@]([H])(C(=O)N([H])[C@]([H])(C(=O)N([H])[H])C([H])([H])c1c([H])c([H])c([H])c([H])c1[H])N([H])C(=O)[C@@]([H])(N([H])C(=O)[C@@]([H])(N([H])C(=O)[C@@]([H])(N([H])C(=O)[C@@]([H])(N([H])[H])C([H])([H])c1c([H])c([H])c(O[H])c([H])c1[H])C([H])([H])C([H])(C([H])([H])[H])C([H])([H])[H])C([H])([H])C([H])([H])C(=O)N([H])[H])C([H])([H])C([H])(C([H])([H])[H])C([H])([H])[H]


 70 71  0  0  0  0  0  0  0  0999 V2000
   34.3590  -12.7497   36.1727 N   0  0  0  0  0  0  0  0  0  0  0  0
   33.7623  -12.3884   37.3785 C   0  0  0  0  0  0  0  0  0  0  0  0
   33.9112  -13.0666   38.4126 O   0  0  0  0  0  0  0  0  0  0  0  0
   34.0977  -12.0388   35.3619 H   0  0  0  0  0  0  0  0  0  0  0  0
   32.9253  -11.1813   37.4890 C   0  0  0  0  0  0  0  0  0  0  0  0
   31.7869  -11.3595   38.3510 N   0  0  0  0  0  0  0  0  0  0  0  0
   30.4269  -11.2514   38.0242 C   0  0  0  0  0  0  0  0  0  0  0  0
   30.0499  -10.9525   36.8464 O   0  0  0  0  0  0  0  0  0  0  0  0
   32.0356  -11.5987   39.3577 H   0  0  0  0  0  0  0  0  0  0  0  0
   29.4184  -11.4832   39.0705 C   0  0  0  0  0  0  0  0  0  0  0  0
   29.8859  -12.1371   40.2752 N   0  0  0  0  0  0  0  0  0  0  0  0
   29.4695  -13.4828   40.5274 C   0  0  0  0  0  0  0  0  0  0  0  0
   28.7031  -13.9477   39.5598 O   0  0  0  0  0  0  0  0  0  0  0  0
   30.4799  -11.6046   40.9122 H   0  0  0  0  0  0  0  0  0  0  0  0
   29.7210  -14.3758   41.6131 C   0  0  0  0  0  0  0  0  0  0  0  0
   30.1997  -13.5539   42.7664 N   0  0  0  0  0  0  0  0  0  0  0  0
   29.4180  -12.9457   43.1140 H   0  0  0  0  0  0  0  0  0  0  0  0
   30.9991  -12.9718   42.4324 H   0  0  0  0  0  0  0  0  0  0  0  0
   28.5964  -15.1800   42.1251 C   0  0  0  0  0  0  0  0  0  0  0  0
   28.9638  -16.3277   42.9481 C   0  0  0  0  0  0  0  0  0  0  0  0
   29.8390  -17.3141   42.5343 C   0  0  0  0  0  0  0  0  0  0  0  0
   30.0712  -18.3550   43.4104 C   0  0  0  0  0  0  0  0  0  0  0  0
   29.4687  -18.4262   44.6438 C   0  0  0  0  0  0  0  0  0  0  0  0
   29.6722  -19.4405   45.5355 O   0  0  0  0  0  0  0  0  0  0  0  0
   28.5835  -17.4157   45.0458 C   0  0  0  0  0  0  0  0  0  0  0  0
   28.3451  -16.3868   44.1981 C   0  0  0  0  0  0  0  0  0  0  0  0
   30.2719  -20.2253   45.3850 H   0  0  0  0  0  0  0  0  0  0  0  0
   28.5308  -10.3046   39.3092 C   0  0  0  0  0  0  0  0  0  0  0  0
   27.0864  -10.5184   39.3849 C   0  0  0  0  0  0  0  0  0  0  0  0
   26.7182  -11.4965   38.2515 C   0  0  0  0  0  0  0  0  0  0  0  0
   26.4665  -11.0323   40.6137 C   0  0  0  0  0  0  0  0  0  0  0  0
   33.6366   -9.9001   37.6884 C   0  0  0  0  0  0  0  0  0  0  0  0
   33.1071   -8.6972   36.9731 C   0  0  0  0  0  0  0  0  0  0  0  0
   34.1743   -8.1243   36.0823 C   0  0  0  0  0  0  0  0  0  0  0  0
   35.2108   -8.9657   35.6354 N   0  0  0  0  0  0  0  0  0  0  0  0
   34.1496   -6.9242   35.7354 O   0  0  0  0  0  0  0  0  0  0  0  0
   35.4695   -9.0667   34.6280 H   0  0  0  0  0  0  0  0  0  0  0  0
   35.7539   -9.5230   36.3326 H   0  0  0  0  0  0  0  0  0  0  0  0
   35.1813  -13.7784   35.7376 C   0  0  0  0  0  0  0  0  0  0  0  0
   34.4578  -15.1257   35.8937 C   0  0  0  0  0  0  0  0  0  0  0  0
   33.2786  -14.9824   36.3040 O   0  0  0  0  0  0  0  0  0  0  0  0
   35.0936  -16.2931   35.6037 N   0  0  0  0  0  0  0  0  0  0  0  0
   34.0569  -17.0227   36.1528 H   0  0  0  0  0  0  0  0  0  0  0  0
   35.7475  -17.5023   35.3049 C   0  0  0  0  0  0  0  0  0  0  0  0
   34.7815  -18.6339   35.2773 C   0  0  0  0  0  0  0  0  0  0  0  0
   34.8772  -19.4690   34.3167 O   0  0  0  0  0  0  0  0  0  0  0  0
   33.7581  -18.9122   36.2161 N   0  0  0  0  0  0  0  0  0  0  0  0
   33.6412  -18.2417   37.0038 H   0  0  0  0  0  0  0  0  0  0  0  0
   32.8946  -20.0550   36.1599 C   0  0  0  0  0  0  0  0  0  0  0  0
   31.4876  -19.7451   35.7499 C   0  0  0  0  0  0  0  0  0  0  0  0
   31.2452  -18.6366   34.9340 N   0  0  0  0  0  0  0  0  0  0  0  0
   30.5646  -20.4743   36.1415 O   0  0  0  0  0  0  0  0  0  0  0  0
   31.4452  -18.5943   33.9197 H   0  0  0  0  0  0  0  0  0  0  0  0
   30.8314  -17.7874   35.3733 H   0  0  0  0  0  0  0  0  0  0  0  0
   32.9730  -21.0454   37.2285 C   0  0  0  0  0  0  0  0  0  0  0  0
   34.2766  -21.2379   37.8903 C   0  0  0  0  0  0  0  0  0  0  0  0
   35.2414  -22.0406   37.3073 C   0  0  0  0  0  0  0  0  0  0  0  0
   36.4494  -22.2733   37.8734 C   0  0  0  0  0  0  0  0  0  0  0  0
   36.7890  -21.7013   39.0943 C   0  0  0  0  0  0  0  0  0  0  0  0
   35.8301  -20.8943   39.6861 C   0  0  0  0  0  0  0  0  0  0  0  0
   34.6230  -20.6728   39.1059 C   0  0  0  0  0  0  0  0  0  0  0  0
   36.8568  -17.6168   36.3043 C   0  0  0  0  0  0  0  0  0  0  0  0
   37.9420  -18.5257   36.1057 C   0  0  0  0  0  0  0  0  0  0  0  0
   38.7797  -18.3712   34.9640 O   0  0  0  0  0  0  0  0  0  0  0  0
   38.2450  -19.4688   36.8430 O   0  0  0  0  0  0  0  0  0  0  0  0
   38.7124  -19.1019   34.2497 H   0  0  0  0  0  0  0  0  0  0  0  0
   36.6065  -13.9261   36.0626 C   0  0  0  0  0  0  0  0  0  0  0  0
   38.5564  -13.1572   37.5592 C   0  0  0  0  0  0  0  0  0  0  0  0
   37.1628  -13.6207   37.3721 C   0  0  0  0  0  0  0  0  0  0  0  0
   36.9959  -14.8175   38.3458 C   0  0  0  0  0  0  0  0  0  0  0  0
 68 69  1  0  0  0
 69 70  1  0  0  0
 69 67  1  0  0  0
 67 39  1  0  0  0
 39  1  1  0  0  0
  1  2  1  0  0  0
  2  3  2  0  0  0
  2  5  1  0  0  0
  5 32  1  0  0  0
 32 33  1  0  0  0
 33 34  1  0  0  0
 34 35  1  0  0  0
 34 36  2  0  0  0
  5  6  1  0  0  0
  6  7  1  0  0  0
  7  8  2  0  0  0
  7 10  1  0  0  0
 10 28  1  0  0  0
 28 29  1  0  0  0
 29 30  1  0  0  0
 29 31  1  0  0  0
 10 11  1  0  0  0
 11 12  1  0  0  0
 12 13  2  0  0  0
 12 15  1  0  0  0
 15 16  1  0  0  0
 15 19  1  0  0  0
 19 20  1  0  0  0
 20 21  2  0  0  0
 21 22  1  0  0  0
 22 23  2  0  0  0
 23 24  1  0  0  0
 23 25  1  0  0  0
 25 26  2  0  0  0
 39 40  1  0  0  0
 40 41  2  0  0  0
 40 42  1  0  0  0
 42 44  1  0  0  0
 44 62  1  0  0  0
 62 63  1  0  0  0
 63 64  1  0  0  0
 63 65  2  0  0  0
 44 45  1  0  0  0
 45 46  2  0  0  0
 45 47  1  0  0  0
 47 49  1  0  0  0
 49 55  1  0  0  0
 55 56  1  0  0  0
 56 57  2  0  0  0
 57 58  1  0  0  0
 58 59  2  0  0  0
 59 60  1  0  0  0
 60 61  2  0  0  0
 49 50  1  0  0  0
 50 51  1  0  0  0
 50 52  2  0  0  0
 26 20  1  0  0  0
 61 56  1  0  0  0
  1  4  1  0  0  0
 35 37  1  0  0  0
 35 38  1  0  0  0
  6  9  1  0  0  0
 11 14  1  0  0  0
 16 17  1  0  0  0
 16 18  1  0  0  0
 24 27  1  0  0  0
 42 43  1  0  0  0
 64 66  1  0  0  0
 47 48  1  0  0  0
 51 53  1  0  0  0
 51 54  1  0  0  0
M  END
> <minimizedAffinity>
-8.34553

> <CNNscore>
0.2762429714

> <CNNaffinity>
7.5870804787

> <CNN_VS>
2.0958776474

> <CNNaffinity_variance>
0.1764091551

$$$$
[H]OC(=O)C([H])([H])[C@@]([H])(C(=O)N([H])[C@]([H])(C(=O)N([H])[H])C([H])([H])c1c([H])c([H])c([H])c([H])c1[H])N([H])C(=O)[C@@]([H])(N([H])C(=O)[C@@]([H])(N([H])C(=O)[C@@]([H])(N([H])C(=O)[C@@]([H])(N([H])[H])C([H])([H])c1c([H])c([H])c(O[H])c([H])c1[H])C([H])([H])C([H])(C([H])([H])[H])C([H])([H])[H])C([H])([H])C([H])([H])C(=O)N([H])[H])C([H])([H])C([H])(C([H])([H])[H])C([H])([H])[H]


 70 71  0  0  0  0  0  0  0  0999 V2000
   33.2784  -12.9040   36.7293 N   0  0  0  0  0  0  0  0  0  0  0  0
   32.6286  -12.3221   37.8154 C   0  0  0  0  0  0  0  0  0  0  0  0
   32.8341  -12.7034   38.9833 O   0  0  0  0  0  0  0  0  0  0  0  0
   32.9543  -12.4481   35.7710 H   0  0  0  0  0  0  0  0  0  0  0  0
   31.6655  -11.2224   37.6340 C   0  0  0  0  0  0  0  0  0  0  0  0
   30.5540  -11.2880   38.5458 N   0  0  0  0  0  0  0  0  0  0  0  0
   29.1840  -11.2784   38.2444 C   0  0  0  0  0  0  0  0  0  0  0  0
   28.7698  -11.1937   37.0443 O   0  0  0  0  0  0  0  0  0  0  0  0
   30.8340  -11.3466   39.5708 H   0  0  0  0  0  0  0  0  0  0  0  0
   28.2085  -11.3618   39.3430 C   0  0  0  0  0  0  0  0  0  0  0  0
   28.5095  -12.3112   40.3943 N   0  0  0  0  0  0  0  0  0  0  0  0
   27.5861  -13.3772   40.6368 C   0  0  0  0  0  0  0  0  0  0  0  0
   26.5633  -13.3378   39.8049 O   0  0  0  0  0  0  0  0  0  0  0  0
   29.3615  -12.1717   40.9392 H   0  0  0  0  0  0  0  0  0  0  0  0
   27.5736  -14.4337   41.5977 C   0  0  0  0  0  0  0  0  0  0  0  0
   26.1724  -14.9484   41.6781 N   0  0  0  0  0  0  0  0  0  0  0  0
   25.9189  -15.4224   40.7766 H   0  0  0  0  0  0  0  0  0  0  0  0
   25.5439  -14.1342   41.8560 H   0  0  0  0  0  0  0  0  0  0  0  0
   28.4258  -15.6102   41.3466 C   0  0  0  0  0  0  0  0  0  0  0  0
   29.2973  -16.0055   42.4484 C   0  0  0  0  0  0  0  0  0  0  0  0
   29.5968  -15.1820   43.5173 C   0  0  0  0  0  0  0  0  0  0  0  0
   30.4586  -15.6819   44.4724 C   0  0  0  0  0  0  0  0  0  0  0  0
   31.0055  -16.9398   44.3832 C   0  0  0  0  0  0  0  0  0  0  0  0
   31.8625  -17.4670   45.3067 O   0  0  0  0  0  0  0  0  0  0  0  0
   30.6896  -17.7605   43.2910 C   0  0  0  0  0  0  0  0  0  0  0  0
   29.8451  -17.2853   42.3450 C   0  0  0  0  0  0  0  0  0  0  0  0
   32.1764  -16.9986   46.1315 H   0  0  0  0  0  0  0  0  0  0  0  0
   27.7466  -10.0255   39.8277 C   0  0  0  0  0  0  0  0  0  0  0  0
   26.3606   -9.8807   40.2702 C   0  0  0  0  0  0  0  0  0  0  0  0
   26.3618   -8.8513   41.4178 C   0  0  0  0  0  0  0  0  0  0  0  0
   25.3100   -9.4720   39.3280 C   0  0  0  0  0  0  0  0  0  0  0  0
   32.2334   -9.8663   37.4740 C   0  0  0  0  0  0  0  0  0  0  0  0
   33.7221   -9.7288   37.5369 C   0  0  0  0  0  0  0  0  0  0  0  0
   34.1874   -8.7530   36.4919 C   0  0  0  0  0  0  0  0  0  0  0  0
   35.3022   -9.0860   35.6991 N   0  0  0  0  0  0  0  0  0  0  0  0
   33.6000   -7.6639   36.3190 O   0  0  0  0  0  0  0  0  0  0  0  0
   35.2893   -9.0550   34.6546 H   0  0  0  0  0  0  0  0  0  0  0  0
   36.1902   -9.3818   36.1635 H   0  0  0  0  0  0  0  0  0  0  0  0
   34.2126  -13.9137   36.5522 C   0  0  0  0  0  0  0  0  0  0  0  0
   33.6615  -14.9694   35.5801 C   0  0  0  0  0  0  0  0  0  0  0  0
   32.9139  -14.4611   34.7071 O   0  0  0  0  0  0  0  0  0  0  0  0
   33.9908  -16.2820   35.7205 N   0  0  0  0  0  0  0  0  0  0  0  0
   33.0484  -16.6448   34.7779 H   0  0  0  0  0  0  0  0  0  0  0  0
   34.3289  -17.6402   35.8624 C   0  0  0  0  0  0  0  0  0  0  0  0
   35.7681  -17.8624   35.5564 C   0  0  0  0  0  0  0  0  0  0  0  0
   36.4369  -16.8714   35.1092 O   0  0  0  0  0  0  0  0  0  0  0  0
   36.5056  -19.0605   35.7203 N   0  0  0  0  0  0  0  0  0  0  0  0
   35.9871  -19.8936   36.0677 H   0  0  0  0  0  0  0  0  0  0  0  0
   37.9087  -19.1917   35.4575 C   0  0  0  0  0  0  0  0  0  0  0  0
   38.2537  -19.3308   34.0064 C   0  0  0  0  0  0  0  0  0  0  0  0
   38.0895  -18.2312   33.1596 N   0  0  0  0  0  0  0  0  0  0  0  0
   38.6766  -20.4164   33.5824 O   0  0  0  0  0  0  0  0  0  0  0  0
   38.7181  -17.4100   33.1288 H   0  0  0  0  0  0  0  0  0  0  0  0
   37.2766  -18.2331   32.5080 H   0  0  0  0  0  0  0  0  0  0  0  0
   38.7047  -20.0591   36.3194 C   0  0  0  0  0  0  0  0  0  0  0  0
   40.0112  -19.5547   36.7806 C   0  0  0  0  0  0  0  0  0  0  0  0
   40.5047  -19.9295   38.0180 C   0  0  0  0  0  0  0  0  0  0  0  0
   41.6870  -19.4858   38.5070 C   0  0  0  0  0  0  0  0  0  0  0  0
   42.4833  -18.6147   37.7718 C   0  0  0  0  0  0  0  0  0  0  0  0
   41.9987  -18.2343   36.5302 C   0  0  0  0  0  0  0  0  0  0  0  0
   40.8103  -18.6870   36.0555 C   0  0  0  0  0  0  0  0  0  0  0  0
   33.3570  -18.3880   35.0030 C   0  0  0  0  0  0  0  0  0  0  0  0
   33.4736  -19.7993   34.8081 C   0  0  0  0  0  0  0  0  0  0  0  0
   33.4674  -20.3220   33.4831 O   0  0  0  0  0  0  0  0  0  0  0  0
   33.5820  -20.6496   35.6968 O   0  0  0  0  0  0  0  0  0  0  0  0
   32.6461  -20.8725   33.2164 H   0  0  0  0  0  0  0  0  0  0  0  0
   34.9813  -14.5616   37.6238 C   0  0  0  0  0  0  0  0  0  0  0  0
   37.1656  -13.3097   37.0813 C   0  0  0  0  0  0  0  0  0  0  0  0
   36.3918  -14.2984   37.8660 C   0  0  0  0  0  0  0  0  0  0  0  0
   37.2246  -15.6066   37.8102 C   0  0  0  0  0  0  0  0  0  0  0  0
 68 69  1  0  0  0
 69 70  1  0  0  0
 69 67  1  0  0  0
 67 39  1  0  0  0
 39  1  1  0  0  0
  1  2  1  0  0  0
  2  3  2  0  0  0
  2  5  1  0  0  0
  5 32  1  0  0  0
 32 33  1  0  0  0
 33 34  1  0  0  0
 34 35  1  0  0  0
 34 36  2  0  0  0
  5  6  1  0  0  0
  6  7  1  0  0  0
  7  8  2  0  0  0
  7 10  1  0  0  0
 10 28  1  0  0  0
 28 29  1  0  0  0
 29 30  1  0  0  0
 29 31  1  0  0  0
 10 11  1  0  0  0
 11 12  1  0  0  0
 12 13  2  0  0  0
 12 15  1  0  0  0
 15 16  1  0  0  0
 15 19  1  0  0  0
 19 20  1  0  0  0
 20 21  2  0  0  0
 21 22  1  0  0  0
 22 23  2  0  0  0
 23 24  1  0  0  0
 23 25  1  0  0  0
 25 26  2  0  0  0
 39 40  1  0  0  0
 40 41  2  0  0  0
 40 42  1  0  0  0
 42 44  1  0  0  0
 44 62  1  0  0  0
 62 63  1  0  0  0
 63 64  1  0  0  0
 63 65  2  0  0  0
 44 45  1  0  0  0
 45 46  2  0  0  0
 45 47  1  0  0  0
 47 49  1  0  0  0
 49 55  1  0  0  0
 55 56  1  0  0  0
 56 57  2  0  0  0
 57 58  1  0  0  0
 58 59  2  0  0  0
 59 60  1  0  0  0
 60 61  2  0  0  0
 49 50  1  0  0  0
 50 51  1  0  0  0
 50 52  2  0  0  0
 26 20  1  0  0  0
 61 56  1  0  0  0
  1  4  1  0  0  0
 35 37  1  0  0  0
 35 38  1  0  0  0
  6  9  1  0  0  0
 11 14  1  0  0  0
 16 17  1  0  0  0
 16 18  1  0  0  0
 24 27  1  0  0  0
 42 43  1  0  0  0
 64 66  1  0  0  0
 47 48  1  0  0  0
 51 53  1  0  0  0
 51 54  1  0  0  0
M  END
> <minimizedAffinity>
-8.31885

> <CNNscore>
0.2734335661

> <CNNaffinity>
7.6027932167

> <CNN_VS>
2.0788588524

> <CNNaffinity_variance>
0.2602614760

$$$$
[H]OC(=O)C([H])([H])[C@@]([H])(C(=O)N([H])[C@]([H])(C(=O)N([H])[H])C([H])([H])c1c([H])c([H])c([H])c([H])c1[H])N([H])C(=O)[C@@]([H])(N([H])C(=O)[C@@]([H])(N([H])C(=O)[C@@]([H])(N([H])C(=O)[C@@]([H])(N([H])[H])C([H])([H])c1c([H])c([H])c(O[H])c([H])c1[H])C([H])([H])C([H])(C([H])([H])[H])C([H])([H])[H])C([H])([H])C([H])([H])C(=O)N([H])[H])C([H])([H])C([H])(C([H])([H])[H])C([H])([H])[H]


 70 71  0  0  0  0  0  0  0  0999 V2000
   34.3006  -12.9828   36.1901 N   0  0  0  0  0  0  0  0  0  0  0  0
   33.6396  -12.7010   37.3836 C   0  0  0  0  0  0  0  0  0  0  0  0
   33.7292  -13.4496   38.3751 O   0  0  0  0  0  0  0  0  0  0  0  0
   34.0865  -12.2161   35.4172 H   0  0  0  0  0  0  0  0  0  0  0  0
   32.8017  -11.4984   37.5311 C   0  0  0  0  0  0  0  0  0  0  0  0
   31.6306  -11.7206   38.3374 N   0  0  0  0  0  0  0  0  0  0  0  0
   30.2892  -11.4858   38.0006 C   0  0  0  0  0  0  0  0  0  0  0  0
   29.9641  -11.0083   36.8670 O   0  0  0  0  0  0  0  0  0  0  0  0
   31.8361  -12.1081   39.3069 H   0  0  0  0  0  0  0  0  0  0  0  0
   29.2394  -11.7938   38.9848 C   0  0  0  0  0  0  0  0  0  0  0  0
   29.4007  -13.0272   39.7265 N   0  0  0  0  0  0  0  0  0  0  0  0
   28.3730  -14.0189   39.6346 C   0  0  0  0  0  0  0  0  0  0  0  0
   27.4000  -13.6423   38.8277 O   0  0  0  0  0  0  0  0  0  0  0  0
   30.2342  -13.1347   40.3061 H   0  0  0  0  0  0  0  0  0  0  0  0
   28.2171  -15.2969   40.2525 C   0  0  0  0  0  0  0  0  0  0  0  0
   27.7851  -16.2569   39.1911 N   0  0  0  0  0  0  0  0  0  0  0  0
   28.5673  -16.4001   38.5060 H   0  0  0  0  0  0  0  0  0  0  0  0
   26.9488  -15.8514   38.7163 H   0  0  0  0  0  0  0  0  0  0  0  0
   29.3959  -15.9049   40.8963 C   0  0  0  0  0  0  0  0  0  0  0  0
   29.4678  -15.7613   42.3467 C   0  0  0  0  0  0  0  0  0  0  0  0
   29.4120  -14.5426   42.9963 C   0  0  0  0  0  0  0  0  0  0  0  0
   29.5197  -14.5592   44.3721 C   0  0  0  0  0  0  0  0  0  0  0  0
   29.6762  -15.7249   45.0834 C   0  0  0  0  0  0  0  0  0  0  0  0
   29.7881  -15.7803   46.4434 O   0  0  0  0  0  0  0  0  0  0  0  0
   29.7306  -16.9517   44.4065 C   0  0  0  0  0  0  0  0  0  0  0  0
   29.6259  -16.9530   43.0562 C   0  0  0  0  0  0  0  0  0  0  0  0
   29.7684  -14.9893   47.0536 H   0  0  0  0  0  0  0  0  0  0  0  0
   28.8438  -10.6170   39.8169 C   0  0  0  0  0  0  0  0  0  0  0  0
   27.6239   -9.8902   39.4686 C   0  0  0  0  0  0  0  0  0  0  0  0
   26.4530  -10.6294   40.1462 C   0  0  0  0  0  0  0  0  0  0  0  0
   27.4789   -8.4653   39.7960 C   0  0  0  0  0  0  0  0  0  0  0  0
   33.5077  -10.2339   37.8308 C   0  0  0  0  0  0  0  0  0  0  0  0
   32.9600   -8.9777   37.2300 C   0  0  0  0  0  0  0  0  0  0  0  0
   33.9868   -8.3576   36.3234 C   0  0  0  0  0  0  0  0  0  0  0  0
   35.0565   -9.1501   35.8654 N   0  0  0  0  0  0  0  0  0  0  0  0
   33.9001   -7.1614   35.9733 O   0  0  0  0  0  0  0  0  0  0  0  0
   35.3066   -9.2422   34.8549 H   0  0  0  0  0  0  0  0  0  0  0  0
   35.6348   -9.6782   36.5570 H   0  0  0  0  0  0  0  0  0  0  0  0
   35.1422  -13.9849   35.7308 C   0  0  0  0  0  0  0  0  0  0  0  0
   34.4150  -15.3385   35.7770 C   0  0  0  0  0  0  0  0  0  0  0  0
   33.2214  -15.2453   35.3946 O   0  0  0  0  0  0  0  0  0  0  0  0
   35.0601  -16.4594   36.1994 N   0  0  0  0  0  0  0  0  0  0  0  0
   33.8720  -17.1640   36.2234 H   0  0  0  0  0  0  0  0  0  0  0  0
   35.7236  -17.6207   36.6356 C   0  0  0  0  0  0  0  0  0  0  0  0
   36.9047  -17.9096   35.7778 C   0  0  0  0  0  0  0  0  0  0  0  0
   36.9663  -17.3295   34.6425 O   0  0  0  0  0  0  0  0  0  0  0  0
   38.0000  -18.7548   36.0812 N   0  0  0  0  0  0  0  0  0  0  0  0
   37.9741  -19.2570   36.9927 H   0  0  0  0  0  0  0  0  0  0  0  0
   39.1370  -18.9464   35.2296 C   0  0  0  0  0  0  0  0  0  0  0  0
   38.8184  -19.5756   33.9080 C   0  0  0  0  0  0  0  0  0  0  0  0
   38.8127  -18.7796   32.7592 N   0  0  0  0  0  0  0  0  0  0  0  0
   38.5647  -20.7880   33.8562 O   0  0  0  0  0  0  0  0  0  0  0  0
   39.6594  -18.4309   32.2776 H   0  0  0  0  0  0  0  0  0  0  0  0
   37.8908  -18.5153   32.3523 H   0  0  0  0  0  0  0  0  0  0  0  0
   40.3755  -19.4470   35.8166 C   0  0  0  0  0  0  0  0  0  0  0  0
   41.6003  -18.6511   35.6151 C   0  0  0  0  0  0  0  0  0  0  0  0
   42.1101  -17.8845   36.6484 C   0  0  0  0  0  0  0  0  0  0  0  0
   43.2185  -17.1169   36.5213 C   0  0  0  0  0  0  0  0  0  0  0  0
   43.9168  -17.0626   35.3202 C   0  0  0  0  0  0  0  0  0  0  0  0
   43.4153  -17.8280   34.2792 C   0  0  0  0  0  0  0  0  0  0  0  0
   42.3016  -18.5908   34.4228 C   0  0  0  0  0  0  0  0  0  0  0  0
   34.6751  -18.6889   36.6821 C   0  0  0  0  0  0  0  0  0  0  0  0
   34.8533  -19.8680   37.4704 C   0  0  0  0  0  0  0  0  0  0  0  0
   33.7240  -20.4550   38.1101 O   0  0  0  0  0  0  0  0  0  0  0  0
   35.9206  -20.4568   37.6673 O   0  0  0  0  0  0  0  0  0  0  0  0
   33.7006  -20.3970   39.1323 H   0  0  0  0  0  0  0  0  0  0  0  0
   36.5527  -14.1526   36.1066 C   0  0  0  0  0  0  0  0  0  0  0  0
   38.4572  -13.1033   37.4867 C   0  0  0  0  0  0  0  0  0  0  0  0
   37.1024  -13.6895   37.3718 C   0  0  0  0  0  0  0  0  0  0  0  0
   37.0466  -14.8043   38.4498 C   0  0  0  0  0  0  0  0  0  0  0  0
 68 69  1  0  0  0
 69 70  1  0  0  0
 69 67  1  0  0  0
 67 39  1  0  0  0
 39  1  1  0  0  0
  1  2  1  0  0  0
  2  3  2  0  0  0
  2  5  1  0  0  0
  5 32  1  0  0  0
 32 33  1  0  0  0
 33 34  1  0  0  0
 34 35  1  0  0  0
 34 36  2  0  0  0
  5  6  1  0  0  0
  6  7  1  0  0  0
  7  8  2  0  0  0
  7 10  1  0  0  0
 10 28  1  0  0  0
 28 29  1  0  0  0
 29 30  1  0  0  0
 29 31  1  0  0  0
 10 11  1  0  0  0
 11 12  1  0  0  0
 12 13  2  0  0  0
 12 15  1  0  0  0
 15 16  1  0  0  0
 15 19  1  0  0  0
 19 20  1  0  0  0
 20 21  2  0  0  0
 21 22  1  0  0  0
 22 23  2  0  0  0
 23 24  1  0  0  0
 23 25  1  0  0  0
 25 26  2  0  0  0
 39 40  1  0  0  0
 40 41  2  0  0  0
 40 42  1  0  0  0
 42 44  1  0  0  0
 44 62  1  0  0  0
 62 63  1  0  0  0
 63 64  1  0  0  0
 63 65  2  0  0  0
 44 45  1  0  0  0
 45 46  2  0  0  0
 45 47  1  0  0  0
 47 49  1  0  0  0
 49 55  1  0  0  0
 55 56  1  0  0  0
 56 57  2  0  0  0
 57 58  1  0  0  0
 58 59  2  0  0  0
 59 60  1  0  0  0
 60 61  2  0  0  0
 49 50  1  0  0  0
 50 51  1  0  0  0
 50 52  2  0  0  0
 26 20  1  0  0  0
 61 56  1  0  0  0
  1  4  1  0  0  0
 35 37  1  0  0  0
 35 38  1  0  0  0
  6  9  1  0  0  0
 11 14  1  0  0  0
 16 17  1  0  0  0
 16 18  1  0  0  0
 24 27  1  0  0  0
 42 43  1  0  0  0
 64 66  1  0  0  0
 47 48  1  0  0  0
 51 53  1  0  0  0
 51 54  1  0  0  0
M  END
> <minimizedAffinity>
-8.66247

> <CNNscore>
0.2680838704

> <CNNaffinity>
7.5623116493

> <CNN_VS>
2.0273337364

> <CNNaffinity_variance>
0.2156160325

$$$$
[H]OC(=O)C([H])([H])[C@@]([H])(C(=O)N([H])[C@]([H])(C(=O)N([H])[H])C([H])([H])c1c([H])c([H])c([H])c([H])c1[H])N([H])C(=O)[C@@]([H])(N([H])C(=O)[C@@]([H])(N([H])C(=O)[C@@]([H])(N([H])C(=O)[C@@]([H])(N([H])[H])C([H])([H])c1c([H])c([H])c(O[H])c([H])c1[H])C([H])([H])C([H])(C([H])([H])[H])C([H])([H])[H])C([H])([H])C([H])([H])C(=O)N([H])[H])C([H])([H])C([H])(C([H])([H])[H])C([H])([H])[H]


 70 71  0  0  0  0  0  0  0  0999 V2000
   33.5365  -14.9729   36.0754 N   0  0  0  0  0  0  0  0  0  0  0  0
   33.7554  -14.0593   37.1040 C   0  0  0  0  0  0  0  0  0  0  0  0
   34.5231  -14.3112   38.0521 O   0  0  0  0  0  0  0  0  0  0  0  0
   32.8095  -14.5822   35.3339 H   0  0  0  0  0  0  0  0  0  0  0  0
   33.0884  -12.7460   37.1185 C   0  0  0  0  0  0  0  0  0  0  0  0
   31.9086  -12.7200   37.9421 N   0  0  0  0  0  0  0  0  0  0  0  0
   30.7071  -12.0329   37.7137 C   0  0  0  0  0  0  0  0  0  0  0  0
   30.5449  -11.3062   36.6820 O   0  0  0  0  0  0  0  0  0  0  0  0
   31.9849  -13.2995   38.8313 H   0  0  0  0  0  0  0  0  0  0  0  0
   29.6161  -12.1528   38.6939 C   0  0  0  0  0  0  0  0  0  0  0  0
   30.0142  -12.3029   40.0782 N   0  0  0  0  0  0  0  0  0  0  0  0
   29.6413  -13.4986   40.7703 C   0  0  0  0  0  0  0  0  0  0  0  0
   28.9781  -14.3296   39.9898 O   0  0  0  0  0  0  0  0  0  0  0  0
   30.5294  -11.5382   40.5164 H   0  0  0  0  0  0  0  0  0  0  0  0
   29.8451  -13.9293   42.1166 C   0  0  0  0  0  0  0  0  0  0  0  0
   29.4142  -12.8134   43.0131 N   0  0  0  0  0  0  0  0  0  0  0  0
   28.3748  -12.6858   42.9422 H   0  0  0  0  0  0  0  0  0  0  0  0
   29.9134  -11.9490   42.7080 H   0  0  0  0  0  0  0  0  0  0  0  0
   29.1201  -15.1267   42.5795 C   0  0  0  0  0  0  0  0  0  0  0  0
   29.9253  -16.1202   43.2825 C   0  0  0  0  0  0  0  0  0  0  0  0
   30.4710  -15.9119   44.5352 C   0  0  0  0  0  0  0  0  0  0  0  0
   31.2337  -16.9328   45.0651 C   0  0  0  0  0  0  0  0  0  0  0  0
   31.4532  -18.1117   44.3932 C   0  0  0  0  0  0  0  0  0  0  0  0
   32.2031  -19.1422   44.8842 O   0  0  0  0  0  0  0  0  0  0  0  0
   30.8912  -18.3042   43.1231 C   0  0  0  0  0  0  0  0  0  0  0  0
   30.1395  -17.3125   42.5888 C   0  0  0  0  0  0  0  0  0  0  0  0
   32.6638  -19.1452   45.7708 H   0  0  0  0  0  0  0  0  0  0  0  0
   28.5082  -11.1749   38.4697 C   0  0  0  0  0  0  0  0  0  0  0  0
   28.0564  -10.3572   39.5944 C   0  0  0  0  0  0  0  0  0  0  0  0
   28.6744   -8.9573   39.4074 C   0  0  0  0  0  0  0  0  0  0  0  0
   26.6235  -10.1627   39.8539 C   0  0  0  0  0  0  0  0  0  0  0  0
   33.9614  -11.5633   37.2802 C   0  0  0  0  0  0  0  0  0  0  0  0
   33.4119  -10.3977   38.0408 C   0  0  0  0  0  0  0  0  0  0  0  0
   33.3454   -9.1917   37.1454 C   0  0  0  0  0  0  0  0  0  0  0  0
   32.0864   -8.6424   36.8371 N   0  0  0  0  0  0  0  0  0  0  0  0
   34.3838   -8.6753   36.6803 O   0  0  0  0  0  0  0  0  0  0  0  0
   31.8568   -7.6315   36.9697 H   0  0  0  0  0  0  0  0  0  0  0  0
   31.3360   -9.2634   36.4591 H   0  0  0  0  0  0  0  0  0  0  0  0
   33.9900  -16.2453   35.7607 C   0  0  0  0  0  0  0  0  0  0  0  0
   35.5048  -16.3346   36.0065 C   0  0  0  0  0  0  0  0  0  0  0  0
   36.1213  -15.3595   35.5078 O   0  0  0  0  0  0  0  0  0  0  0  0
   36.0367  -17.3833   36.6909 N   0  0  0  0  0  0  0  0  0  0  0  0
   37.3160  -16.9892   36.3495 H   0  0  0  0  0  0  0  0  0  0  0  0
   36.5906  -18.4660   37.3981 C   0  0  0  0  0  0  0  0  0  0  0  0
   37.7592  -19.0313   36.6707 C   0  0  0  0  0  0  0  0  0  0  0  0
   38.1510  -20.2006   37.0003 O   0  0  0  0  0  0  0  0  0  0  0  0
   38.4946  -18.4238   35.6237 N   0  0  0  0  0  0  0  0  0  0  0  0
   38.2122  -17.4627   35.3406 H   0  0  0  0  0  0  0  0  0  0  0  0
   39.5794  -19.0489   34.9256 C   0  0  0  0  0  0  0  0  0  0  0  0
   39.1538  -19.9808   33.8328 C   0  0  0  0  0  0  0  0  0  0  0  0
   38.8962  -19.4642   32.5600 N   0  0  0  0  0  0  0  0  0  0  0  0
   39.0364  -21.1909   34.0757 O   0  0  0  0  0  0  0  0  0  0  0  0
   39.6216  -19.1635   31.8862 H   0  0  0  0  0  0  0  0  0  0  0  0
   37.9023  -19.3737   32.2612 H   0  0  0  0  0  0  0  0  0  0  0  0
   40.7112  -19.5522   35.6967 C   0  0  0  0  0  0  0  0  0  0  0  0
   41.8094  -18.6142   35.9940 C   0  0  0  0  0  0  0  0  0  0  0  0
   42.3748  -18.5822   37.2567 C   0  0  0  0  0  0  0  0  0  0  0  0
   43.3713  -17.7313   37.5985 C   0  0  0  0  0  0  0  0  0  0  0  0
   43.8897  -16.8296   36.6756 C   0  0  0  0  0  0  0  0  0  0  0  0
   43.3312  -16.8546   35.4074 C   0  0  0  0  0  0  0  0  0  0  0  0
   42.3313  -17.7130   35.0816 C   0  0  0  0  0  0  0  0  0  0  0  0
   35.4544  -19.4110   37.6402 C   0  0  0  0  0  0  0  0  0  0  0  0
   35.3595  -20.1600   38.8540 C   0  0  0  0  0  0  0  0  0  0  0  0
   36.2182  -21.2794   39.0503 O   0  0  0  0  0  0  0  0  0  0  0  0
   34.5835  -19.9361   39.7880 O   0  0  0  0  0  0  0  0  0  0  0  0
   35.7701  -22.2003   39.0510 H   0  0  0  0  0  0  0  0  0  0  0  0
   33.6242  -17.0078   34.5592 C   0  0  0  0  0  0  0  0  0  0  0  0
   32.3324  -18.8323   35.8380 C   0  0  0  0  0  0  0  0  0  0  0  0
   32.9585  -18.3009   34.6061 C   0  0  0  0  0  0  0  0  0  0  0  0
   33.8934  -19.4323   34.1020 C   0  0  0  0  0  0  0  0  0  0  0  0
 68 69  1  0  0  0
 69 70  1  0  0  0
 69 67  1  0  0  0
 67 39  1  0  0  0
 39  1  1  0  0  0
  1  2  1  0  0  0
  2  3  2  0  0  0
  2  5  1  0  0  0
  5 32  1  0  0  0
 32 33  1  0  0  0
 33 34  1  0  0  0
 34 35  1  0  0  0
 34 36  2  0  0  0
  5  6  1  0  0  0
  6  7  1  0  0  0
  7  8  2  0  0  0
  7 10  1  0  0  0
 10 28  1  0  0  0
 28 29  1  0  0  0
 29 30  1  0  0  0
 29 31  1  0  0  0
 10 11  1  0  0  0
 11 12  1  0  0  0
 12 13  2  0  0  0
 12 15  1  0  0  0
 15 16  1  0  0  0
 15 19  1  0  0  0
 19 20  1  0  0  0
 20 21  2  0  0  0
 21 22  1  0  0  0
 22 23  2  0  0  0
 23 24  1  0  0  0
 23 25  1  0  0  0
 25 26  2  0  0  0
 39 40  1  0  0  0
 40 41  2  0  0  0
 40 42  1  0  0  0
 42 44  1  0  0  0
 44 62  1  0  0  0
 62 63  1  0  0  0
 63 64  1  0  0  0
 63 65  2  0  0  0
 44 45  1  0  0  0
 45 46  2  0  0  0
 45 47  1  0  0  0
 47 49  1  0  0  0
 49 55  1  0  0  0
 55 56  1  0  0  0
 56 57  2  0  0  0
 57 58  1  0  0  0
 58 59  2  0  0  0
 59 60  1  0  0  0
 60 61  2  0  0  0
 49 50  1  0  0  0
 50 51  1  0  0  0
 50 52  2  0  0  0
 26 20  1  0  0  0
 61 56  1  0  0  0
  1  4  1  0  0  0
 35 37  1  0  0  0
 35 38  1  0  0  0
  6  9  1  0  0  0
 11 14  1  0  0  0
 16 17  1  0  0  0
 16 18  1  0  0  0
 24 27  1  0  0  0
 42 43  1  0  0  0
 64 66  1  0  0  0
 47 48  1  0  0  0
 51 53  1  0  0  0
 51 54  1  0  0  0
M  END
> <minimizedAffinity>
-8.71535

> <CNNscore>
0.2329178452

> <CNNaffinity>
7.2433319092

> <CNN_VS>
1.6871012449

> <CNNaffinity_variance>
0.2795100808

$$$$
[H]OC(=O)C([H])([H])[C@@]([H])(C(=O)N([H])[C@]([H])(C(=O)N([H])[H])C([H])([H])c1c([H])c([H])c([H])c([H])c1[H])N([H])C(=O)[C@@]([H])(N([H])C(=O)[C@@]([H])(N([H])C(=O)[C@@]([H])(N([H])C(=O)[C@@]([H])(N([H])[H])C([H])([H])c1c([H])c([H])c(O[H])c([H])c1[H])C([H])([H])C([H])(C([H])([H])[H])C([H])([H])[H])C([H])([H])C([H])([H])C(=O)N([H])[H])C([H])([H])C([H])(C([H])([H])[H])C([H])([H])[H]


 70 71  0  0  0  0  0  0  0  0999 V2000
   34.2637  -13.0732   36.1548 N   0  0  0  0  0  0  0  0  0  0  0  0
   33.6498  -12.7435   37.3611 C   0  0  0  0  0  0  0  0  0  0  0  0
   33.7998  -13.4381   38.3842 O   0  0  0  0  0  0  0  0  0  0  0  0
   33.9987  -12.3518   35.3545 H   0  0  0  0  0  0  0  0  0  0  0  0
   32.7926  -11.5520   37.4852 C   0  0  0  0  0  0  0  0  0  0  0  0
   31.5745  -11.8046   38.2088 N   0  0  0  0  0  0  0  0  0  0  0  0
   30.2612  -11.4848   37.8334 C   0  0  0  0  0  0  0  0  0  0  0  0
   30.0118  -10.8865   36.7386 O   0  0  0  0  0  0  0  0  0  0  0  0
   31.7162  -12.2926   39.1438 H   0  0  0  0  0  0  0  0  0  0  0  0
   29.1521  -11.8449   38.7310 C   0  0  0  0  0  0  0  0  0  0  0  0
   29.5188  -12.2256   40.0792 N   0  0  0  0  0  0  0  0  0  0  0  0
   29.1644  -13.5334   40.5400 C   0  0  0  0  0  0  0  0  0  0  0  0
   28.5468  -14.2308   39.6062 O   0  0  0  0  0  0  0  0  0  0  0  0
   29.9993  -11.5371   40.6599 H   0  0  0  0  0  0  0  0  0  0  0  0
   29.3464  -14.1885   41.7958 C   0  0  0  0  0  0  0  0  0  0  0  0
   30.4810  -13.5100   42.4938 N   0  0  0  0  0  0  0  0  0  0  0  0
   30.2000  -12.5332   42.7556 H   0  0  0  0  0  0  0  0  0  0  0  0
   31.2947  -13.4969   41.8402 H   0  0  0  0  0  0  0  0  0  0  0  0
   28.2219  -14.1860   42.7492 C   0  0  0  0  0  0  0  0  0  0  0  0
   27.5046  -12.9215   42.8766 C   0  0  0  0  0  0  0  0  0  0  0  0
   28.0201  -11.8139   43.5230 C   0  0  0  0  0  0  0  0  0  0  0  0
   27.2154  -10.6946   43.5887 C   0  0  0  0  0  0  0  0  0  0  0  0
   25.9545  -10.6623   43.0423 C   0  0  0  0  0  0  0  0  0  0  0  0
   25.1296   -9.5748   43.0893 O   0  0  0  0  0  0  0  0  0  0  0  0
   25.4489  -11.7961   42.3905 C   0  0  0  0  0  0  0  0  0  0  0  0
   26.2260  -12.9029   42.3167 C   0  0  0  0  0  0  0  0  0  0  0  0
   25.3546   -8.7020   43.5206 H   0  0  0  0  0  0  0  0  0  0  0  0
   27.9922  -10.9062   38.6454 C   0  0  0  0  0  0  0  0  0  0  0  0
   27.8426   -9.8805   39.6766 C   0  0  0  0  0  0  0  0  0  0  0  0
   28.8711   -8.7759   39.3624 C   0  0  0  0  0  0  0  0  0  0  0  0
   26.5506   -9.2152   39.8925 C   0  0  0  0  0  0  0  0  0  0  0  0
   33.4656  -10.2901   37.8618 C   0  0  0  0  0  0  0  0  0  0  0  0
   32.8505   -9.0109   37.3883 C   0  0  0  0  0  0  0  0  0  0  0  0
   33.7342   -8.3747   36.3515 C   0  0  0  0  0  0  0  0  0  0  0  0
   33.1470   -7.5598   35.3650 N   0  0  0  0  0  0  0  0  0  0  0  0
   34.9704   -8.5563   36.3580 O   0  0  0  0  0  0  0  0  0  0  0  0
   33.4705   -6.5871   35.1616 H   0  0  0  0  0  0  0  0  0  0  0  0
   32.3479   -7.9312   34.8037 H   0  0  0  0  0  0  0  0  0  0  0  0
   35.1065  -14.0806   35.7092 C   0  0  0  0  0  0  0  0  0  0  0  0
   34.3700  -15.4295   35.7431 C   0  0  0  0  0  0  0  0  0  0  0  0
   33.1959  -15.3364   35.3046 O   0  0  0  0  0  0  0  0  0  0  0  0
   34.9885  -16.5468   36.2125 N   0  0  0  0  0  0  0  0  0  0  0  0
   33.7965  -17.2449   36.1926 H   0  0  0  0  0  0  0  0  0  0  0  0
   35.6244  -17.7043   36.6971 C   0  0  0  0  0  0  0  0  0  0  0  0
   36.8894  -17.9626   35.9574 C   0  0  0  0  0  0  0  0  0  0  0  0
   37.1019  -17.2861   34.8961 O   0  0  0  0  0  0  0  0  0  0  0  0
   37.9157  -18.8752   36.3041 N   0  0  0  0  0  0  0  0  0  0  0  0
   37.7674  -19.4556   37.1555 H   0  0  0  0  0  0  0  0  0  0  0  0
   39.1392  -19.0354   35.5746 C   0  0  0  0  0  0  0  0  0  0  0  0
   38.9585  -19.2021   34.0969 C   0  0  0  0  0  0  0  0  0  0  0  0
   39.4555  -18.2199   33.2357 N   0  0  0  0  0  0  0  0  0  0  0  0
   38.3718  -20.2049   33.6644 O   0  0  0  0  0  0  0  0  0  0  0  0
   40.4546  -18.0917   32.9994 H   0  0  0  0  0  0  0  0  0  0  0  0
   38.7745  -17.5662   32.7950 H   0  0  0  0  0  0  0  0  0  0  0  0
   40.1742  -19.9042   36.1249 C   0  0  0  0  0  0  0  0  0  0  0  0
   41.2524  -19.2741   36.9090 C   0  0  0  0  0  0  0  0  0  0  0  0
   41.4414  -19.6196   38.2356 C   0  0  0  0  0  0  0  0  0  0  0  0
   42.3997  -19.0636   39.0144 C   0  0  0  0  0  0  0  0  0  0  0  0
   43.2627  -18.0987   38.5070 C   0  0  0  0  0  0  0  0  0  0  0  0
   43.0827  -17.7466   37.1786 C   0  0  0  0  0  0  0  0  0  0  0  0
   42.1158  -18.3126   36.4121 C   0  0  0  0  0  0  0  0  0  0  0  0
   34.5942  -18.7887   36.6249 C   0  0  0  0  0  0  0  0  0  0  0  0
   34.7936  -20.0447   37.2776 C   0  0  0  0  0  0  0  0  0  0  0  0
   34.0289  -20.3552   38.4386 O   0  0  0  0  0  0  0  0  0  0  0  0
   35.5882  -20.9250   36.9337 O   0  0  0  0  0  0  0  0  0  0  0  0
   34.5436  -20.3975   39.3230 H   0  0  0  0  0  0  0  0  0  0  0  0
   36.5094  -14.2572   36.1083 C   0  0  0  0  0  0  0  0  0  0  0  0
   38.3957  -13.1140   37.4381 C   0  0  0  0  0  0  0  0  0  0  0  0
   37.0566  -13.7400   37.3536 C   0  0  0  0  0  0  0  0  0  0  0  0
   37.0401  -14.8216   38.4661 C   0  0  0  0  0  0  0  0  0  0  0  0
 68 69  1  0  0  0
 69 70  1  0  0  0
 69 67  1  0  0  0
 67 39  1  0  0  0
 39  1  1  0  0  0
  1  2  1  0  0  0
  2  3  2  0  0  0
  2  5  1  0  0  0
  5 32  1  0  0  0
 32 33  1  0  0  0
 33 34  1  0  0  0
 34 35  1  0  0  0
 34 36  2  0  0  0
  5  6  1  0  0  0
  6  7  1  0  0  0
  7  8  2  0  0  0
  7 10  1  0  0  0
 10 28  1  0  0  0
 28 29  1  0  0  0
 29 30  1  0  0  0
 29 31  1  0  0  0
 10 11  1  0  0  0
 11 12  1  0  0  0
 12 13  2  0  0  0
 12 15  1  0  0  0
 15 16  1  0  0  0
 15 19  1  0  0  0
 19 20  1  0  0  0
 20 21  2  0  0  0
 21 22  1  0  0  0
 22 23  2  0  0  0
 23 24  1  0  0  0
 23 25  1  0  0  0
 25 26  2  0  0  0
 39 40  1  0  0  0
 40 41  2  0  0  0
 40 42  1  0  0  0
 42 44  1  0  0  0
 44 62  1  0  0  0
 62 63  1  0  0  0
 63 64  1  0  0  0
 63 65  2  0  0  0
 44 45  1  0  0  0
 45 46  2  0  0  0
 45 47  1  0  0  0
 47 49  1  0  0  0
 49 55  1  0  0  0
 55 56  1  0  0  0
 56 57  2  0  0  0
 57 58  1  0  0  0
 58 59  2  0  0  0
 59 60  1  0  0  0
 60 61  2  0  0  0
 49 50  1  0  0  0
 50 51  1  0  0  0
 50 52  2  0  0  0
 26 20  1  0  0  0
 61 56  1  0  0  0
  1  4  1  0  0  0
 35 37  1  0  0  0
 35 38  1  0  0  0
  6  9  1  0  0  0
 11 14  1  0  0  0
 16 17  1  0  0  0
 16 18  1  0  0  0
 24 27  1  0  0  0
 42 43  1  0  0  0
 64 66  1  0  0  0
 47 48  1  0  0  0
 51 53  1  0  0  0
 51 54  1  0  0  0
M  END
> <minimizedAffinity>
-8.48909

> <CNNscore>
0.2312795222

> <CNNaffinity>
7.5614256859

> <CNN_VS>
1.7488029003

> <CNNaffinity_variance>
0.0607980192

$$$$
[H]OC(=O)C([H])([H])[C@@]([H])(C(=O)N([H])[C@]([H])(C(=O)N([H])[H])C([H])([H])c1c([H])c([H])c([H])c([H])c1[H])N([H])C(=O)[C@@]([H])(N([H])C(=O)[C@@]([H])(N([H])C(=O)[C@@]([H])(N([H])C(=O)[C@@]([H])(N([H])[H])C([H])([H])c1c([H])c([H])c(O[H])c([H])c1[H])C([H])([H])C([H])(C([H])([H])[H])C([H])([H])[H])C([H])([H])C([H])([H])C(=O)N([H])[H])C([H])([H])C([H])(C([H])([H])[H])C([H])([H])[H]


 70 71  0  0  0  0  0  0  0  0999 V2000
   34.0265  -12.8083   36.1779 N   0  0  0  0  0  0  0  0  0  0  0  0
   33.6309  -12.2665   37.3988 C   0  0  0  0  0  0  0  0  0  0  0  0
   33.9532  -12.7887   38.4828 O   0  0  0  0  0  0  0  0  0  0  0  0
   33.6294  -12.2196   35.3253 H   0  0  0  0  0  0  0  0  0  0  0  0
   32.8113  -11.0445   37.4663 C   0  0  0  0  0  0  0  0  0  0  0  0
   31.6665  -11.1783   38.3281 N   0  0  0  0  0  0  0  0  0  0  0  0
   30.3087  -11.1441   37.9770 C   0  0  0  0  0  0  0  0  0  0  0  0
   29.9397  -10.9674   36.7723 O   0  0  0  0  0  0  0  0  0  0  0  0
   31.9079  -11.3154   39.3553 H   0  0  0  0  0  0  0  0  0  0  0  0
   29.2929  -11.3101   39.0287 C   0  0  0  0  0  0  0  0  0  0  0  0
   29.7157  -12.0166   40.2200 N   0  0  0  0  0  0  0  0  0  0  0  0
   29.1887  -13.3251   40.4613 C   0  0  0  0  0  0  0  0  0  0  0  0
   28.3752  -13.7106   39.4974 O   0  0  0  0  0  0  0  0  0  0  0  0
   30.3597  -11.5448   40.8562 H   0  0  0  0  0  0  0  0  0  0  0  0
   29.3748  -14.2499   41.5334 C   0  0  0  0  0  0  0  0  0  0  0  0
   30.2910  -13.6072   42.5245 N   0  0  0  0  0  0  0  0  0  0  0  0
   29.8071  -12.7915   42.9742 H   0  0  0  0  0  0  0  0  0  0  0  0
   31.1442  -13.2929   42.0120 H   0  0  0  0  0  0  0  0  0  0  0  0
   28.1870  -14.6779   42.2948 C   0  0  0  0  0  0  0  0  0  0  0  0
   27.8325  -16.0882   42.1720 C   0  0  0  0  0  0  0  0  0  0  0  0
   27.9549  -16.8060   40.9972 C   0  0  0  0  0  0  0  0  0  0  0  0
   27.5546  -18.1265   41.0240 C   0  0  0  0  0  0  0  0  0  0  0  0
   27.0537  -18.7202   42.1580 C   0  0  0  0  0  0  0  0  0  0  0  0
   26.6460  -20.0221   42.2219 O   0  0  0  0  0  0  0  0  0  0  0  0
   26.9370  -17.9754   43.3403 C   0  0  0  0  0  0  0  0  0  0  0  0
   27.3259  -16.6782   43.3313 C   0  0  0  0  0  0  0  0  0  0  0  0
   26.6693  -20.6688   41.4605 H   0  0  0  0  0  0  0  0  0  0  0  0
   28.5039  -10.0682   39.2914 C   0  0  0  0  0  0  0  0  0  0  0  0
   27.0914  -10.1967   39.6466 C   0  0  0  0  0  0  0  0  0  0  0  0
   26.5413   -8.7670   39.8208 C   0  0  0  0  0  0  0  0  0  0  0  0
   26.1575  -10.9116   38.7662 C   0  0  0  0  0  0  0  0  0  0  0  0
   33.5404   -9.7680   37.6280 C   0  0  0  0  0  0  0  0  0  0  0  0
   33.0685   -8.5963   36.8257 C   0  0  0  0  0  0  0  0  0  0  0  0
   34.2081   -8.0417   36.0167 C   0  0  0  0  0  0  0  0  0  0  0  0
   35.2498   -8.9055   35.6283 N   0  0  0  0  0  0  0  0  0  0  0  0
   34.2385   -6.8372   35.6860 O   0  0  0  0  0  0  0  0  0  0  0  0
   35.5730   -9.0010   34.6391 H   0  0  0  0  0  0  0  0  0  0  0  0
   35.7298   -9.4860   36.3523 H   0  0  0  0  0  0  0  0  0  0  0  0
   34.7769  -13.9010   35.7699 C   0  0  0  0  0  0  0  0  0  0  0  0
   34.0276  -15.2015   36.1021 C   0  0  0  0  0  0  0  0  0  0  0  0
   33.1154  -15.0169   36.9467 O   0  0  0  0  0  0  0  0  0  0  0  0
   34.3767  -16.3751   35.5090 N   0  0  0  0  0  0  0  0  0  0  0  0
   33.5550  -17.0812   36.3662 H   0  0  0  0  0  0  0  0  0  0  0  0
   34.7347  -17.5907   34.8980 C   0  0  0  0  0  0  0  0  0  0  0  0
   33.8489  -18.6949   35.3566 C   0  0  0  0  0  0  0  0  0  0  0  0
   32.6445  -18.3994   35.6586 O   0  0  0  0  0  0  0  0  0  0  0  0
   34.1820  -20.0656   35.4853 N   0  0  0  0  0  0  0  0  0  0  0  0
   35.1614  -20.3392   35.2629 H   0  0  0  0  0  0  0  0  0  0  0  0
   33.2612  -21.0903   35.8813 C   0  0  0  0  0  0  0  0  0  0  0  0
   33.8202  -22.0768   36.8602 C   0  0  0  0  0  0  0  0  0  0  0  0
   34.2981  -23.3039   36.3919 N   0  0  0  0  0  0  0  0  0  0  0  0
   33.8482  -21.7893   38.0658 O   0  0  0  0  0  0  0  0  0  0  0  0
   35.1956  -23.4378   35.8948 H   0  0  0  0  0  0  0  0  0  0  0  0
   33.7124  -24.1502   36.5530 H   0  0  0  0  0  0  0  0  0  0  0  0
   32.4226  -21.7108   34.8611 C   0  0  0  0  0  0  0  0  0  0  0  0
   31.0220  -22.0086   35.2132 C   0  0  0  0  0  0  0  0  0  0  0  0
   30.1730  -20.9910   35.6118 C   0  0  0  0  0  0  0  0  0  0  0  0
   28.8833  -21.2016   35.9669 C   0  0  0  0  0  0  0  0  0  0  0  0
   28.3350  -22.4792   35.9448 C   0  0  0  0  0  0  0  0  0  0  0  0
   29.1766  -23.5054   35.5456 C   0  0  0  0  0  0  0  0  0  0  0  0
   30.4679  -23.2774   35.1944 C   0  0  0  0  0  0  0  0  0  0  0  0
   36.1949  -17.7671   35.1796 C   0  0  0  0  0  0  0  0  0  0  0  0
   37.0432  -18.4781   34.2751 C   0  0  0  0  0  0  0  0  0  0  0  0
   36.5838  -19.6995   33.7040 O   0  0  0  0  0  0  0  0  0  0  0  0
   38.1762  -18.1380   33.9209 O   0  0  0  0  0  0  0  0  0  0  0  0
   37.0612  -20.5519   34.0113 H   0  0  0  0  0  0  0  0  0  0  0  0
   36.2192  -14.0749   35.9901 C   0  0  0  0  0  0  0  0  0  0  0  0
   38.1663  -13.4380   37.5508 C   0  0  0  0  0  0  0  0  0  0  0  0
   36.8357  -14.0400   37.3078 C   0  0  0  0  0  0  0  0  0  0  0  0
   36.9091  -15.4592   37.9310 C   0  0  0  0  0  0  0  0  0  0  0  0
 68 69  1  0  0  0
 69 70  1  0  0  0
 69 67  1  0  0  0
 67 39  1  0  0  0
 39  1  1  0  0  0
  1  2  1  0  0  0
  2  3  2  0  0  0
  2  5  1  0  0  0
  5 32  1  0  0  0
 32 33  1  0  0  0
 33 34  1  0  0  0
 34 35  1  0  0  0
 34 36  2  0  0  0
  5  6  1  0  0  0
  6  7  1  0  0  0
  7  8  2  0  0  0
  7 10  1  0  0  0
 10 28  1  0  0  0
 28 29  1  0  0  0
 29 30  1  0  0  0
 29 31  1  0  0  0
 10 11  1  0  0  0
 11 12  1  0  0  0
 12 13  2  0  0  0
 12 15  1  0  0  0
 15 16  1  0  0  0
 15 19  1  0  0  0
 19 20  1  0  0  0
 20 21  2  0  0  0
 21 22  1  0  0  0
 22 23  2  0  0  0
 23 24  1  0  0  0
 23 25  1  0  0  0
 25 26  2  0  0  0
 39 40  1  0  0  0
 40 41  2  0  0  0
 40 42  1  0  0  0
 42 44  1  0  0  0
 44 62  1  0  0  0
 62 63  1  0  0  0
 63 64  1  0  0  0
 63 65  2  0  0  0
 44 45  1  0  0  0
 45 46  2  0  0  0
 45 47  1  0  0  0
 47 49  1  0  0  0
 49 55  1  0  0  0
 55 56  1  0  0  0
 56 57  2  0  0  0
 57 58  1  0  0  0
 58 59  2  0  0  0
 59 60  1  0  0  0
 60 61  2  0  0  0
 49 50  1  0  0  0
 50 51  1  0  0  0
 50 52  2  0  0  0
 26 20  1  0  0  0
 61 56  1  0  0  0
  1  4  1  0  0  0
 35 37  1  0  0  0
 35 38  1  0  0  0
  6  9  1  0  0  0
 11 14  1  0  0  0
 16 17  1  0  0  0
 16 18  1  0  0  0
 24 27  1  0  0  0
 42 43  1  0  0  0
 64 66  1  0  0  0
 47 48  1  0  0  0
 51 53  1  0  0  0
 51 54  1  0  0  0
M  END
> <minimizedAffinity>
-8.78400

> <CNNscore>
0.2116792202

> <CNNaffinity>
7.4600648880

> <CNN_VS>
1.5791406631

> <CNNaffinity_variance>
0.2562632263

$$$$
[H]OC(=O)C([H])([H])[C@@]([H])(C(=O)N([H])[C@]([H])(C(=O)N([H])[H])C([H])([H])c1c([H])c([H])c([H])c([H])c1[H])N([H])C(=O)[C@@]([H])(N([H])C(=O)[C@@]([H])(N([H])C(=O)[C@@]([H])(N([H])C(=O)[C@@]([H])(N([H])[H])C([H])([H])c1c([H])c([H])c(O[H])c([H])c1[H])C([H])([H])C([H])(C([H])([H])[H])C([H])([H])[H])C([H])([H])C([H])([H])C(=O)N([H])[H])C([H])([H])C([H])(C([H])([H])[H])C([H])([H])[H]


 70 71  0  0  0  0  0  0  0  0999 V2000
   35.2634  -16.6204   35.6976 N   0  0  0  0  0  0  0  0  0  0  0  0
   34.4127  -15.5769   36.0553 C   0  0  0  0  0  0  0  0  0  0  0  0
   33.3060  -15.7864   36.5870 O   0  0  0  0  0  0  0  0  0  0  0  0
   36.1913  -16.2420   35.2211 H   0  0  0  0  0  0  0  0  0  0  0  0
   34.7840  -14.1705   35.8229 C   0  0  0  0  0  0  0  0  0  0  0  0
   34.0958  -13.2529   36.6922 N   0  0  0  0  0  0  0  0  0  0  0  0
   32.7903  -12.7549   36.5679 C   0  0  0  0  0  0  0  0  0  0  0  0
   32.0436  -13.0884   35.5932 O   0  0  0  0  0  0  0  0  0  0  0  0
   34.6732  -12.9236   37.5232 H   0  0  0  0  0  0  0  0  0  0  0  0
   32.2798  -11.8222   37.5852 C   0  0  0  0  0  0  0  0  0  0  0  0
   31.4921  -12.4069   38.6506 N   0  0  0  0  0  0  0  0  0  0  0  0
   30.0678  -12.2783   38.5965 C   0  0  0  0  0  0  0  0  0  0  0  0
   29.6752  -11.6328   37.5153 O   0  0  0  0  0  0  0  0  0  0  0  0
   31.9850  -12.8721   39.4139 H   0  0  0  0  0  0  0  0  0  0  0  0
   29.0333  -12.7025   39.4849 C   0  0  0  0  0  0  0  0  0  0  0  0
   29.2153  -14.1683   39.7156 N   0  0  0  0  0  0  0  0  0  0  0  0
   30.0987  -14.3325   40.2581 H   0  0  0  0  0  0  0  0  0  0  0  0
   29.2636  -14.6338   38.7827 H   0  0  0  0  0  0  0  0  0  0  0  0
   28.9701  -12.0846   40.8219 C   0  0  0  0  0  0  0  0  0  0  0  0
   27.8739  -11.1444   41.0320 C   0  0  0  0  0  0  0  0  0  0  0  0
   26.5935  -11.5310   41.3803 C   0  0  0  0  0  0  0  0  0  0  0  0
   25.6519  -10.5315   41.5187 C   0  0  0  0  0  0  0  0  0  0  0  0
   25.9536   -9.2048   41.3232 C   0  0  0  0  0  0  0  0  0  0  0  0
   25.0489   -8.1894   41.4490 O   0  0  0  0  0  0  0  0  0  0  0  0
   27.2585   -8.8322   40.9701 C   0  0  0  0  0  0  0  0  0  0  0  0
   28.1947   -9.8008   40.8307 C   0  0  0  0  0  0  0  0  0  0  0  0
   24.0868   -8.3049   41.6927 H   0  0  0  0  0  0  0  0  0  0  0  0
   33.2980  -10.8275   38.0410 C   0  0  0  0  0  0  0  0  0  0  0  0
   33.0819   -9.4136   37.7380 C   0  0  0  0  0  0  0  0  0  0  0  0
   34.1399   -9.0130   36.6907 C   0  0  0  0  0  0  0  0  0  0  0  0
   31.7832   -8.9425   37.2380 C   0  0  0  0  0  0  0  0  0  0  0  0
   36.2267  -13.8849   35.6673 C   0  0  0  0  0  0  0  0  0  0  0  0
   36.8608  -12.9669   36.6643 C   0  0  0  0  0  0  0  0  0  0  0  0
   37.6802  -13.7642   37.6409 C   0  0  0  0  0  0  0  0  0  0  0  0
   37.0892  -14.8705   38.2802 N   0  0  0  0  0  0  0  0  0  0  0  0
   38.8674  -13.4612   37.8855 O   0  0  0  0  0  0  0  0  0  0  0  0
   37.5184  -15.8234   38.2846 H   0  0  0  0  0  0  0  0  0  0  0  0
   36.1775  -14.7482   38.7758 H   0  0  0  0  0  0  0  0  0  0  0  0
   35.2295  -18.0046   35.7778 C   0  0  0  0  0  0  0  0  0  0  0  0
   36.5402  -18.5237   36.3908 C   0  0  0  0  0  0  0  0  0  0  0  0
   36.8932  -17.8476   37.3897 O   0  0  0  0  0  0  0  0  0  0  0  0
   37.1830  -19.5946   35.8514 N   0  0  0  0  0  0  0  0  0  0  0  0
   38.2844  -19.3692   36.6543 H   0  0  0  0  0  0  0  0  0  0  0  0
   37.8507  -20.7016   35.2966 C   0  0  0  0  0  0  0  0  0  0  0  0
   38.9223  -21.1854   36.2086 C   0  0  0  0  0  0  0  0  0  0  0  0
   40.0863  -21.3568   35.7139 O   0  0  0  0  0  0  0  0  0  0  0  0
   38.8092  -21.4687   37.5918 N   0  0  0  0  0  0  0  0  0  0  0  0
   37.8692  -21.3554   38.0245 H   0  0  0  0  0  0  0  0  0  0  0  0
   39.8990  -21.8801   38.4273 C   0  0  0  0  0  0  0  0  0  0  0  0
   40.1172  -23.3614   38.4710 C   0  0  0  0  0  0  0  0  0  0  0  0
   40.9138  -23.9610   37.4916 N   0  0  0  0  0  0  0  0  0  0  0  0
   39.5879  -24.0286   39.3720 O   0  0  0  0  0  0  0  0  0  0  0  0
   41.9466  -23.9093   37.4567 H   0  0  0  0  0  0  0  0  0  0  0  0
   40.4386  -24.5023   36.7389 H   0  0  0  0  0  0  0  0  0  0  0  0
   40.0651  -21.2398   39.7278 C   0  0  0  0  0  0  0  0  0  0  0  0
   41.1641  -20.2683   39.8782 C   0  0  0  0  0  0  0  0  0  0  0  0
   41.5642  -19.8595   41.1383 C   0  0  0  0  0  0  0  0  0  0  0  0
   42.5523  -18.9563   41.3427 C   0  0  0  0  0  0  0  0  0  0  0  0
   43.2313  -18.3847   40.2724 C   0  0  0  0  0  0  0  0  0  0  0  0
   42.8392  -18.7886   39.0059 C   0  0  0  0  0  0  0  0  0  0  0  0
   41.8452  -19.6940   38.8183 C   0  0  0  0  0  0  0  0  0  0  0  0
   38.3012  -20.2597   33.9385 C   0  0  0  0  0  0  0  0  0  0  0  0
   38.7609  -18.9259   33.7081 C   0  0  0  0  0  0  0  0  0  0  0  0
   37.8895  -17.9870   33.0851 O   0  0  0  0  0  0  0  0  0  0  0  0
   39.8748  -18.4800   33.9997 O   0  0  0  0  0  0  0  0  0  0  0  0
   38.1453  -17.6889   32.1393 H   0  0  0  0  0  0  0  0  0  0  0  0
   34.7727  -18.9093   34.7140 C   0  0  0  0  0  0  0  0  0  0  0  0
   32.9352  -20.4297   33.7417 C   0  0  0  0  0  0  0  0  0  0  0  0
   33.6806  -19.8558   34.8850 C   0  0  0  0  0  0  0  0  0  0  0  0
   32.5946  -19.2933   35.8400 C   0  0  0  0  0  0  0  0  0  0  0  0
 68 69  1  0  0  0
 69 70  1  0  0  0
 69 67  1  0  0  0
 67 39  1  0  0  0
 39  1  1  0  0  0
  1  2  1  0  0  0
  2  3  2  0  0  0
  2  5  1  0  0  0
  5 32  1  0  0  0
 32 33  1  0  0  0
 33 34  1  0  0  0
 34 35  1  0  0  0
 34 36  2  0  0  0
  5  6  1  0  0  0
  6  7  1  0  0  0
  7  8  2  0  0  0
  7 10  1  0  0  0
 10 28  1  0  0  0
 28 29  1  0  0  0
 29 30  1  0  0  0
 29 31  1  0  0  0
 10 11  1  0  0  0
 11 12  1  0  0  0
 12 13  2  0  0  0
 12 15  1  0  0  0
 15 16  1  0  0  0
 15 19  1  0  0  0
 19 20  1  0  0  0
 20 21  2  0  0  0
 21 22  1  0  0  0
 22 23  2  0  0  0
 23 24  1  0  0  0
 23 25  1  0  0  0
 25 26  2  0  0  0
 39 40  1  0  0  0
 40 41  2  0  0  0
 40 42  1  0  0  0
 42 44  1  0  0  0
 44 62  1  0  0  0
 62 63  1  0  0  0
 63 64  1  0  0  0
 63 65  2  0  0  0
 44 45  1  0  0  0
 45 46  2  0  0  0
 45 47  1  0  0  0
 47 49  1  0  0  0
 49 55  1  0  0  0
 55 56  1  0  0  0
 56 57  2  0  0  0
 57 58  1  0  0  0
 58 59  2  0  0  0
 59 60  1  0  0  0
 60 61  2  0  0  0
 49 50  1  0  0  0
 50 51  1  0  0  0
 50 52  2  0  0  0
 26 20  1  0  0  0
 61 56  1  0  0  0
  1  4  1  0  0  0
 35 37  1  0  0  0
 35 38  1  0  0  0
  6  9  1  0  0  0
 11 14  1  0  0  0
 16 17  1  0  0  0
 16 18  1  0  0  0
 24 27  1  0  0  0
 42 43  1  0  0  0
 64 66  1  0  0  0
 47 48  1  0  0  0
 51 53  1  0  0  0
 51 54  1  0  0  0
M  END
> <minimizedAffinity>
-7.12728

> <CNNscore>
0.2013866901

> <CNNaffinity>
7.0840034485

> <CNN_VS>
1.4266240597

> <CNNaffinity_variance>
0.2157339156

$$$$
[H]c1c([H])c([H])c(/C(=C2/C(=O)N([H])c3c([H])c(C(=O)OC([H])([H])[H])c([H])c([H])c32)N([H])c2c([H])c([H])c(N(C(=O)C([H])([H])N3C([H])([H])C([H])([H])N(C([H])([H])[H])C([H])([H])C3([H])[H])C([H])([H])[H])c([H])c2[H])c([H])c1[H]


 42 46  0  0  0  0  0  0  0  0999 V2000
   32.6826  -18.7147   43.9552 C   0  0  0  0  0  0  0  0  0  0  0  0
   32.6208  -19.2974   42.7268 C   0  0  0  0  0  0  0  0  0  0  0  0
   33.6634  -20.0789   42.2152 C   0  0  0  0  0  0  0  0  0  0  0  0
   34.7725  -20.2431   43.0008 C   0  0  0  0  0  0  0  0  0  0  0  0
   35.9907  -20.9985   42.7705 C   0  0  0  0  0  0  0  0  0  0  0  0
   36.3841  -21.6203   41.6912 C   0  0  0  0  0  0  0  0  0  0  0  0
   36.8028  -20.8152   44.0107 C   0  0  0  0  0  0  0  0  0  0  0  0
   37.9175  -21.2952   44.2367 O   0  0  0  0  0  0  0  0  0  0  0  0
   36.0731  -19.9860   44.9005 N   0  0  0  0  0  0  0  0  0  0  0  0
   34.8502  -19.6549   44.2617 C   0  0  0  0  0  0  0  0  0  0  0  0
   33.8042  -18.8917   44.7346 C   0  0  0  0  0  0  0  0  0  0  0  0
   36.3769  -19.6667   45.8672 H   0  0  0  0  0  0  0  0  0  0  0  0
   35.7330  -21.5432   40.4202 C   0  0  0  0  0  0  0  0  0  0  0  0
   35.7507  -20.4776   39.5509 C   0  0  0  0  0  0  0  0  0  0  0  0
   35.0016  -20.4434   38.4026 C   0  0  0  0  0  0  0  0  0  0  0  0
   34.1939  -21.5022   38.0857 C   0  0  0  0  0  0  0  0  0  0  0  0
   34.1396  -22.5919   38.9200 C   0  0  0  0  0  0  0  0  0  0  0  0
   34.8916  -22.6121   40.0609 C   0  0  0  0  0  0  0  0  0  0  0  0
   31.6130  -17.8956   44.5095 C   0  0  0  0  0  0  0  0  0  0  0  0
   31.6951  -16.6597   44.6461 O   0  0  0  0  0  0  0  0  0  0  0  0
   29.1767  -18.2140   44.4068 C   0  0  0  0  0  0  0  0  0  0  0  0
   30.4474  -18.5497   44.9002 O   0  0  0  0  0  0  0  0  0  0  0  0
   37.6287  -22.3044   41.7434 N   0  0  0  0  0  0  0  0  0  0  0  0
   37.6856  -23.0504   42.4996 H   0  0  0  0  0  0  0  0  0  0  0  0
   38.7283  -22.0509   40.8838 C   0  0  0  0  0  0  0  0  0  0  0  0
   39.6068  -21.0128   41.0872 C   0  0  0  0  0  0  0  0  0  0  0  0
   40.6837  -20.7925   40.2196 C   0  0  0  0  0  0  0  0  0  0  0  0
   40.8786  -21.6206   39.1415 C   0  0  0  0  0  0  0  0  0  0  0  0
   40.0018  -22.6581   38.9370 C   0  0  0  0  0  0  0  0  0  0  0  0
   38.9303  -22.8770   39.8004 C   0  0  0  0  0  0  0  0  0  0  0  0
   42.0034  -21.3870   38.2430 N   0  0  0  0  0  0  0  0  0  0  0  0
   43.0730  -22.3492   38.3861 C   0  0  0  0  0  0  0  0  0  0  0  0
   41.9887  -20.3571   37.3154 C   0  0  0  0  0  0  0  0  0  0  0  0
   40.8257  -19.7417   37.2419 O   0  0  0  0  0  0  0  0  0  0  0  0
   42.9972  -19.8256   36.4084 C   0  0  0  0  0  0  0  0  0  0  0  0
   42.8111  -19.8605   35.0233 N   0  0  0  0  0  0  0  0  0  0  0  0
   42.6039  -18.6346   34.3311 C   0  0  0  0  0  0  0  0  0  0  0  0
   41.1612  -18.4432   33.9188 C   0  0  0  0  0  0  0  0  0  0  0  0
   40.6427  -19.5306   33.1649 N   0  0  0  0  0  0  0  0  0  0  0  0
   39.2324  -19.5908   33.0577 C   0  0  0  0  0  0  0  0  0  0  0  0
   41.3388  -20.7594   33.2579 C   0  0  0  0  0  0  0  0  0  0  0  0
   42.1800  -20.9909   34.4478 C   0  0  0  0  0  0  0  0  0  0  0  0
 21 22  1  0  0  0
 22 19  1  0  0  0
 19 20  2  0  0  0
 19  1  1  0  0  0
  1  2  2  0  0  0
  2  3  1  0  0  0
  3  4  2  0  0  0
  4  5  1  0  0  0
  5  6  2  0  0  0
  6 23  1  0  0  0
 23 25  1  0  0  0
 25 26  2  0  0  0
 26 27  1  0  0  0
 27 28  2  0  0  0
 28 29  1  0  0  0
 29 30  2  0  0  0
 28 31  1  0  0  0
 31 32  1  0  0  0
 31 33  1  0  0  0
 33 34  2  0  0  0
 33 35  1  0  0  0
 35 36  1  0  0  0
 36 37  1  0  0  0
 37 38  1  0  0  0
 38 39  1  0  0  0
 39 40  1  0  0  0
 39 41  1  0  0  0
 41 42  1  0  0  0
  6 13  1  0  0  0
 13 14  2  0  0  0
 14 15  1  0  0  0
 15 16  2  0  0  0
 16 17  1  0  0  0
 17 18  2  0  0  0
  5  7  1  0  0  0
  7  8  2  0  0  0
  7  9  1  0  0  0
  9 10  1  0  0  0
 10 11  2  0  0  0
 11  1  1  0  0  0
 10  4  1  0  0  0
 30 25  1  0  0  0
 42 36  1  0  0  0
 18 13  1  0  0  0
 23 24  1  0  0  0
  9 12  1  0  0  0
M  END
> <minimizedAffinity>
-4.47125

> <CNNscore>
0.5772180557

> <CNNaffinity>
5.4659180641

> <CNN_VS>
3.1550266743

> <CNNaffinity_variance>
0.0796385556

$$$$
[H]c1c([H])c([H])c(/C(=C2/C(=O)N([H])c3c([H])c(C(=O)OC([H])([H])[H])c([H])c([H])c32)N([H])c2c([H])c([H])c(N(C(=O)C([H])([H])N3C([H])([H])C([H])([H])N(C([H])([H])[H])C([H])([H])C3([H])[H])C([H])([H])[H])c([H])c2[H])c([H])c1[H]


 42 46  0  0  0  0  0  0  0  0999 V2000
   35.5632  -14.8554   36.4508 C   0  0  0  0  0  0  0  0  0  0  0  0
   36.4889  -15.8027   36.7638 C   0  0  0  0  0  0  0  0  0  0  0  0
   36.2285  -17.1729   36.6440 C   0  0  0  0  0  0  0  0  0  0  0  0
   34.9889  -17.5423   36.1953 C   0  0  0  0  0  0  0  0  0  0  0  0
   34.4271  -18.8576   35.9462 C   0  0  0  0  0  0  0  0  0  0  0  0
   34.9335  -20.0335   36.2052 C   0  0  0  0  0  0  0  0  0  0  0  0
   33.0475  -18.6010   35.4341 C   0  0  0  0  0  0  0  0  0  0  0  0
   32.2198  -19.4516   35.0946 O   0  0  0  0  0  0  0  0  0  0  0  0
   32.8401  -17.1983   35.4014 N   0  0  0  0  0  0  0  0  0  0  0  0
   34.0309  -16.5846   35.8686 C   0  0  0  0  0  0  0  0  0  0  0  0
   34.3216  -15.2433   35.9982 C   0  0  0  0  0  0  0  0  0  0  0  0
   31.9605  -16.6918   35.0872 H   0  0  0  0  0  0  0  0  0  0  0  0
   36.1265  -20.2614   36.9603 C   0  0  0  0  0  0  0  0  0  0  0  0
   37.3864  -20.4887   36.4579 C   0  0  0  0  0  0  0  0  0  0  0  0
   38.4554  -20.8143   37.2529 C   0  0  0  0  0  0  0  0  0  0  0  0
   38.2874  -20.9238   38.6071 C   0  0  0  0  0  0  0  0  0  0  0  0
   37.0492  -20.7066   39.1602 C   0  0  0  0  0  0  0  0  0  0  0  0
   35.9930  -20.3829   38.3556 C   0  0  0  0  0  0  0  0  0  0  0  0
   35.8082  -13.4242   36.5686 C   0  0  0  0  0  0  0  0  0  0  0  0
   35.0411  -12.5562   36.1093 O   0  0  0  0  0  0  0  0  0  0  0  0
   37.8619  -13.9368   37.8203 C   0  0  0  0  0  0  0  0  0  0  0  0
   36.9663  -13.0291   37.2332 O   0  0  0  0  0  0  0  0  0  0  0  0
   34.1690  -21.1738   35.8379 N   0  0  0  0  0  0  0  0  0  0  0  0
   34.0103  -21.2746   34.7909 H   0  0  0  0  0  0  0  0  0  0  0  0
   33.6426  -22.1235   36.7507 C   0  0  0  0  0  0  0  0  0  0  0  0
   32.6153  -21.8317   37.6170 C   0  0  0  0  0  0  0  0  0  0  0  0
   32.1180  -22.7944   38.5040 C   0  0  0  0  0  0  0  0  0  0  0  0
   32.6563  -24.0578   38.5200 C   0  0  0  0  0  0  0  0  0  0  0  0
   33.6825  -24.3509   37.6551 C   0  0  0  0  0  0  0  0  0  0  0  0
   34.1772  -23.3927   36.7727 C   0  0  0  0  0  0  0  0  0  0  0  0
   32.1322  -25.0564   39.4447 N   0  0  0  0  0  0  0  0  0  0  0  0
   31.1036  -25.8965   38.8734 C   0  0  0  0  0  0  0  0  0  0  0  0
   32.6359  -25.1905   40.7291 C   0  0  0  0  0  0  0  0  0  0  0  0
   33.7006  -24.4457   40.9491 O   0  0  0  0  0  0  0  0  0  0  0  0
   32.2262  -25.9895   41.8762 C   0  0  0  0  0  0  0  0  0  0  0  0
   31.5965  -25.4009   42.9767 N   0  0  0  0  0  0  0  0  0  0  0  0
   30.4412  -24.6002   42.7549 C   0  0  0  0  0  0  0  0  0  0  0  0
   30.7317  -23.1216   42.8870 C   0  0  0  0  0  0  0  0  0  0  0  0
   31.3426  -22.7766   44.1229 N   0  0  0  0  0  0  0  0  0  0  0  0
   31.9615  -21.5045   44.1719 C   0  0  0  0  0  0  0  0  0  0  0  0
   31.9611  -23.8267   44.8426 C   0  0  0  0  0  0  0  0  0  0  0  0
   32.3838  -25.0254   44.0932 C   0  0  0  0  0  0  0  0  0  0  0  0
 21 22  1  0  0  0
 22 19  1  0  0  0
 19 20  2  0  0  0
 19  1  1  0  0  0
  1  2  2  0  0  0
  2  3  1  0  0  0
  3  4  2  0  0  0
  4  5  1  0  0  0
  5  6  2  0  0  0
  6 23  1  0  0  0
 23 25  1  0  0  0
 25 26  2  0  0  0
 26 27  1  0  0  0
 27 28  2  0  0  0
 28 29  1  0  0  0
 29 30  2  0  0  0
 28 31  1  0  0  0
 31 32  1  0  0  0
 31 33  1  0  0  0
 33 34  2  0  0  0
 33 35  1  0  0  0
 35 36  1  0  0  0
 36 37  1  0  0  0
 37 38  1  0  0  0
 38 39  1  0  0  0
 39 40  1  0  0  0
 39 41  1  0  0  0
 41 42  1  0  0  0
  6 13  1  0  0  0
 13 14  2  0  0  0
 14 15  1  0  0  0
 15 16  2  0  0  0
 16 17  1  0  0  0
 17 18  2  0  0  0
  5  7  1  0  0  0
  7  8  2  0  0  0
  7  9  1  0  0  0
  9 10  1  0  0  0
 10 11  2  0  0  0
 11  1  1  0  0  0
 10  4  1  0  0  0
 30 25  1  0  0  0
 42 36  1  0  0  0
 18 13  1  0  0  0
 23 24  1  0  0  0
  9 12  1  0  0  0
M  END
> <minimizedAffinity>
-5.96257

> <CNNscore>
0.4801507294

> <CNNaffinity>
5.6917567253

> <CNN_VS>
2.7329010963

> <CNNaffinity_variance>
0.0712834969

$$$$
[H]c1c([H])c([H])c(/C(=C2/C(=O)N([H])c3c([H])c(C(=O)OC([H])([H])[H])c([H])c([H])c32)N([H])c2c([H])c([H])c(N(C(=O)C([H])([H])N3C([H])([H])C([H])([H])N(C([H])([H])[H])C([H])([H])C3([H])[H])C([H])([H])[H])c([H])c2[H])c([H])c1[H]


 42 46  0  0  0  0  0  0  0  0999 V2000
   41.4636  -24.9757   42.8429 C   0  0  0  0  0  0  0  0  0  0  0  0
   41.7999  -23.6588   42.7735 C   0  0  0  0  0  0  0  0  0  0  0  0
   41.7669  -22.9394   41.5732 C   0  0  0  0  0  0  0  0  0  0  0  0
   41.3803  -23.6121   40.4453 C   0  0  0  0  0  0  0  0  0  0  0  0
   41.2248  -23.1525   39.0770 C   0  0  0  0  0  0  0  0  0  0  0  0
   41.5338  -21.9955   38.5553 C   0  0  0  0  0  0  0  0  0  0  0  0
   40.7438  -24.3456   38.3177 C   0  0  0  0  0  0  0  0  0  0  0  0
   40.4803  -24.3923   37.1126 O   0  0  0  0  0  0  0  0  0  0  0  0
   40.6380  -25.4336   39.2215 N   0  0  0  0  0  0  0  0  0  0  0  0
   41.0307  -24.9600   40.5000 C   0  0  0  0  0  0  0  0  0  0  0  0
   41.0742  -25.6377   41.6996 C   0  0  0  0  0  0  0  0  0  0  0  0
   40.3240  -26.4227   38.9934 H   0  0  0  0  0  0  0  0  0  0  0  0
   42.2617  -20.9640   39.2274 C   0  0  0  0  0  0  0  0  0  0  0  0
   43.6231  -20.9068   39.4143 C   0  0  0  0  0  0  0  0  0  0  0  0
   44.2284  -19.9382   40.1733 C   0  0  0  0  0  0  0  0  0  0  0  0
   43.4676  -18.9761   40.7812 C   0  0  0  0  0  0  0  0  0  0  0  0
   42.1030  -18.9875   40.6265 C   0  0  0  0  0  0  0  0  0  0  0  0
   41.5134  -19.9589   39.8672 C   0  0  0  0  0  0  0  0  0  0  0  0
   41.4917  -25.7472   44.0783 C   0  0  0  0  0  0  0  0  0  0  0  0
   42.5427  -26.1540   44.6099 O   0  0  0  0  0  0  0  0  0  0  0  0
   39.2206  -25.1024   44.7664 C   0  0  0  0  0  0  0  0  0  0  0  0
   40.2681  -26.0328   44.6785 O   0  0  0  0  0  0  0  0  0  0  0  0
   41.2570  -21.8018   37.1749 N   0  0  0  0  0  0  0  0  0  0  0  0
   41.8715  -22.3738   36.5217 H   0  0  0  0  0  0  0  0  0  0  0  0
   40.2585  -20.9334   36.6638 C   0  0  0  0  0  0  0  0  0  0  0  0
   38.9287  -21.2793   36.6110 C   0  0  0  0  0  0  0  0  0  0  0  0
   37.9685  -20.3963   36.1019 C   0  0  0  0  0  0  0  0  0  0  0  0
   38.3472  -19.1583   35.6436 C   0  0  0  0  0  0  0  0  0  0  0  0
   39.6754  -18.8113   35.6958 C   0  0  0  0  0  0  0  0  0  0  0  0
   40.6306  -19.6902   36.2022 C   0  0  0  0  0  0  0  0  0  0  0  0
   37.3419  -18.2426   35.1167 N   0  0  0  0  0  0  0  0  0  0  0  0
   37.4296  -18.0405   33.6878 C   0  0  0  0  0  0  0  0  0  0  0  0
   36.3757  -17.6780   35.9346 C   0  0  0  0  0  0  0  0  0  0  0  0
   36.3806  -18.1680   37.1579 O   0  0  0  0  0  0  0  0  0  0  0  0
   35.3593  -16.6586   35.7102 C   0  0  0  0  0  0  0  0  0  0  0  0
   35.1440  -15.6382   36.6411 N   0  0  0  0  0  0  0  0  0  0  0  0
   33.8961  -14.9544   36.6283 C   0  0  0  0  0  0  0  0  0  0  0  0
   34.0050  -13.5694   36.0299 C   0  0  0  0  0  0  0  0  0  0  0  0
   35.0023  -12.7668   36.6470 N   0  0  0  0  0  0  0  0  0  0  0  0
   35.4048  -11.6180   35.9244 C   0  0  0  0  0  0  0  0  0  0  0  0
   35.9966  -13.4464   37.3905 C   0  0  0  0  0  0  0  0  0  0  0  0
   36.2495  -14.8653   37.0745 C   0  0  0  0  0  0  0  0  0  0  0  0
 21 22  1  0  0  0
 22 19  1  0  0  0
 19 20  2  0  0  0
 19  1  1  0  0  0
  1  2  2  0  0  0
  2  3  1  0  0  0
  3  4  2  0  0  0
  4  5  1  0  0  0
  5  6  2  0  0  0
  6 23  1  0  0  0
 23 25  1  0  0  0
 25 26  2  0  0  0
 26 27  1  0  0  0
 27 28  2  0  0  0
 28 29  1  0  0  0
 29 30  2  0  0  0
 28 31  1  0  0  0
 31 32  1  0  0  0
 31 33  1  0  0  0
 33 34  2  0  0  0
 33 35  1  0  0  0
 35 36  1  0  0  0
 36 37  1  0  0  0
 37 38  1  0  0  0
 38 39  1  0  0  0
 39 40  1  0  0  0
 39 41  1  0  0  0
 41 42  1  0  0  0
  6 13  1  0  0  0
 13 14  2  0  0  0
 14 15  1  0  0  0
 15 16  2  0  0  0
 16 17  1  0  0  0
 17 18  2  0  0  0
  5  7  1  0  0  0
  7  8  2  0  0  0
  7  9  1  0  0  0
  9 10  1  0  0  0
 10 11  2  0  0  0
 11  1  1  0  0  0
 10  4  1  0  0  0
 30 25  1  0  0  0
 42 36  1  0  0  0
 18 13  1  0  0  0
 23 24  1  0  0  0
  9 12  1  0  0  0
M  END
> <minimizedAffinity>
-4.74544

> <CNNscore>
0.4715431929

> <CNNaffinity>
5.8457193375

> <CNN_VS>
2.7565090656

> <CNNaffinity_variance>
0.2078254968

$$$$
[H]c1c([H])c([H])c(/C(=C2/C(=O)N([H])c3c([H])c(C(=O)OC([H])([H])[H])c([H])c([H])c32)N([H])c2c([H])c([H])c(N(C(=O)C([H])([H])N3C([H])([H])C([H])([H])N(C([H])([H])[H])C([H])([H])C3([H])[H])C([H])([H])[H])c([H])c2[H])c([H])c1[H]


 42 46  0  0  0  0  0  0  0  0999 V2000
   33.0175  -12.3155   37.0893 C   0  0  0  0  0  0  0  0  0  0  0  0
   32.6605  -13.5575   36.6624 C   0  0  0  0  0  0  0  0  0  0  0  0
   33.5919  -14.5893   36.4970 C   0  0  0  0  0  0  0  0  0  0  0  0
   34.9014  -14.3082   36.7809 C   0  0  0  0  0  0  0  0  0  0  0  0
   36.0815  -15.1524   36.7324 C   0  0  0  0  0  0  0  0  0  0  0  0
   36.2042  -16.3738   36.2858 C   0  0  0  0  0  0  0  0  0  0  0  0
   37.2038  -14.2793   37.1900 C   0  0  0  0  0  0  0  0  0  0  0  0
   38.3893  -14.6048   37.3018 O   0  0  0  0  0  0  0  0  0  0  0  0
   36.6771  -12.9946   37.4793 N   0  0  0  0  0  0  0  0  0  0  0  0
   35.2827  -13.0422   37.2211 C   0  0  0  0  0  0  0  0  0  0  0  0
   34.3386  -12.0494   37.3734 C   0  0  0  0  0  0  0  0  0  0  0  0
   37.2176  -12.1478   37.8253 H   0  0  0  0  0  0  0  0  0  0  0  0
   35.1872  -17.0932   35.5832 C   0  0  0  0  0  0  0  0  0  0  0  0
   33.9263  -17.3937   36.0430 C   0  0  0  0  0  0  0  0  0  0  0  0
   33.0526  -18.1901   35.3479 C   0  0  0  0  0  0  0  0  0  0  0  0
   33.4274  -18.7207   34.1428 C   0  0  0  0  0  0  0  0  0  0  0  0
   34.6761  -18.4515   33.6382 C   0  0  0  0  0  0  0  0  0  0  0  0
   35.5363  -17.6562   34.3420 C   0  0  0  0  0  0  0  0  0  0  0  0
   32.0686  -11.2246   37.2673 C   0  0  0  0  0  0  0  0  0  0  0  0
   32.4018  -10.0738   37.6100 O   0  0  0  0  0  0  0  0  0  0  0  0
   29.6766  -10.7731   37.6164 C   0  0  0  0  0  0  0  0  0  0  0  0
   30.7244  -11.5060   37.0371 O   0  0  0  0  0  0  0  0  0  0  0  0
   37.4866  -16.9798   36.3731 N   0  0  0  0  0  0  0  0  0  0  0  0
   38.2873  -16.3556   36.0559 H   0  0  0  0  0  0  0  0  0  0  0  0
   37.7287  -18.2985   36.8367 C   0  0  0  0  0  0  0  0  0  0  0  0
   36.7817  -19.0360   37.5078 C   0  0  0  0  0  0  0  0  0  0  0  0
   37.0537  -20.3366   37.9498 C   0  0  0  0  0  0  0  0  0  0  0  0
   38.2845  -20.8991   37.7156 C   0  0  0  0  0  0  0  0  0  0  0  0
   39.2314  -20.1636   37.0453 C   0  0  0  0  0  0  0  0  0  0  0  0
   38.9606  -18.8695   36.6057 C   0  0  0  0  0  0  0  0  0  0  0  0
   38.5604  -22.2549   38.1767 N   0  0  0  0  0  0  0  0  0  0  0  0
   38.7556  -22.3560   39.6056 C   0  0  0  0  0  0  0  0  0  0  0  0
   38.5750  -23.3296   37.3014 C   0  0  0  0  0  0  0  0  0  0  0  0
   38.1743  -23.0144   36.0861 O   0  0  0  0  0  0  0  0  0  0  0  0
   38.9399  -24.7312   37.4585 C   0  0  0  0  0  0  0  0  0  0  0  0
   37.9612  -25.7195   37.5988 N   0  0  0  0  0  0  0  0  0  0  0  0
   37.5551  -26.4470   36.4452 C   0  0  0  0  0  0  0  0  0  0  0  0
   36.1957  -26.0150   35.9415 C   0  0  0  0  0  0  0  0  0  0  0  0
   35.1845  -26.0647   36.9388 N   0  0  0  0  0  0  0  0  0  0  0  0
   33.9979  -25.3483   36.6511 C   0  0  0  0  0  0  0  0  0  0  0  0
   35.6188  -26.0856   38.2857 C   0  0  0  0  0  0  0  0  0  0  0  0
   36.9615  -25.5543   38.5891 C   0  0  0  0  0  0  0  0  0  0  0  0
 21 22  1  0  0  0
 22 19  1  0  0  0
 19 20  2  0  0  0
 19  1  1  0  0  0
  1  2  2  0  0  0
  2  3  1  0  0  0
  3  4  2  0  0  0
  4  5  1  0  0  0
  5  6  2  0  0  0
  6 23  1  0  0  0
 23 25  1  0  0  0
 25 26  2  0  0  0
 26 27  1  0  0  0
 27 28  2  0  0  0
 28 29  1  0  0  0
 29 30  2  0  0  0
 28 31  1  0  0  0
 31 32  1  0  0  0
 31 33  1  0  0  0
 33 34  2  0  0  0
 33 35  1  0  0  0
 35 36  1  0  0  0
 36 37  1  0  0  0
 37 38  1  0  0  0
 38 39  1  0  0  0
 39 40  1  0  0  0
 39 41  1  0  0  0
 41 42  1  0  0  0
  6 13  1  0  0  0
 13 14  2  0  0  0
 14 15  1  0  0  0
 15 16  2  0  0  0
 16 17  1  0  0  0
 17 18  2  0  0  0
  5  7  1  0  0  0
  7  8  2  0  0  0
  7  9  1  0  0  0
  9 10  1  0  0  0
 10 11  2  0  0  0
 11  1  1  0  0  0
 10  4  1  0  0  0
 30 25  1  0  0  0
 42 36  1  0  0  0
 18 13  1  0  0  0
 23 24  1  0  0  0
  9 12  1  0  0  0
M  END
> <minimizedAffinity>
-6.62240

> <CNNscore>
0.4203672409

> <CNNaffinity>
6.1126747131

> <CNN_VS>
2.5695681572

> <CNNaffinity_variance>
0.0762416869

$$$$
[H]c1c([H])c([H])c(/C(=C2/C(=O)N([H])c3c([H])c(C(=O)OC([H])([H])[H])c([H])c([H])c32)N([H])c2c([H])c([H])c(N(C(=O)C([H])([H])N3C([H])([H])C([H])([H])N(C([H])([H])[H])C([H])([H])C3([H])[H])C([H])([H])[H])c([H])c2[H])c([H])c1[H]


 42 46  0  0  0  0  0  0  0  0999 V2000
   34.7818  -13.7409   36.5076 C   0  0  0  0  0  0  0  0  0  0  0  0
   33.7705  -14.6049   36.2195 C   0  0  0  0  0  0  0  0  0  0  0  0
   33.9674  -15.9885   36.1390 C   0  0  0  0  0  0  0  0  0  0  0  0
   35.2336  -16.4592   36.3611 C   0  0  0  0  0  0  0  0  0  0  0  0
   35.7494  -17.8162   36.3716 C   0  0  0  0  0  0  0  0  0  0  0  0
   35.1473  -18.9301   36.0502 C   0  0  0  0  0  0  0  0  0  0  0  0
   37.1979  -17.6797   36.7099 C   0  0  0  0  0  0  0  0  0  0  0  0
   38.0150  -18.5976   36.8263 O   0  0  0  0  0  0  0  0  0  0  0  0
   37.4863  -16.3011   36.8779 N   0  0  0  0  0  0  0  0  0  0  0  0
   36.2794  -15.5878   36.6594 C   0  0  0  0  0  0  0  0  0  0  0  0
   36.0496  -14.2305   36.7312 C   0  0  0  0  0  0  0  0  0  0  0  0
   38.4273  -15.8725   37.1219 H   0  0  0  0  0  0  0  0  0  0  0  0
   33.8520  -19.0153   35.4500 C   0  0  0  0  0  0  0  0  0  0  0  0
   32.6485  -19.1317   36.1054 C   0  0  0  0  0  0  0  0  0  0  0  0
   31.4606  -19.3251   35.4480 C   0  0  0  0  0  0  0  0  0  0  0  0
   31.4452  -19.4093   34.0817 C   0  0  0  0  0  0  0  0  0  0  0  0
   32.6199  -19.2994   33.3787 C   0  0  0  0  0  0  0  0  0  0  0  0
   33.7962  -19.1068   34.0471 C   0  0  0  0  0  0  0  0  0  0  0  0
   34.6038  -12.2977   36.5951 C   0  0  0  0  0  0  0  0  0  0  0  0
   35.2833  -11.4814   35.9434 O   0  0  0  0  0  0  0  0  0  0  0  0
   33.4065  -10.4651   37.7155 C   0  0  0  0  0  0  0  0  0  0  0  0
   33.6169  -11.8291   37.4585 O   0  0  0  0  0  0  0  0  0  0  0  0
   35.8893  -20.1363   36.1688 N   0  0  0  0  0  0  0  0  0  0  0  0
   36.4310  -20.4038   35.2933 H   0  0  0  0  0  0  0  0  0  0  0  0
   35.9357  -20.9469   37.3320 C   0  0  0  0  0  0  0  0  0  0  0  0
   36.7054  -22.0834   37.4158 C   0  0  0  0  0  0  0  0  0  0  0  0
   36.7294  -22.8596   38.5809 C   0  0  0  0  0  0  0  0  0  0  0  0
   35.9755  -22.4913   39.6682 C   0  0  0  0  0  0  0  0  0  0  0  0
   35.2061  -21.3563   39.5860 C   0  0  0  0  0  0  0  0  0  0  0  0
   35.1823  -20.5841   38.4265 C   0  0  0  0  0  0  0  0  0  0  0  0
   36.0068  -23.3030   40.8794 N   0  0  0  0  0  0  0  0  0  0  0  0
   35.1871  -24.4917   40.8055 C   0  0  0  0  0  0  0  0  0  0  0  0
   36.8018  -22.9601   41.9618 C   0  0  0  0  0  0  0  0  0  0  0  0
   37.6054  -21.9453   41.7144 O   0  0  0  0  0  0  0  0  0  0  0  0
   36.9270  -23.4982   43.3098 C   0  0  0  0  0  0  0  0  0  0  0  0
   35.9981  -23.1764   44.3036 N   0  0  0  0  0  0  0  0  0  0  0  0
   35.0025  -24.1345   44.6438 C   0  0  0  0  0  0  0  0  0  0  0  0
   33.6417  -23.7712   44.0921 C   0  0  0  0  0  0  0  0  0  0  0  0
   33.2167  -22.4654   44.4581 N   0  0  0  0  0  0  0  0  0  0  0  0
   32.1478  -21.9290   43.7007 C   0  0  0  0  0  0  0  0  0  0  0  0
   34.2212  -21.5661   44.8890 C   0  0  0  0  0  0  0  0  0  0  0  0
   35.6103  -21.8230   44.4629 C   0  0  0  0  0  0  0  0  0  0  0  0
 21 22  1  0  0  0
 22 19  1  0  0  0
 19 20  2  0  0  0
 19  1  1  0  0  0
  1  2  2  0  0  0
  2  3  1  0  0  0
  3  4  2  0  0  0
  4  5  1  0  0  0
  5  6  2  0  0  0
  6 23  1  0  0  0
 23 25  1  0  0  0
 25 26  2  0  0  0
 26 27  1  0  0  0
 27 28  2  0  0  0
 28 29  1  0  0  0
 29 30  2  0  0  0
 28 31  1  0  0  0
 31 32  1  0  0  0
 31 33  1  0  0  0
 33 34  2  0  0  0
 33 35  1  0  0  0
 35 36  1  0  0  0
 36 37  1  0  0  0
 37 38  1  0  0  0
 38 39  1  0  0  0
 39 40  1  0  0  0
 39 41  1  0  0  0
 41 42  1  0  0  0
  6 13  1  0  0  0
 13 14  2  0  0  0
 14 15  1  0  0  0
 15 16  2  0  0  0
 16 17  1  0  0  0
 17 18  2  0  0  0
  5  7  1  0  0  0
  7  8  2  0  0  0
  7  9  1  0  0  0
  9 10  1  0  0  0
 10 11  2  0  0  0
 11  1  1  0  0  0
 10  4  1  0  0  0
 30 25  1  0  0  0
 42 36  1  0  0  0
 18 13  1  0  0  0
 23 24  1  0  0  0
  9 12  1  0  0  0
M  END
> <minimizedAffinity>
-6.74480

> <CNNscore>
0.4161928594

> <CNNaffinity>
5.6767740250

> <CNN_VS>
2.3626327515

> <CNNaffinity_variance>
0.2217158973

$$$$
[H]c1c([H])c([H])c(/C(=C2/C(=O)N([H])c3c([H])c(C(=O)OC([H])([H])[H])c([H])c([H])c32)N([H])c2c([H])c([H])c(N(C(=O)C([H])([H])N3C([H])([H])C([H])([H])N(C([H])([H])[H])C([H])([H])C3([H])[H])C([H])([H])[H])c([H])c2[H])c([H])c1[H]


 42 46  0  0  0  0  0  0  0  0999 V2000
   40.7596  -24.6500   42.6274 C   0  0  0  0  0  0  0  0  0  0  0  0
   41.2940  -23.3988   42.5929 C   0  0  0  0  0  0  0  0  0  0  0  0
   41.3035  -22.6201   41.4297 C   0  0  0  0  0  0  0  0  0  0  0  0
   40.7500  -23.1644   40.3020 C   0  0  0  0  0  0  0  0  0  0  0  0
   40.5881  -22.6142   38.9683 C   0  0  0  0  0  0  0  0  0  0  0  0
   41.0437  -21.4925   38.4778 C   0  0  0  0  0  0  0  0  0  0  0  0
   39.8816  -23.6769   38.1918 C   0  0  0  0  0  0  0  0  0  0  0  0
   39.5433  -23.6184   37.0061 O   0  0  0  0  0  0  0  0  0  0  0  0
   39.6598  -24.7821   39.0527 N   0  0  0  0  0  0  0  0  0  0  0  0
   40.1969  -24.4432   40.3215 C   0  0  0  0  0  0  0  0  0  0  0  0
   40.2042  -25.1824   41.4850 C   0  0  0  0  0  0  0  0  0  0  0  0
   39.1814  -25.6974   38.8034 H   0  0  0  0  0  0  0  0  0  0  0  0
   41.9630  -20.6227   39.1439 C   0  0  0  0  0  0  0  0  0  0  0  0
   41.6509  -19.4957   39.8677 C   0  0  0  0  0  0  0  0  0  0  0  0
   42.6049  -18.6523   40.3770 C   0  0  0  0  0  0  0  0  0  0  0  0
   43.9311  -18.9215   40.1699 C   0  0  0  0  0  0  0  0  0  0  0  0
   44.2970  -20.0347   39.4536 C   0  0  0  0  0  0  0  0  0  0  0  0
   43.3354  -20.8662   38.9520 C   0  0  0  0  0  0  0  0  0  0  0  0
   40.7391  -25.4811   43.8237 C   0  0  0  0  0  0  0  0  0  0  0  0
   41.5061  -26.4469   44.0019 O   0  0  0  0  0  0  0  0  0  0  0  0
   38.4660  -25.5785   44.7566 C   0  0  0  0  0  0  0  0  0  0  0  0
   39.8053  -25.1607   44.8056 O   0  0  0  0  0  0  0  0  0  0  0  0
   40.7196  -21.1854   37.1286 N   0  0  0  0  0  0  0  0  0  0  0  0
   41.3825  -21.6093   36.4128 H   0  0  0  0  0  0  0  0  0  0  0  0
   39.6188  -20.3884   36.7219 C   0  0  0  0  0  0  0  0  0  0  0  0
   38.4794  -20.2525   37.4798 C   0  0  0  0  0  0  0  0  0  0  0  0
   37.4118  -19.4554   37.0490 C   0  0  0  0  0  0  0  0  0  0  0  0
   37.4900  -18.7910   35.8496 C   0  0  0  0  0  0  0  0  0  0  0  0
   38.6276  -18.9258   35.0914 C   0  0  0  0  0  0  0  0  0  0  0  0
   39.6897  -19.7191   35.5203 C   0  0  0  0  0  0  0  0  0  0  0  0
   36.3754  -17.9607   35.4078 N   0  0  0  0  0  0  0  0  0  0  0  0
   36.4240  -16.6054   35.9089 C   0  0  0  0  0  0  0  0  0  0  0  0
   35.4058  -18.4476   34.5452 C   0  0  0  0  0  0  0  0  0  0  0  0
   35.6861  -19.6454   34.0727 O   0  0  0  0  0  0  0  0  0  0  0  0
   34.1473  -17.8993   34.0574 C   0  0  0  0  0  0  0  0  0  0  0  0
   32.9214  -18.4140   34.4889 N   0  0  0  0  0  0  0  0  0  0  0  0
   32.6878  -18.5401   35.8870 C   0  0  0  0  0  0  0  0  0  0  0  0
   32.7767  -19.9747   36.3582 C   0  0  0  0  0  0  0  0  0  0  0  0
   31.9312  -20.8581   35.6340 N   0  0  0  0  0  0  0  0  0  0  0  0
   32.2204  -22.2374   35.7672 C   0  0  0  0  0  0  0  0  0  0  0  0
   31.4745  -20.4104   34.3714 C   0  0  0  0  0  0  0  0  0  0  0  0
   32.2597  -19.3702   33.6795 C   0  0  0  0  0  0  0  0  0  0  0  0
 21 22  1  0  0  0
 22 19  1  0  0  0
 19 20  2  0  0  0
 19  1  1  0  0  0
  1  2  2  0  0  0
  2  3  1  0  0  0
  3  4  2  0  0  0
  4  5  1  0  0  0
  5  6  2  0  0  0
  6 23  1  0  0  0
 23 25  1  0  0  0
 25 26  2  0  0  0
 26 27  1  0  0  0
 27 28  2  0  0  0
 28 29  1  0  0  0
 29 30  2  0  0  0
 28 31  1  0  0  0
 31 32  1  0  0  0
 31 33  1  0  0  0
 33 34  2  0  0  0
 33 35  1  0  0  0
 35 36  1  0  0  0
 36 37  1  0  0  0
 37 38  1  0  0  0
 38 39  1  0  0  0
 39 40  1  0  0  0
 39 41  1  0  0  0
 41 42  1  0  0  0
  6 13  1  0  0  0
 13 14  2  0  0  0
 14 15  1  0  0  0
 15 16  2  0  0  0
 16 17  1  0  0  0
 17 18  2  0  0  0
  5  7  1  0  0  0
  7  8  2  0  0  0
  7  9  1  0  0  0
  9 10  1  0  0  0
 10 11  2  0  0  0
 11  1  1  0  0  0
 10  4  1  0  0  0
 30 25  1  0  0  0
 42 36  1  0  0  0
 18 13  1  0  0  0
 23 24  1  0  0  0
  9 12  1  0  0  0
M  END
> <minimizedAffinity>
-4.66294

> <CNNscore>
0.4130832851

> <CNNaffinity>
5.4394159317

> <CNN_VS>
2.2469317913

> <CNNaffinity_variance>
0.1094892845

$$$$
[H]c1c([H])c([H])c(/C(=C2/C(=O)N([H])c3c([H])c(C(=O)OC([H])([H])[H])c([H])c([H])c32)N([H])c2c([H])c([H])c(N(C(=O)C([H])([H])N3C([H])([H])C([H])([H])N(C([H])([H])[H])C([H])([H])C3([H])[H])C([H])([H])[H])c([H])c2[H])c([H])c1[H]


 42 46  0  0  0  0  0  0  0  0999 V2000
   33.0575  -12.3429   37.0533 C   0  0  0  0  0  0  0  0  0  0  0  0
   32.7057  -13.5881   36.6313 C   0  0  0  0  0  0  0  0  0  0  0  0
   33.6389  -14.6212   36.4858 C   0  0  0  0  0  0  0  0  0  0  0  0
   34.9447  -14.3381   36.7845 C   0  0  0  0  0  0  0  0  0  0  0  0
   36.1251  -15.1829   36.7577 C   0  0  0  0  0  0  0  0  0  0  0  0
   36.2533  -16.4076   36.3220 C   0  0  0  0  0  0  0  0  0  0  0  0
   37.2417  -14.3066   37.2231 C   0  0  0  0  0  0  0  0  0  0  0  0
   38.4255  -14.6314   37.3527 O   0  0  0  0  0  0  0  0  0  0  0  0
   36.7116  -13.0196   37.4958 N   0  0  0  0  0  0  0  0  0  0  0  0
   35.3206  -13.0690   37.2200 C   0  0  0  0  0  0  0  0  0  0  0  0
   34.3749  -12.0748   37.3525 C   0  0  0  0  0  0  0  0  0  0  0  0
   37.2478  -12.1703   37.8423 H   0  0  0  0  0  0  0  0  0  0  0  0
   35.2453  -17.1323   35.6118 C   0  0  0  0  0  0  0  0  0  0  0  0
   34.0106  -17.5050   36.0894 C   0  0  0  0  0  0  0  0  0  0  0  0
   33.1489  -18.3010   35.3790 C   0  0  0  0  0  0  0  0  0  0  0  0
   33.5094  -18.7570   34.1397 C   0  0  0  0  0  0  0  0  0  0  0  0
   34.7319  -18.4139   33.6161 C   0  0  0  0  0  0  0  0  0  0  0  0
   35.5804  -17.6199   34.3353 C   0  0  0  0  0  0  0  0  0  0  0  0
   32.1066  -11.2506   37.2108 C   0  0  0  0  0  0  0  0  0  0  0  0
   30.8793  -11.3782   37.0368 O   0  0  0  0  0  0  0  0  0  0  0  0
   31.9615   -8.7976   37.3048 C   0  0  0  0  0  0  0  0  0  0  0  0
   32.6189  -10.0081   37.5752 O   0  0  0  0  0  0  0  0  0  0  0  0
   37.5343  -17.0132   36.4304 N   0  0  0  0  0  0  0  0  0  0  0  0
   38.3446  -16.3672   36.1907 H   0  0  0  0  0  0  0  0  0  0  0  0
   37.7635  -18.3576   36.8209 C   0  0  0  0  0  0  0  0  0  0  0  0
   38.9280  -19.0282   36.5289 C   0  0  0  0  0  0  0  0  0  0  0  0
   39.1222  -20.3551   36.9318 C   0  0  0  0  0  0  0  0  0  0  0  0
   38.1403  -21.0117   37.6324 C   0  0  0  0  0  0  0  0  0  0  0  0
   36.9764  -20.3431   37.9248 C   0  0  0  0  0  0  0  0  0  0  0  0
   36.7834  -19.0228   37.5237 C   0  0  0  0  0  0  0  0  0  0  0  0
   38.3498  -22.3930   38.0509 N   0  0  0  0  0  0  0  0  0  0  0  0
   38.0768  -23.3636   37.0147 C   0  0  0  0  0  0  0  0  0  0  0  0
   38.8177  -22.7037   39.3181 C   0  0  0  0  0  0  0  0  0  0  0  0
   39.1808  -21.6434   40.0114 O   0  0  0  0  0  0  0  0  0  0  0  0
   38.9900  -23.9629   40.0301 C   0  0  0  0  0  0  0  0  0  0  0  0
   40.0665  -24.8090   39.7481 N   0  0  0  0  0  0  0  0  0  0  0  0
   41.3848  -24.2752   39.7939 C   0  0  0  0  0  0  0  0  0  0  0  0
   41.9666  -24.0595   38.4143 C   0  0  0  0  0  0  0  0  0  0  0  0
   41.9328  -25.2245   37.6012 N   0  0  0  0  0  0  0  0  0  0  0  0
   42.1180  -25.0145   36.2135 C   0  0  0  0  0  0  0  0  0  0  0  0
   41.0317  -26.2451   37.9878 C   0  0  0  0  0  0  0  0  0  0  0  0
   39.8781  -25.8694   38.8276 C   0  0  0  0  0  0  0  0  0  0  0  0
 21 22  1  0  0  0
 22 19  1  0  0  0
 19 20  2  0  0  0
 19  1  1  0  0  0
  1  2  2  0  0  0
  2  3  1  0  0  0
  3  4  2  0  0  0
  4  5  1  0  0  0
  5  6  2  0  0  0
  6 23  1  0  0  0
 23 25  1  0  0  0
 25 26  2  0  0  0
 26 27  1  0  0  0
 27 28  2  0  0  0
 28 29  1  0  0  0
 29 30  2  0  0  0
 28 31  1  0  0  0
 31 32  1  0  0  0
 31 33  1  0  0  0
 33 34  2  0  0  0
 33 35  1  0  0  0
 35 36  1  0  0  0
 36 37  1  0  0  0
 37 38  1  0  0  0
 38 39  1  0  0  0
 39 40  1  0  0  0
 39 41  1  0  0  0
 41 42  1  0  0  0
  6 13  1  0  0  0
 13 14  2  0  0  0
 14 15  1  0  0  0
 15 16  2  0  0  0
 16 17  1  0  0  0
 17 18  2  0  0  0
  5  7  1  0  0  0
  7  8  2  0  0  0
  7  9  1  0  0  0
  9 10  1  0  0  0
 10 11  2  0  0  0
 11  1  1  0  0  0
 10  4  1  0  0  0
 30 25  1  0  0  0
 42 36  1  0  0  0
 18 13  1  0  0  0
 23 24  1  0  0  0
  9 12  1  0  0  0
M  END
> <minimizedAffinity>
-6.38382

> <CNNscore>
0.4101217091

> <CNNaffinity>
6.0320501328

> <CNN_VS>
2.4738748074

> <CNNaffinity_variance>
0.1153942123

$$$$
[H]c1c([H])c([H])c(/C(=C2/C(=O)N([H])c3c([H])c(C(=O)OC([H])([H])[H])c([H])c([H])c32)N([H])c2c([H])c([H])c(N(C(=O)C([H])([H])N3C([H])([H])C([H])([H])N(C([H])([H])[H])C([H])([H])C3([H])[H])C([H])([H])[H])c([H])c2[H])c([H])c1[H]


 42 46  0  0  0  0  0  0  0  0999 V2000
   34.7777  -13.9090   36.4777 C   0  0  0  0  0  0  0  0  0  0  0  0
   33.7609  -14.7824   36.2417 C   0  0  0  0  0  0  0  0  0  0  0  0
   33.9652  -16.1646   36.1573 C   0  0  0  0  0  0  0  0  0  0  0  0
   35.2445  -16.6241   36.3202 C   0  0  0  0  0  0  0  0  0  0  0  0
   35.7714  -17.9769   36.3112 C   0  0  0  0  0  0  0  0  0  0  0  0
   35.1639  -19.0969   36.0234 C   0  0  0  0  0  0  0  0  0  0  0  0
   37.2333  -17.8271   36.5791 C   0  0  0  0  0  0  0  0  0  0  0  0
   38.0626  -18.7379   36.6597 O   0  0  0  0  0  0  0  0  0  0  0  0
   37.5179  -16.4456   36.7278 N   0  0  0  0  0  0  0  0  0  0  0  0
   36.2961  -15.7430   36.5647 C   0  0  0  0  0  0  0  0  0  0  0  0
   36.0587  -14.3873   36.6421 C   0  0  0  0  0  0  0  0  0  0  0  0
   38.4660  -16.0083   36.9247 H   0  0  0  0  0  0  0  0  0  0  0  0
   33.8421  -19.1952   35.4863 C   0  0  0  0  0  0  0  0  0  0  0  0
   32.6865  -19.4479   36.1879 C   0  0  0  0  0  0  0  0  0  0  0  0
   31.4741  -19.6415   35.5770 C   0  0  0  0  0  0  0  0  0  0  0  0
   31.3836  -19.5859   34.2121 C   0  0  0  0  0  0  0  0  0  0  0  0
   32.5080  -19.3364   33.4640 C   0  0  0  0  0  0  0  0  0  0  0  0
   33.7096  -19.1455   34.0864 C   0  0  0  0  0  0  0  0  0  0  0  0
   34.5921  -12.4669   36.5680 C   0  0  0  0  0  0  0  0  0  0  0  0
   35.2902  -11.6445   35.9444 O   0  0  0  0  0  0  0  0  0  0  0  0
   33.4294  -10.6576   37.7604 C   0  0  0  0  0  0  0  0  0  0  0  0
   33.5754  -12.0067   37.4008 O   0  0  0  0  0  0  0  0  0  0  0  0
   35.9208  -20.2965   36.1109 N   0  0  0  0  0  0  0  0  0  0  0  0
   36.3058  -20.6390   35.1803 H   0  0  0  0  0  0  0  0  0  0  0  0
   36.1692  -21.0110   37.3110 C   0  0  0  0  0  0  0  0  0  0  0  0
   37.1748  -21.9417   37.4273 C   0  0  0  0  0  0  0  0  0  0  0  0
   37.3939  -22.6275   38.6283 C   0  0  0  0  0  0  0  0  0  0  0  0
   36.5977  -22.3762   39.7188 C   0  0  0  0  0  0  0  0  0  0  0  0
   35.5927  -21.4466   39.6041 C   0  0  0  0  0  0  0  0  0  0  0  0
   35.3749  -20.7644   38.4088 C   0  0  0  0  0  0  0  0  0  0  0  0
   36.8326  -23.0923   40.9673 N   0  0  0  0  0  0  0  0  0  0  0  0
   36.4399  -24.4830   40.9240 C   0  0  0  0  0  0  0  0  0  0  0  0
   37.4272  -22.4749   42.0566 C   0  0  0  0  0  0  0  0  0  0  0  0
   37.8746  -21.2650   41.7867 O   0  0  0  0  0  0  0  0  0  0  0  0
   37.6575  -22.8972   43.4317 C   0  0  0  0  0  0  0  0  0  0  0  0
   38.9532  -23.0073   43.9445 N   0  0  0  0  0  0  0  0  0  0  0  0
   39.4017  -22.0347   44.8816 C   0  0  0  0  0  0  0  0  0  0  0  0
   40.3710  -21.0486   44.2682 C   0  0  0  0  0  0  0  0  0  0  0  0
   41.4793  -21.6707   43.6324 N   0  0  0  0  0  0  0  0  0  0  0  0
   42.2192  -20.8544   42.7435 C   0  0  0  0  0  0  0  0  0  0  0  0
   41.3329  -23.0360   43.2892 C   0  0  0  0  0  0  0  0  0  0  0  0
   39.9658  -23.5667   43.1264 C   0  0  0  0  0  0  0  0  0  0  0  0
 21 22  1  0  0  0
 22 19  1  0  0  0
 19 20  2  0  0  0
 19  1  1  0  0  0
  1  2  2  0  0  0
  2  3  1  0  0  0
  3  4  2  0  0  0
  4  5  1  0  0  0
  5  6  2  0  0  0
  6 23  1  0  0  0
 23 25  1  0  0  0
 25 26  2  0  0  0
 26 27  1  0  0  0
 27 28  2  0  0  0
 28 29  1  0  0  0
 29 30  2  0  0  0
 28 31  1  0  0  0
 31 32  1  0  0  0
 31 33  1  0  0  0
 33 34  2  0  0  0
 33 35  1  0  0  0
 35 36  1  0  0  0
 36 37  1  0  0  0
 37 38  1  0  0  0
 38 39  1  0  0  0
 39 40  1  0  0  0
 39 41  1  0  0  0
 41 42  1  0  0  0
  6 13  1  0  0  0
 13 14  2  0  0  0
 14 15  1  0  0  0
 15 16  2  0  0  0
 16 17  1  0  0  0
 17 18  2  0  0  0
  5  7  1  0  0  0
  7  8  2  0  0  0
  7  9  1  0  0  0
  9 10  1  0  0  0
 10 11  2  0  0  0
 11  1  1  0  0  0
 10  4  1  0  0  0
 30 25  1  0  0  0
 42 36  1  0  0  0
 18 13  1  0  0  0
 23 24  1  0  0  0
  9 12  1  0  0  0
M  END
> <minimizedAffinity>
-6.87253

> <CNNscore>
0.4088010192

> <CNNaffinity>
5.8027410507

> <CNN_VS>
2.3721663952

> <CNNaffinity_variance>
0.1206851155

$$$$
[H]c1c([H])c([H])c(/C(=C2/C(=O)N([H])c3c([H])c(C(=O)OC([H])([H])[H])c([H])c([H])c32)N([H])c2c([H])c([H])c(N(C(=O)C([H])([H])N3C([H])([H])C([H])([H])N(C([H])([H])[H])C([H])([H])C3([H])[H])C([H])([H])[H])c([H])c2[H])c([H])c1[H]


 42 46  0  0  0  0  0  0  0  0999 V2000
   34.8330  -13.9707   36.4560 C   0  0  0  0  0  0  0  0  0  0  0  0
   33.8245  -14.8456   36.1921 C   0  0  0  0  0  0  0  0  0  0  0  0
   34.0278  -16.2296   36.1403 C   0  0  0  0  0  0  0  0  0  0  0  0
   35.2976  -16.6892   36.3655 C   0  0  0  0  0  0  0  0  0  0  0  0
   35.8202  -18.0432   36.4023 C   0  0  0  0  0  0  0  0  0  0  0  0
   35.2219  -19.1666   36.1083 C   0  0  0  0  0  0  0  0  0  0  0  0
   37.2698  -17.8923   36.7296 C   0  0  0  0  0  0  0  0  0  0  0  0
   38.0920  -18.8036   36.8613 O   0  0  0  0  0  0  0  0  0  0  0  0
   37.5522  -16.5091   36.8664 N   0  0  0  0  0  0  0  0  0  0  0  0
   36.3405  -15.8066   36.6392 C   0  0  0  0  0  0  0  0  0  0  0  0
   36.1044  -14.4491   36.6830 C   0  0  0  0  0  0  0  0  0  0  0  0
   38.4924  -16.0707   37.0959 H   0  0  0  0  0  0  0  0  0  0  0  0
   33.9238  -19.2710   35.5172 C   0  0  0  0  0  0  0  0  0  0  0  0
   32.7356  -19.4854   36.1757 C   0  0  0  0  0  0  0  0  0  0  0  0
   31.5489  -19.6890   35.5192 C   0  0  0  0  0  0  0  0  0  0  0  0
   31.5191  -19.6833   34.1506 C   0  0  0  0  0  0  0  0  0  0  0  0
   32.6781  -19.4736   33.4444 C   0  0  0  0  0  0  0  0  0  0  0  0
   33.8535  -19.2721   34.1119 C   0  0  0  0  0  0  0  0  0  0  0  0
   34.6483  -12.5268   36.5133 C   0  0  0  0  0  0  0  0  0  0  0  0
   35.4035  -11.7149   35.9448 O   0  0  0  0  0  0  0  0  0  0  0  0
   33.4783  -10.7347   37.7244 C   0  0  0  0  0  0  0  0  0  0  0  0
   33.5645  -12.0522   37.2477 O   0  0  0  0  0  0  0  0  0  0  0  0
   35.9706  -20.3663   36.2487 N   0  0  0  0  0  0  0  0  0  0  0  0
   36.6916  -20.5235   35.4826 H   0  0  0  0  0  0  0  0  0  0  0  0
   35.8076  -21.3035   37.3011 C   0  0  0  0  0  0  0  0  0  0  0  0
   36.4090  -21.1545   38.5288 C   0  0  0  0  0  0  0  0  0  0  0  0
   36.2248  -22.0982   39.5467 C   0  0  0  0  0  0  0  0  0  0  0  0
   35.4314  -23.1980   39.3294 C   0  0  0  0  0  0  0  0  0  0  0  0
   34.8299  -23.3481   38.1036 C   0  0  0  0  0  0  0  0  0  0  0  0
   35.0135  -22.4090   37.0908 C   0  0  0  0  0  0  0  0  0  0  0  0
   35.2419  -24.1759   40.3946 N   0  0  0  0  0  0  0  0  0  0  0  0
   36.2749  -25.1860   40.4487 C   0  0  0  0  0  0  0  0  0  0  0  0
   34.1841  -24.0822   41.2854 C   0  0  0  0  0  0  0  0  0  0  0  0
   33.4931  -22.9676   41.1547 O   0  0  0  0  0  0  0  0  0  0  0  0
   33.6897  -24.9647   42.3337 C   0  0  0  0  0  0  0  0  0  0  0  0
   34.3915  -25.1242   43.5321 N   0  0  0  0  0  0  0  0  0  0  0  0
   34.9834  -23.9789   44.1345 C   0  0  0  0  0  0  0  0  0  0  0  0
   36.4850  -23.9452   43.9545 C   0  0  0  0  0  0  0  0  0  0  0  0
   37.1317  -25.1290   44.4017 N   0  0  0  0  0  0  0  0  0  0  0  0
   38.4580  -25.3184   43.9443 C   0  0  0  0  0  0  0  0  0  0  0  0
   36.3234  -26.2823   44.5417 C   0  0  0  0  0  0  0  0  0  0  0  0
   35.0677  -26.3464   43.7695 C   0  0  0  0  0  0  0  0  0  0  0  0
 21 22  1  0  0  0
 22 19  1  0  0  0
 19 20  2  0  0  0
 19  1  1  0  0  0
  1  2  2  0  0  0
  2  3  1  0  0  0
  3  4  2  0  0  0
  4  5  1  0  0  0
  5  6  2  0  0  0
  6 23  1  0  0  0
 23 25  1  0  0  0
 25 26  2  0  0  0
 26 27  1  0  0  0
 27 28  2  0  0  0
 28 29  1  0  0  0
 29 30  2  0  0  0
 28 31  1  0  0  0
 31 32  1  0  0  0
 31 33  1  0  0  0
 33 34  2  0  0  0
 33 35  1  0  0  0
 35 36  1  0  0  0
 36 37  1  0  0  0
 37 38  1  0  0  0
 38 39  1  0  0  0
 39 40  1  0  0  0
 39 41  1  0  0  0
 41 42  1  0  0  0
  6 13  1  0  0  0
 13 14  2  0  0  0
 14 15  1  0  0  0
 15 16  2  0  0  0
 16 17  1  0  0  0
 17 18  2  0  0  0
  5  7  1  0  0  0
  7  8  2  0  0  0
  7  9  1  0  0  0
  9 10  1  0  0  0
 10 11  2  0  0  0
 11  1  1  0  0  0
 10  4  1  0  0  0
 30 25  1  0  0  0
 42 36  1  0  0  0
 18 13  1  0  0  0
 23 24  1  0  0  0
  9 12  1  0  0  0
M  END
> <minimizedAffinity>
-6.34518

> <CNNscore>
0.4054124057

> <CNNaffinity>
5.5912752151

> <CNN_VS>
2.2667722702

> <CNNaffinity_variance>
0.1627130657

$$$$
[H]O[C@]1([H])C([H])([H])C([H])([H])[C@@]([H])(C([H])([H])N([H])C(=O)c2c(C([H])([H])[H])c(/C([H])=C3\C(=O)N([H])c4c([H])c([H])c(F)c([H])c43)n([H])c2C([H])([H])[H])C([H])([H])C1([H])[H]


 34 37  0  0  0  0  0  0  0  0999 V2000
   33.4904  -17.9770   35.5961 C   0  0  0  0  0  0  0  0  0  0  0  0
   34.3812  -16.8262   35.9786 C   0  0  0  0  0  0  0  0  0  0  0  0
   34.0828  -15.5301   35.7106 N   0  0  0  0  0  0  0  0  0  0  0  0
   35.0188  -14.6899   36.1342 C   0  0  0  0  0  0  0  0  0  0  0  0
   35.9804  -15.5039   36.7108 C   0  0  0  0  0  0  0  0  0  0  0  0
   37.2440  -14.9812   37.3330 C   0  0  0  0  0  0  0  0  0  0  0  0
   35.5865  -16.8427   36.6171 C   0  0  0  0  0  0  0  0  0  0  0  0
   33.2142  -15.2497   35.2105 H   0  0  0  0  0  0  0  0  0  0  0  0
   35.1011  -13.2466   36.0805 C   0  0  0  0  0  0  0  0  0  0  0  0
   34.2952  -12.4169   36.7110 C   0  0  0  0  0  0  0  0  0  0  0  0
   33.1812  -12.7616   37.5812 C   0  0  0  0  0  0  0  0  0  0  0  0
   32.8065  -13.9102   37.9042 O   0  0  0  0  0  0  0  0  0  0  0  0
   32.6032  -11.5101   37.9952 N   0  0  0  0  0  0  0  0  0  0  0  0
   33.3304  -10.4350   37.4064 C   0  0  0  0  0  0  0  0  0  0  0  0
   33.1733   -9.0537   37.4932 C   0  0  0  0  0  0  0  0  0  0  0  0
   34.0167   -8.2061   36.8208 C   0  0  0  0  0  0  0  0  0  0  0  0
   35.0401   -8.7000   36.0427 C   0  0  0  0  0  0  0  0  0  0  0  0
   35.8883   -7.9047   35.3680 F   0  0  0  0  0  0  0  0  0  0  0  0
   35.1783  -10.0905   35.9707 C   0  0  0  0  0  0  0  0  0  0  0  0
   34.3451  -10.9356   36.6353 C   0  0  0  0  0  0  0  0  0  0  0  0
   31.7868  -11.4278   38.6233 H   0  0  0  0  0  0  0  0  0  0  0  0
   36.3216  -17.9737   37.1220 C   0  0  0  0  0  0  0  0  0  0  0  0
   35.8350  -18.4723   38.2167 O   0  0  0  0  0  0  0  0  0  0  0  0
   37.4629  -18.5871   36.5943 N   0  0  0  0  0  0  0  0  0  0  0  0
   37.9269  -18.2870   35.7373 H   0  0  0  0  0  0  0  0  0  0  0  0
   38.0256  -19.7253   37.2963 C   0  0  0  0  0  0  0  0  0  0  0  0
   37.6759  -21.0289   36.5667 C   0  0  0  0  0  0  0  0  0  0  0  0
   38.7928  -21.3126   35.6356 C   0  0  0  0  0  0  0  0  0  0  0  0
   39.1714  -22.7476   35.4896 C   0  0  0  0  0  0  0  0  0  0  0  0
   39.4124  -23.2579   36.9192 C   0  0  0  0  0  0  0  0  0  0  0  0
   40.0017  -24.4933   36.8614 O   0  0  0  0  0  0  0  0  0  0  0  0
   38.0237  -23.3451   37.5092 C   0  0  0  0  0  0  0  0  0  0  0  0
   37.2773  -22.0699   37.5142 C   0  0  0  0  0  0  0  0  0  0  0  0
   40.6049  -24.5736   37.6630 H   0  0  0  0  0  0  0  0  0  0  0  0
  1  2  1  0  0  0
  2  3  1  0  0  0
  3  4  1  0  0  0
  4  9  1  0  0  0
  9 10  2  0  0  0
 10 11  1  0  0  0
 11 12  2  0  0  0
 11 13  1  0  0  0
 13 14  1  0  0  0
 14 15  2  0  0  0
 15 16  1  0  0  0
 16 17  2  0  0  0
 17 18  1  0  0  0
 17 19  1  0  0  0
 19 20  2  0  0  0
  4  5  2  0  0  0
  5  6  1  0  0  0
  5  7  1  0  0  0
  7 22  1  0  0  0
 22 23  2  0  0  0
 22 24  1  0  0  0
 24 26  1  0  0  0
 26 27  1  0  0  0
 27 28  1  0  0  0
 28 29  1  0  0  0
 29 30  1  0  0  0
 30 31  1  0  0  0
 30 32  1  0  0  0
 32 33  1  0  0  0
  7  2  2  0  0  0
 33 27  1  0  0  0
 20 10  1  0  0  0
 20 14  1  0  0  0
  3  8  1  0  0  0
 13 21  1  0  0  0
 24 25  1  0  0  0
 31 34  1  0  0  0
M  END
> <minimizedAffinity>
-7.11739

> <CNNscore>
0.5201154351

> <CNNaffinity>
6.0966296196

> <CNN_VS>
3.1709511280

> <CNNaffinity_variance>
0.1634421796

$$$$
[H]O[C@]1([H])C([H])([H])C([H])([H])[C@@]([H])(C([H])([H])N([H])C(=O)c2c(C([H])([H])[H])c(/C([H])=C3\C(=O)N([H])c4c([H])c([H])c(F)c([H])c43)n([H])c2C([H])([H])[H])C([H])([H])C1([H])[H]


 34 37  0  0  0  0  0  0  0  0999 V2000
   38.2494  -18.6146   33.5535 C   0  0  0  0  0  0  0  0  0  0  0  0
   37.4170  -19.2006   34.6618 C   0  0  0  0  0  0  0  0  0  0  0  0
   36.1008  -19.5007   34.5279 N   0  0  0  0  0  0  0  0  0  0  0  0
   35.5726  -19.9993   35.6388 C   0  0  0  0  0  0  0  0  0  0  0  0
   36.6218  -20.0180   36.5436 C   0  0  0  0  0  0  0  0  0  0  0  0
   36.4887  -20.5100   37.9568 C   0  0  0  0  0  0  0  0  0  0  0  0
   37.7796  -19.5197   35.9374 C   0  0  0  0  0  0  0  0  0  0  0  0
   35.5778  -19.3340   33.6436 H   0  0  0  0  0  0  0  0  0  0  0  0
   34.2362  -20.4681   35.9334 C   0  0  0  0  0  0  0  0  0  0  0  0
   33.1231  -19.8770   35.5498 C   0  0  0  0  0  0  0  0  0  0  0  0
   32.9983  -18.6606   34.7613 C   0  0  0  0  0  0  0  0  0  0  0  0
   33.9290  -17.9730   34.2867 O   0  0  0  0  0  0  0  0  0  0  0  0
   31.5855  -18.4147   34.6377 N   0  0  0  0  0  0  0  0  0  0  0  0
   30.8655  -19.4376   35.3207 C   0  0  0  0  0  0  0  0  0  0  0  0
   29.4999  -19.6513   35.4935 C   0  0  0  0  0  0  0  0  0  0  0  0
   29.0412  -20.7301   36.2058 C   0  0  0  0  0  0  0  0  0  0  0  0
   29.9197  -21.6293   36.7682 C   0  0  0  0  0  0  0  0  0  0  0  0
   29.5122  -22.6989   37.4732 F   0  0  0  0  0  0  0  0  0  0  0  0
   31.2864  -21.3942   36.5815 C   0  0  0  0  0  0  0  0  0  0  0  0
   31.7469  -20.3263   35.8761 C   0  0  0  0  0  0  0  0  0  0  0  0
   31.1786  -17.6135   34.1276 H   0  0  0  0  0  0  0  0  0  0  0  0
   39.0728  -19.4035   36.5609 C   0  0  0  0  0  0  0  0  0  0  0  0
   39.4503  -20.4715   37.1938 O   0  0  0  0  0  0  0  0  0  0  0  0
   39.9505  -18.3141   36.5688 N   0  0  0  0  0  0  0  0  0  0  0  0
   39.7635  -17.4280   36.1001 H   0  0  0  0  0  0  0  0  0  0  0  0
   41.2099  -18.4435   37.2773 C   0  0  0  0  0  0  0  0  0  0  0  0
   42.3527  -18.7140   36.2900 C   0  0  0  0  0  0  0  0  0  0  0  0
   42.6556  -20.1620   36.3702 C   0  0  0  0  0  0  0  0  0  0  0  0
   42.9984  -20.8286   35.0809 C   0  0  0  0  0  0  0  0  0  0  0  0
   41.8460  -20.4892   34.1221 C   0  0  0  0  0  0  0  0  0  0  0  0
   41.9565  -21.2621   32.9965 O   0  0  0  0  0  0  0  0  0  0  0  0
   42.0627  -19.0282   33.8018 C   0  0  0  0  0  0  0  0  0  0  0  0
   42.0613  -18.1347   34.9787 C   0  0  0  0  0  0  0  0  0  0  0  0
   41.0232  -21.4412   32.6651 H   0  0  0  0  0  0  0  0  0  0  0  0
  1  2  1  0  0  0
  2  3  1  0  0  0
  3  4  1  0  0  0
  4  9  1  0  0  0
  9 10  2  0  0  0
 10 11  1  0  0  0
 11 12  2  0  0  0
 11 13  1  0  0  0
 13 14  1  0  0  0
 14 15  2  0  0  0
 15 16  1  0  0  0
 16 17  2  0  0  0
 17 18  1  0  0  0
 17 19  1  0  0  0
 19 20  2  0  0  0
  4  5  2  0  0  0
  5  6  1  0  0  0
  5  7  1  0  0  0
  7 22  1  0  0  0
 22 23  2  0  0  0
 22 24  1  0  0  0
 24 26  1  0  0  0
 26 27  1  0  0  0
 27 28  1  0  0  0
 28 29  1  0  0  0
 29 30  1  0  0  0
 30 31  1  0  0  0
 30 32  1  0  0  0
 32 33  1  0  0  0
  7  2  2  0  0  0
 33 27  1  0  0  0
 20 10  1  0  0  0
 20 14  1  0  0  0
  3  8  1  0  0  0
 13 21  1  0  0  0
 24 25  1  0  0  0
 31 34  1  0  0  0
M  END
> <minimizedAffinity>
-6.53470

> <CNNscore>
0.4599007666

> <CNNaffinity>
5.2998309135

> <CNN_VS>
2.4373962879

> <CNNaffinity_variance>
0.1578308940

$$$$
[H]O[C@]1([H])C([H])([H])C([H])([H])[C@@]([H])(C([H])([H])N([H])C(=O)c2c(C([H])([H])[H])c(/C([H])=C3\C(=O)N([H])c4c([H])c([H])c(F)c([H])c43)n([H])c2C([H])([H])[H])C([H])([H])C1([H])[H]


 34 37  0  0  0  0  0  0  0  0999 V2000
   33.4778  -18.0632   35.5456 C   0  0  0  0  0  0  0  0  0  0  0  0
   34.3703  -16.9229   35.9547 C   0  0  0  0  0  0  0  0  0  0  0  0
   34.0997  -15.6242   35.6704 N   0  0  0  0  0  0  0  0  0  0  0  0
   35.0315  -14.7948   36.1235 C   0  0  0  0  0  0  0  0  0  0  0  0
   35.9605  -15.6191   36.7378 C   0  0  0  0  0  0  0  0  0  0  0  0
   37.2082  -15.1108   37.4024 C   0  0  0  0  0  0  0  0  0  0  0  0
   35.5516  -16.9528   36.6359 C   0  0  0  0  0  0  0  0  0  0  0  0
   33.2534  -15.3343   35.1383 H   0  0  0  0  0  0  0  0  0  0  0  0
   35.1357  -13.3531   36.0664 C   0  0  0  0  0  0  0  0  0  0  0  0
   34.3552  -12.5100   36.7110 C   0  0  0  0  0  0  0  0  0  0  0  0
   33.2527  -12.8360   37.6026 C   0  0  0  0  0  0  0  0  0  0  0  0
   32.8659  -13.9782   37.9342 O   0  0  0  0  0  0  0  0  0  0  0  0
   32.7026  -11.5751   38.0259 N   0  0  0  0  0  0  0  0  0  0  0  0
   33.4354  -10.5124   37.4220 C   0  0  0  0  0  0  0  0  0  0  0  0
   33.3020   -9.1286   37.5100 C   0  0  0  0  0  0  0  0  0  0  0  0
   34.1459   -8.2952   36.8206 C   0  0  0  0  0  0  0  0  0  0  0  0
   35.1463   -8.8061   36.0239 C   0  0  0  0  0  0  0  0  0  0  0  0
   35.9940   -8.0251   35.3322 F   0  0  0  0  0  0  0  0  0  0  0  0
   35.2610  -10.1987   35.9511 C   0  0  0  0  0  0  0  0  0  0  0  0
   34.4273  -11.0298   36.6324 C   0  0  0  0  0  0  0  0  0  0  0  0
   31.8997  -11.4792   38.6693 H   0  0  0  0  0  0  0  0  0  0  0  0
   36.2526  -18.0913   37.1718 C   0  0  0  0  0  0  0  0  0  0  0  0
   35.7099  -18.5890   38.2402 O   0  0  0  0  0  0  0  0  0  0  0  0
   37.4129  -18.7125   36.6975 N   0  0  0  0  0  0  0  0  0  0  0  0
   37.9199  -18.4137   35.8648 H   0  0  0  0  0  0  0  0  0  0  0  0
   37.9319  -19.8574   37.4220 C   0  0  0  0  0  0  0  0  0  0  0  0
   39.2953  -20.2746   36.8553 C   0  0  0  0  0  0  0  0  0  0  0  0
   39.4995  -19.4964   35.6113 C   0  0  0  0  0  0  0  0  0  0  0  0
   40.8916  -19.0253   35.3581 C   0  0  0  0  0  0  0  0  0  0  0  0
   41.3116  -18.2762   36.6328 C   0  0  0  0  0  0  0  0  0  0  0  0
   42.4793  -17.6014   36.3926 O   0  0  0  0  0  0  0  0  0  0  0  0
   41.5192  -19.3783   37.6460 C   0  0  0  0  0  0  0  0  0  0  0  0
   40.3307  -20.2224   37.8875 C   0  0  0  0  0  0  0  0  0  0  0  0
   42.4610  -16.7654   36.9527 H   0  0  0  0  0  0  0  0  0  0  0  0
  1  2  1  0  0  0
  2  3  1  0  0  0
  3  4  1  0  0  0
  4  9  1  0  0  0
  9 10  2  0  0  0
 10 11  1  0  0  0
 11 12  2  0  0  0
 11 13  1  0  0  0
 13 14  1  0  0  0
 14 15  2  0  0  0
 15 16  1  0  0  0
 16 17  2  0  0  0
 17 18  1  0  0  0
 17 19  1  0  0  0
 19 20  2  0  0  0
  4  5  2  0  0  0
  5  6  1  0  0  0
  5  7  1  0  0  0
  7 22  1  0  0  0
 22 23  2  0  0  0
 22 24  1  0  0  0
 24 26  1  0  0  0
 26 27  1  0  0  0
 27 28  1  0  0  0
 28 29  1  0  0  0
 29 30  1  0  0  0
 30 31  1  0  0  0
 30 32  1  0  0  0
 32 33  1  0  0  0
  7  2  2  0  0  0
 33 27  1  0  0  0
 20 10  1  0  0  0
 20 14  1  0  0  0
  3  8  1  0  0  0
 13 21  1  0  0  0
 24 25  1  0  0  0
 31 34  1  0  0  0
M  END
> <minimizedAffinity>
-7.87775

> <CNNscore>
0.4405348003

> <CNNaffinity>
6.0985031128

> <CNN_VS>
2.6866028309

> <CNNaffinity_variance>
0.1699599475

$$$$
[H]O[C@]1([H])C([H])([H])C([H])([H])[C@@]([H])(C([H])([H])N([H])C(=O)c2c(C([H])([H])[H])c(/C([H])=C3\C(=O)N([H])c4c([H])c([H])c(F)c([H])c43)n([H])c2C([H])([H])[H])C([H])([H])C1([H])[H]


 34 37  0  0  0  0  0  0  0  0999 V2000
   34.8611  -19.1328   36.2969 C   0  0  0  0  0  0  0  0  0  0  0  0
   35.5927  -20.1168   37.1693 C   0  0  0  0  0  0  0  0  0  0  0  0
   36.8004  -19.8613   37.7320 N   0  0  0  0  0  0  0  0  0  0  0  0
   37.2556  -20.8778   38.4538 C   0  0  0  0  0  0  0  0  0  0  0  0
   36.2730  -21.8485   38.3440 C   0  0  0  0  0  0  0  0  0  0  0  0
   36.3593  -23.1939   39.0069 C   0  0  0  0  0  0  0  0  0  0  0  0
   35.2287  -21.3775   37.5415 C   0  0  0  0  0  0  0  0  0  0  0  0
   37.3049  -18.9627   37.5860 H   0  0  0  0  0  0  0  0  0  0  0  0
   38.4655  -21.0298   39.2320 C   0  0  0  0  0  0  0  0  0  0  0  0
   39.6892  -21.0023   38.7449 C   0  0  0  0  0  0  0  0  0  0  0  0
   40.0806  -20.8109   37.3567 C   0  0  0  0  0  0  0  0  0  0  0  0
   39.3225  -20.6140   36.3817 O   0  0  0  0  0  0  0  0  0  0  0  0
   41.5176  -20.8914   37.3382 N   0  0  0  0  0  0  0  0  0  0  0  0
   41.9959  -21.1220   38.6608 C   0  0  0  0  0  0  0  0  0  0  0  0
   43.2852  -21.2734   39.1660 C   0  0  0  0  0  0  0  0  0  0  0  0
   43.4955  -21.4905   40.5041 C   0  0  0  0  0  0  0  0  0  0  0  0
   42.4367  -21.5643   41.3817 C   0  0  0  0  0  0  0  0  0  0  0  0
   42.5989  -21.7754   42.6993 F   0  0  0  0  0  0  0  0  0  0  0  0
   41.1511  -21.4092   40.8514 C   0  0  0  0  0  0  0  0  0  0  0  0
   40.9367  -21.1937   39.5256 C   0  0  0  0  0  0  0  0  0  0  0  0
   42.0931  -20.7941   36.4855 H   0  0  0  0  0  0  0  0  0  0  0  0
   34.0254  -22.0994   37.2166 C   0  0  0  0  0  0  0  0  0  0  0  0
   33.1082  -22.0335   38.1320 O   0  0  0  0  0  0  0  0  0  0  0  0
   33.7283  -22.8417   36.0686 N   0  0  0  0  0  0  0  0  0  0  0  0
   34.3677  -22.9568   35.2827 H   0  0  0  0  0  0  0  0  0  0  0  0
   32.4315  -23.4855   35.9757 C   0  0  0  0  0  0  0  0  0  0  0  0
   31.5034  -22.6864   35.0515 C   0  0  0  0  0  0  0  0  0  0  0  0
   30.4304  -22.1229   35.9035 C   0  0  0  0  0  0  0  0  0  0  0  0
   29.9760  -20.7461   35.5541 C   0  0  0  0  0  0  0  0  0  0  0  0
   31.2508  -19.8884   35.5157 C   0  0  0  0  0  0  0  0  0  0  0  0
   30.9001  -18.5660   35.4461 O   0  0  0  0  0  0  0  0  0  0  0  0
   31.9463  -20.3337   34.2498 C   0  0  0  0  0  0  0  0  0  0  0  0
   32.2684  -21.7749   34.2005 C   0  0  0  0  0  0  0  0  0  0  0  0
   31.6085  -18.0436   35.9341 H   0  0  0  0  0  0  0  0  0  0  0  0
  1  2  1  0  0  0
  2  3  1  0  0  0
  3  4  1  0  0  0
  4  9  1  0  0  0
  9 10  2  0  0  0
 10 11  1  0  0  0
 11 12  2  0  0  0
 11 13  1  0  0  0
 13 14  1  0  0  0
 14 15  2  0  0  0
 15 16  1  0  0  0
 16 17  2  0  0  0
 17 18  1  0  0  0
 17 19  1  0  0  0
 19 20  2  0  0  0
  4  5  2  0  0  0
  5  6  1  0  0  0
  5  7  1  0  0  0
  7 22  1  0  0  0
 22 23  2  0  0  0
 22 24  1  0  0  0
 24 26  1  0  0  0
 26 27  1  0  0  0
 27 28  1  0  0  0
 28 29  1  0  0  0
 29 30  1  0  0  0
 30 31  1  0  0  0
 30 32  1  0  0  0
 32 33  1  0  0  0
  7  2  2  0  0  0
 33 27  1  0  0  0
 20 10  1  0  0  0
 20 14  1  0  0  0
  3  8  1  0  0  0
 13 21  1  0  0  0
 24 25  1  0  0  0
 31 34  1  0  0  0
M  END
> <minimizedAffinity>
-5.31456

> <CNNscore>
0.4395290613

> <CNNaffinity>
4.9387006760

> <CNN_VS>
2.1707024574

> <CNNaffinity_variance>
0.0506591126

$$$$
[H]O[C@]1([H])C([H])([H])C([H])([H])[C@@]([H])(C([H])([H])N([H])C(=O)c2c(C([H])([H])[H])c(/C([H])=C3\C(=O)N([H])c4c([H])c([H])c(F)c([H])c43)n([H])c2C([H])([H])[H])C([H])([H])C1([H])[H]


 34 37  0  0  0  0  0  0  0  0999 V2000
   33.5048  -17.9723   35.5622 C   0  0  0  0  0  0  0  0  0  0  0  0
   34.3859  -16.8194   35.9609 C   0  0  0  0  0  0  0  0  0  0  0  0
   34.0820  -15.5231   35.7009 N   0  0  0  0  0  0  0  0  0  0  0  0
   35.0097  -14.6808   36.1385 C   0  0  0  0  0  0  0  0  0  0  0  0
   35.9715  -15.4938   36.7162 C   0  0  0  0  0  0  0  0  0  0  0  0
   37.2271  -14.9688   37.3524 C   0  0  0  0  0  0  0  0  0  0  0  0
   35.5862  -16.8341   36.6087 C   0  0  0  0  0  0  0  0  0  0  0  0
   33.2156  -15.2437   35.1962 H   0  0  0  0  0  0  0  0  0  0  0  0
   35.0838  -13.2367   36.0969 C   0  0  0  0  0  0  0  0  0  0  0  0
   34.2601  -12.4166   36.7168 C   0  0  0  0  0  0  0  0  0  0  0  0
   33.1309  -12.7746   37.5616 C   0  0  0  0  0  0  0  0  0  0  0  0
   32.7569  -13.9279   37.8686 O   0  0  0  0  0  0  0  0  0  0  0  0
   32.5366  -11.5297   37.9728 N   0  0  0  0  0  0  0  0  0  0  0  0
   33.2687  -10.4460   37.4067 C   0  0  0  0  0  0  0  0  0  0  0  0
   33.1012   -9.0662   37.5002 C   0  0  0  0  0  0  0  0  0  0  0  0
   33.9527   -8.2086   36.8513 C   0  0  0  0  0  0  0  0  0  0  0  0
   34.9949   -8.6904   36.0907 C   0  0  0  0  0  0  0  0  0  0  0  0
   35.8515   -7.8849   35.4392 F   0  0  0  0  0  0  0  0  0  0  0  0
   35.1433  -10.0795   36.0115 C   0  0  0  0  0  0  0  0  0  0  0  0
   34.3022  -10.9346   36.6528 C   0  0  0  0  0  0  0  0  0  0  0  0
   31.7071  -11.4572   38.5846 H   0  0  0  0  0  0  0  0  0  0  0  0
   36.3241  -17.9648   37.1103 C   0  0  0  0  0  0  0  0  0  0  0  0
   35.7993  -18.5108   38.1640 O   0  0  0  0  0  0  0  0  0  0  0  0
   37.5029  -18.5343   36.6172 N   0  0  0  0  0  0  0  0  0  0  0  0
   37.9987  -18.1951   35.7932 H   0  0  0  0  0  0  0  0  0  0  0  0
   38.0595  -19.6827   37.3073 C   0  0  0  0  0  0  0  0  0  0  0  0
   39.2541  -20.2471   36.5273 C   0  0  0  0  0  0  0  0  0  0  0  0
   38.7116  -21.2386   35.5694 C   0  0  0  0  0  0  0  0  0  0  0  0
   39.3637  -21.2742   34.2287 C   0  0  0  0  0  0  0  0  0  0  0  0
   39.3229  -19.8274   33.7117 C   0  0  0  0  0  0  0  0  0  0  0  0
   39.6762  -19.8135   32.3883 O   0  0  0  0  0  0  0  0  0  0  0  0
   40.3530  -19.1139   34.5569 C   0  0  0  0  0  0  0  0  0  0  0  0
   40.0998  -19.1706   36.0115 C   0  0  0  0  0  0  0  0  0  0  0  0
   39.1673  -19.0630   31.9517 H   0  0  0  0  0  0  0  0  0  0  0  0
  1  2  1  0  0  0
  2  3  1  0  0  0
  3  4  1  0  0  0
  4  9  1  0  0  0
  9 10  2  0  0  0
 10 11  1  0  0  0
 11 12  2  0  0  0
 11 13  1  0  0  0
 13 14  1  0  0  0
 14 15  2  0  0  0
 15 16  1  0  0  0
 16 17  2  0  0  0
 17 18  1  0  0  0
 17 19  1  0  0  0
 19 20  2  0  0  0
  4  5  2  0  0  0
  5  6  1  0  0  0
  5  7  1  0  0  0
  7 22  1  0  0  0
 22 23  2  0  0  0
 22 24  1  0  0  0
 24 26  1  0  0  0
 26 27  1  0  0  0
 27 28  1  0  0  0
 28 29  1  0  0  0
 29 30  1  0  0  0
 30 31  1  0  0  0
 30 32  1  0  0  0
 32 33  1  0  0  0
  7  2  2  0  0  0
 33 27  1  0  0  0
 20 10  1  0  0  0
 20 14  1  0  0  0
  3  8  1  0  0  0
 13 21  1  0  0  0
 24 25  1  0  0  0
 31 34  1  0  0  0
M  END
> <minimizedAffinity>
-8.40364

> <CNNscore>
0.4323799908

> <CNNaffinity>
5.9935197830

> <CNN_VS>
2.5914781094

> <CNNaffinity_variance>
0.1402129233

$$$$
[H]O[C@]1([H])C([H])([H])C([H])([H])[C@@]([H])(C([H])([H])N([H])C(=O)c2c(C([H])([H])[H])c(/C([H])=C3\C(=O)N([H])c4c([H])c([H])c(F)c([H])c43)n([H])c2C([H])([H])[H])C([H])([H])C1([H])[H]


 34 37  0  0  0  0  0  0  0  0999 V2000
   38.9424  -18.7995   33.7601 C   0  0  0  0  0  0  0  0  0  0  0  0
   37.9862  -19.3087   34.8045 C   0  0  0  0  0  0  0  0  0  0  0  0
   36.6714  -19.5404   34.5633 N   0  0  0  0  0  0  0  0  0  0  0  0
   36.0225  -19.9788   35.6348 C   0  0  0  0  0  0  0  0  0  0  0  0
   36.9875  -20.0297   36.6278 C   0  0  0  0  0  0  0  0  0  0  0  0
   36.7060  -20.4748   38.0348 C   0  0  0  0  0  0  0  0  0  0  0  0
   38.2194  -19.6120   36.1138 C   0  0  0  0  0  0  0  0  0  0  0  0
   36.2365  -19.3698   33.6331 H   0  0  0  0  0  0  0  0  0  0  0  0
   34.6414  -20.3659   35.8223 C   0  0  0  0  0  0  0  0  0  0  0  0
   33.5975  -19.6773   35.4079 C   0  0  0  0  0  0  0  0  0  0  0  0
   33.6058  -18.4150   34.6844 C   0  0  0  0  0  0  0  0  0  0  0  0
   34.6092  -17.7715   34.3060 O   0  0  0  0  0  0  0  0  0  0  0  0
   32.2236  -18.0627   34.4916 N   0  0  0  0  0  0  0  0  0  0  0  0
   31.3941  -19.0663   35.0709 C   0  0  0  0  0  0  0  0  0  0  0  0
   30.0089  -19.1907   35.1499 C   0  0  0  0  0  0  0  0  0  0  0  0
   29.4338  -20.2704   35.7708 C   0  0  0  0  0  0  0  0  0  0  0  0
   30.2119  -21.2585   36.3318 C   0  0  0  0  0  0  0  0  0  0  0  0
   29.6888  -22.3322   36.9489 F   0  0  0  0  0  0  0  0  0  0  0  0
   31.6004  -21.1121   36.2402 C   0  0  0  0  0  0  0  0  0  0  0  0
   32.1761  -20.0439   35.6258 C   0  0  0  0  0  0  0  0  0  0  0  0
   31.9052  -17.2085   34.0050 H   0  0  0  0  0  0  0  0  0  0  0  0
   39.4588  -19.5493   36.8449 C   0  0  0  0  0  0  0  0  0  0  0  0
   39.6754  -20.5793   37.6038 O   0  0  0  0  0  0  0  0  0  0  0  0
   40.4333  -18.5455   36.8390 N   0  0  0  0  0  0  0  0  0  0  0  0
   40.3738  -17.6965   36.2774 H   0  0  0  0  0  0  0  0  0  0  0  0
   41.6082  -18.7150   37.6731 C   0  0  0  0  0  0  0  0  0  0  0  0
   42.8824  -18.6454   36.8214 C   0  0  0  0  0  0  0  0  0  0  0  0
   42.4497  -18.5847   35.4058 C   0  0  0  0  0  0  0  0  0  0  0  0
   43.2540  -17.6989   34.5156 C   0  0  0  0  0  0  0  0  0  0  0  0
   43.2829  -16.3297   35.2134 C   0  0  0  0  0  0  0  0  0  0  0  0
   43.7888  -15.3958   34.3483 O   0  0  0  0  0  0  0  0  0  0  0  0
   44.2113  -16.5432   36.3867 C   0  0  0  0  0  0  0  0  0  0  0  0
   43.7892  -17.6102   37.3177 C   0  0  0  0  0  0  0  0  0  0  0  0
   43.3391  -14.5203   34.5585 H   0  0  0  0  0  0  0  0  0  0  0  0
  1  2  1  0  0  0
  2  3  1  0  0  0
  3  4  1  0  0  0
  4  9  1  0  0  0
  9 10  2  0  0  0
 10 11  1  0  0  0
 11 12  2  0  0  0
 11 13  1  0  0  0
 13 14  1  0  0  0
 14 15  2  0  0  0
 15 16  1  0  0  0
 16 17  2  0  0  0
 17 18  1  0  0  0
 17 19  1  0  0  0
 19 20  2  0  0  0
  4  5  2  0  0  0
  5  6  1  0  0  0
  5  7  1  0  0  0
  7 22  1  0  0  0
 22 23  2  0  0  0
 22 24  1  0  0  0
 24 26  1  0  0  0
 26 27  1  0  0  0
 27 28  1  0  0  0
 28 29  1  0  0  0
 29 30  1  0  0  0
 30 31  1  0  0  0
 30 32  1  0  0  0
 32 33  1  0  0  0
  7  2  2  0  0  0
 33 27  1  0  0  0
 20 10  1  0  0  0
 20 14  1  0  0  0
  3  8  1  0  0  0
 13 21  1  0  0  0
 24 25  1  0  0  0
 31 34  1  0  0  0
M  END
> <minimizedAffinity>
-7.21474

> <CNNscore>
0.4117981195

> <CNNaffinity>
5.2620811462

> <CNN_VS>
2.1669151783

> <CNNaffinity_variance>
0.2443328798

$$$$
[H]O[C@]1([H])C([H])([H])C([H])([H])[C@@]([H])(C([H])([H])N([H])C(=O)c2c(C([H])([H])[H])c(/C([H])=C3\C(=O)N([H])c4c([H])c([H])c(F)c([H])c43)n([H])c2C([H])([H])[H])C([H])([H])C1([H])[H]


 34 37  0  0  0  0  0  0  0  0999 V2000
   39.2825  -20.7478   34.5022 C   0  0  0  0  0  0  0  0  0  0  0  0
   38.3719  -19.9761   35.4185 C   0  0  0  0  0  0  0  0  0  0  0  0
   38.1483  -18.6433   35.2996 N   0  0  0  0  0  0  0  0  0  0  0  0
   37.3157  -18.1782   36.2227 C   0  0  0  0  0  0  0  0  0  0  0  0
   36.9859  -19.2885   36.9831 C   0  0  0  0  0  0  0  0  0  0  0  0
   36.0547  -19.2394   38.1610 C   0  0  0  0  0  0  0  0  0  0  0  0
   37.6436  -20.4175   36.4840 C   0  0  0  0  0  0  0  0  0  0  0  0
   38.6049  -18.0645   34.5648 H   0  0  0  0  0  0  0  0  0  0  0  0
   36.7912  -16.8499   36.4528 C   0  0  0  0  0  0  0  0  0  0  0  0
   35.5831  -16.4432   36.1204 C   0  0  0  0  0  0  0  0  0  0  0  0
   34.5385  -17.2223   35.4732 C   0  0  0  0  0  0  0  0  0  0  0  0
   34.5954  -18.4263   35.1395 O   0  0  0  0  0  0  0  0  0  0  0  0
   33.4273  -16.3238   35.3001 N   0  0  0  0  0  0  0  0  0  0  0  0
   33.7698  -15.0418   35.8199 C   0  0  0  0  0  0  0  0  0  0  0  0
   33.0523  -13.8500   35.8920 C   0  0  0  0  0  0  0  0  0  0  0  0
   33.6084  -12.7267   36.4496 C   0  0  0  0  0  0  0  0  0  0  0  0
   34.8905  -12.7492   36.9520 C   0  0  0  0  0  0  0  0  0  0  0  0
   35.4724  -11.6716   37.5061 F   0  0  0  0  0  0  0  0  0  0  0  0
   35.5917  -13.9573   36.8685 C   0  0  0  0  0  0  0  0  0  0  0  0
   35.0454  -15.0741   36.3169 C   0  0  0  0  0  0  0  0  0  0  0  0
   32.5292  -16.5894   34.8635 H   0  0  0  0  0  0  0  0  0  0  0  0
   37.5314  -21.7558   37.0047 C   0  0  0  0  0  0  0  0  0  0  0  0
   38.2212  -21.9604   38.0845 O   0  0  0  0  0  0  0  0  0  0  0  0
   36.7912  -22.8336   36.5072 N   0  0  0  0  0  0  0  0  0  0  0  0
   36.2079  -22.7875   35.6721 H   0  0  0  0  0  0  0  0  0  0  0  0
   36.8427  -24.0971   37.2184 C   0  0  0  0  0  0  0  0  0  0  0  0
   35.5017  -24.3759   37.9096 C   0  0  0  0  0  0  0  0  0  0  0  0
   35.6803  -24.0448   39.3426 C   0  0  0  0  0  0  0  0  0  0  0  0
   34.5154  -23.3980   40.0124 C   0  0  0  0  0  0  0  0  0  0  0  0
   34.1569  -22.1865   39.1371 C   0  0  0  0  0  0  0  0  0  0  0  0
   33.2601  -21.3978   39.8080 O   0  0  0  0  0  0  0  0  0  0  0  0
   33.5266  -22.8032   37.9096 C   0  0  0  0  0  0  0  0  0  0  0  0
   34.3967  -23.7508   37.1827 C   0  0  0  0  0  0  0  0  0  0  0  0
   33.4350  -20.4460   39.5315 H   0  0  0  0  0  0  0  0  0  0  0  0
  1  2  1  0  0  0
  2  3  1  0  0  0
  3  4  1  0  0  0
  4  9  1  0  0  0
  9 10  2  0  0  0
 10 11  1  0  0  0
 11 12  2  0  0  0
 11 13  1  0  0  0
 13 14  1  0  0  0
 14 15  2  0  0  0
 15 16  1  0  0  0
 16 17  2  0  0  0
 17 18  1  0  0  0
 17 19  1  0  0  0
 19 20  2  0  0  0
  4  5  2  0  0  0
  5  6  1  0  0  0
  5  7  1  0  0  0
  7 22  1  0  0  0
 22 23  2  0  0  0
 22 24  1  0  0  0
 24 26  1  0  0  0
 26 27  1  0  0  0
 27 28  1  0  0  0
 28 29  1  0  0  0
 29 30  1  0  0  0
 30 31  1  0  0  0
 30 32  1  0  0  0
 32 33  1  0  0  0
  7  2  2  0  0  0
 33 27  1  0  0  0
 20 10  1  0  0  0
 20 14  1  0  0  0
  3  8  1  0  0  0
 13 21  1  0  0  0
 24 25  1  0  0  0
 31 34  1  0  0  0
M  END
> <minimizedAffinity>
-6.43583

> <CNNscore>
0.3994306922

> <CNNaffinity>
5.4078221321

> <CNN_VS>
2.1600501537

> <CNNaffinity_variance>
0.2123076916

$$$$
[H]O[C@]1([H])C([H])([H])C([H])([H])[C@@]([H])(C([H])([H])N([H])C(=O)c2c(C([H])([H])[H])c(/C([H])=C3\C(=O)N([H])c4c([H])c([H])c(F)c([H])c43)n([H])c2C([H])([H])[H])C([H])([H])C1([H])[H]


 34 37  0  0  0  0  0  0  0  0999 V2000
   33.6645  -17.9926   35.4159 C   0  0  0  0  0  0  0  0  0  0  0  0
   34.5039  -16.8327   35.8790 C   0  0  0  0  0  0  0  0  0  0  0  0
   34.2088  -15.5387   35.5979 N   0  0  0  0  0  0  0  0  0  0  0  0
   35.0945  -14.6890   36.1031 C   0  0  0  0  0  0  0  0  0  0  0  0
   36.0180  -15.4944   36.7497 C   0  0  0  0  0  0  0  0  0  0  0  0
   37.2188  -14.9594   37.4770 C   0  0  0  0  0  0  0  0  0  0  0  0
   35.6532  -16.8378   36.6135 C   0  0  0  0  0  0  0  0  0  0  0  0
   33.3797  -15.2661   35.0308 H   0  0  0  0  0  0  0  0  0  0  0  0
   35.1591  -13.2443   36.0677 C   0  0  0  0  0  0  0  0  0  0  0  0
   34.3313  -12.4323   36.6930 C   0  0  0  0  0  0  0  0  0  0  0  0
   33.2063  -12.8014   37.5385 C   0  0  0  0  0  0  0  0  0  0  0  0
   32.8406  -13.9585   37.8413 O   0  0  0  0  0  0  0  0  0  0  0  0
   32.6048  -11.5623   37.9565 N   0  0  0  0  0  0  0  0  0  0  0  0
   33.3286  -10.4713   37.3936 C   0  0  0  0  0  0  0  0  0  0  0  0
   33.1523   -9.0931   37.4937 C   0  0  0  0  0  0  0  0  0  0  0  0
   33.9968   -8.2270   36.8467 C   0  0  0  0  0  0  0  0  0  0  0  0
   35.0404   -8.6986   36.0818 C   0  0  0  0  0  0  0  0  0  0  0  0
   35.8904   -7.8848   35.4321 F   0  0  0  0  0  0  0  0  0  0  0  0
   35.1978  -10.0864   35.9961 C   0  0  0  0  0  0  0  0  0  0  0  0
   34.3636  -10.9498   36.6354 C   0  0  0  0  0  0  0  0  0  0  0  0
   31.7762  -11.4979   38.5704 H   0  0  0  0  0  0  0  0  0  0  0  0
   36.3618  -17.9627   37.1677 C   0  0  0  0  0  0  0  0  0  0  0  0
   37.6152  -18.0114   36.8355 O   0  0  0  0  0  0  0  0  0  0  0  0
   35.8823  -18.9815   37.9980 N   0  0  0  0  0  0  0  0  0  0  0  0
   34.9195  -19.0418   38.3285 H   0  0  0  0  0  0  0  0  0  0  0  0
   36.8033  -20.0169   38.4276 C   0  0  0  0  0  0  0  0  0  0  0  0
   36.0587  -21.0980   39.2218 C   0  0  0  0  0  0  0  0  0  0  0  0
   37.0740  -21.8125   40.0302 C   0  0  0  0  0  0  0  0  0  0  0  0
   36.6480  -22.2191   41.4004 C   0  0  0  0  0  0  0  0  0  0  0  0
   36.1172  -20.9385   42.0642 C   0  0  0  0  0  0  0  0  0  0  0  0
   35.9359  -21.1686   43.4024 O   0  0  0  0  0  0  0  0  0  0  0  0
   34.7966  -20.6944   41.3708 C   0  0  0  0  0  0  0  0  0  0  0  0
   34.8925  -20.5378   39.9046 C   0  0  0  0  0  0  0  0  0  0  0  0
   36.1157  -20.3017   43.8810 H   0  0  0  0  0  0  0  0  0  0  0  0
  1  2  1  0  0  0
  2  3  1  0  0  0
  3  4  1  0  0  0
  4  9  1  0  0  0
  9 10  2  0  0  0
 10 11  1  0  0  0
 11 12  2  0  0  0
 11 13  1  0  0  0
 13 14  1  0  0  0
 14 15  2  0  0  0
 15 16  1  0  0  0
 16 17  2  0  0  0
 17 18  1  0  0  0
 17 19  1  0  0  0
 19 20  2  0  0  0
  4  5  2  0  0  0
  5  6  1  0  0  0
  5  7  1  0  0  0
  7 22  1  0  0  0
 22 23  2  0  0  0
 22 24  1  0  0  0
 24 26  1  0  0  0
 26 27  1  0  0  0
 27 28  1  0  0  0
 28 29  1  0  0  0
 29 30  1  0  0  0
 30 31  1  0  0  0
 30 32  1  0  0  0
 32 33  1  0  0  0
  7  2  2  0  0  0
 33 27  1  0  0  0
 20 10  1  0  0  0
 20 14  1  0  0  0
  3  8  1  0  0  0
 13 21  1  0  0  0
 24 25  1  0  0  0
 31 34  1  0  0  0
M  END
> <minimizedAffinity>
-7.53543

> <CNNscore>
0.3621981144

> <CNNaffinity>
5.8650851250

> <CNN_VS>
2.1243228912

> <CNNaffinity_variance>
0.0873891860

$$$$
[H]O[C@]1([H])C([H])([H])C([H])([H])[C@@]([H])(C([H])([H])N([H])C(=O)c2c(C([H])([H])[H])c(/C([H])=C3\C(=O)N([H])c4c([H])c([H])c(F)c([H])c43)n([H])c2C([H])([H])[H])C([H])([H])C1([H])[H]


 34 37  0  0  0  0  0  0  0  0999 V2000
   39.2414  -19.1352   33.5706 C   0  0  0  0  0  0  0  0  0  0  0  0
   38.2638  -19.5150   34.6497 C   0  0  0  0  0  0  0  0  0  0  0  0
   36.9483  -19.7501   34.4160 N   0  0  0  0  0  0  0  0  0  0  0  0
   36.2788  -20.0616   35.5189 C   0  0  0  0  0  0  0  0  0  0  0  0
   37.2305  -20.0219   36.5251 C   0  0  0  0  0  0  0  0  0  0  0  0
   36.9243  -20.3101   37.9673 C   0  0  0  0  0  0  0  0  0  0  0  0
   38.4757  -19.6808   35.9869 C   0  0  0  0  0  0  0  0  0  0  0  0
   36.5278  -19.6726   33.4670 H   0  0  0  0  0  0  0  0  0  0  0  0
   34.8890  -20.4046   35.7271 C   0  0  0  0  0  0  0  0  0  0  0  0
   33.8614  -19.6947   35.3079 C   0  0  0  0  0  0  0  0  0  0  0  0
   33.8990  -18.4485   34.5580 C   0  0  0  0  0  0  0  0  0  0  0  0
   34.9168  -17.8422   34.1570 O   0  0  0  0  0  0  0  0  0  0  0  0
   32.5257  -18.0603   34.3705 N   0  0  0  0  0  0  0  0  0  0  0  0
   31.6733  -19.0272   34.9784 C   0  0  0  0  0  0  0  0  0  0  0  0
   30.2859  -19.1098   35.0726 C   0  0  0  0  0  0  0  0  0  0  0  0
   29.6861  -20.1592   35.7212 C   0  0  0  0  0  0  0  0  0  0  0  0
   30.4408  -21.1577   36.2958 C   0  0  0  0  0  0  0  0  0  0  0  0
   29.8931  -22.2027   36.9400 F   0  0  0  0  0  0  0  0  0  0  0  0
   31.8320  -21.0535   36.1884 C   0  0  0  0  0  0  0  0  0  0  0  0
   32.4322  -20.0153   35.5464 C   0  0  0  0  0  0  0  0  0  0  0  0
   32.2273  -17.2075   33.8691 H   0  0  0  0  0  0  0  0  0  0  0  0
   39.7070  -19.5604   36.7245 C   0  0  0  0  0  0  0  0  0  0  0  0
   40.0721  -18.3347   36.9435 O   0  0  0  0  0  0  0  0  0  0  0  0
   40.5360  -20.5713   37.2225 N   0  0  0  0  0  0  0  0  0  0  0  0
   40.3463  -21.5676   37.1174 H   0  0  0  0  0  0  0  0  0  0  0  0
   41.7380  -20.1912   37.9406 C   0  0  0  0  0  0  0  0  0  0  0  0
   41.7922  -20.8963   39.3022 C   0  0  0  0  0  0  0  0  0  0  0  0
   41.3976  -19.8948   40.3202 C   0  0  0  0  0  0  0  0  0  0  0  0
   40.5609  -20.4035   41.4450 C   0  0  0  0  0  0  0  0  0  0  0  0
   39.3705  -21.1163   40.7838 C   0  0  0  0  0  0  0  0  0  0  0  0
   38.4288  -21.3969   41.7383 O   0  0  0  0  0  0  0  0  0  0  0  0
   39.9746  -22.3848   40.2268 C   0  0  0  0  0  0  0  0  0  0  0  0
   41.0734  -22.1698   39.2625 C   0  0  0  0  0  0  0  0  0  0  0  0
   37.5281  -21.3479   41.2920 H   0  0  0  0  0  0  0  0  0  0  0  0
  1  2  1  0  0  0
  2  3  1  0  0  0
  3  4  1  0  0  0
  4  9  1  0  0  0
  9 10  2  0  0  0
 10 11  1  0  0  0
 11 12  2  0  0  0
 11 13  1  0  0  0
 13 14  1  0  0  0
 14 15  2  0  0  0
 15 16  1  0  0  0
 16 17  2  0  0  0
 17 18  1  0  0  0
 17 19  1  0  0  0
 19 20  2  0  0  0
  4  5  2  0  0  0
  5  6  1  0  0  0
  5  7  1  0  0  0
  7 22  1  0  0  0
 22 23  2  0  0  0
 22 24  1  0  0  0
 24 26  1  0  0  0
 26 27  1  0  0  0
 27 28  1  0  0  0
 28 29  1  0  0  0
 29 30  1  0  0  0
 30 31  1  0  0  0
 30 32  1  0  0  0
 32 33  1  0  0  0
  7  2  2  0  0  0
 33 27  1  0  0  0
 20 10  1  0  0  0
 20 14  1  0  0  0
  3  8  1  0  0  0
 13 21  1  0  0  0
 24 25  1  0  0  0
 31 34  1  0  0  0
M  END
> <minimizedAffinity>
-5.49433

> <CNNscore>
0.3417606652

> <CNNaffinity>
4.9636397362

> <CNN_VS>
1.6963768005

> <CNNaffinity_variance>
0.1030375957

$$$$
[H]c1nc(N([H])[H])c2c(-c3c([H])c([H])c(N([H])C(=O)N([H])c4c([H])c([H])c([H])c(C(F)(F)F)c4[H])c([H])c3[H])c([H])c(C3([H])C([H])([H])C([H])([H])N([H])C([H])([H])C3([H])[H])n2n1


 41 45  0  0  0  0  0  0  0  0999 V2000
   34.8566  -19.1469   36.1264 C   0  0  0  0  0  0  0  0  0  0  0  0
   35.5451  -19.5485   34.9631 C   0  0  0  0  0  0  0  0  0  0  0  0
   36.7930  -19.2695   34.7608 C   0  0  0  0  0  0  0  0  0  0  0  0
   37.5133  -18.5269   35.7735 C   0  0  0  0  0  0  0  0  0  0  0  0
   36.8969  -18.1509   36.8553 C   0  0  0  0  0  0  0  0  0  0  0  0
   35.4903  -18.4402   37.0914 C   0  0  0  0  0  0  0  0  0  0  0  0
   32.3544  -17.9002   34.4857 N   0  0  0  0  0  0  0  0  0  0  0  0
   31.6507  -18.9585   35.1145 C   0  0  0  0  0  0  0  0  0  0  0  0
   30.3523  -19.1259   34.8553 N   0  0  0  0  0  0  0  0  0  0  0  0
   29.7262  -20.1546   35.4649 C   0  0  0  0  0  0  0  0  0  0  0  0
   30.3474  -20.9859   36.2937 N   0  0  0  0  0  0  0  0  0  0  0  0
   31.6481  -20.8688   36.5922 N   0  0  0  0  0  0  0  0  0  0  0  0
   32.4552  -21.5770   37.3393 C   0  0  0  0  0  0  0  0  0  0  0  0
   33.7204  -21.0024   37.2395 C   0  0  0  0  0  0  0  0  0  0  0  0
   33.5843  -19.8811   36.3532 C   0  0  0  0  0  0  0  0  0  0  0  0
   32.3246  -19.8197   35.9885 C   0  0  0  0  0  0  0  0  0  0  0  0
   31.8304  -17.1155   34.0124 H   0  0  0  0  0  0  0  0  0  0  0  0
   33.3795  -17.8669   34.4734 H   0  0  0  0  0  0  0  0  0  0  0  0
   32.2844  -22.7817   38.1896 C   0  0  0  0  0  0  0  0  0  0  0  0
   33.5319  -22.8485   39.0982 C   0  0  0  0  0  0  0  0  0  0  0  0
   33.7634  -24.2499   39.5416 C   0  0  0  0  0  0  0  0  0  0  0  0
   34.0913  -25.1193   38.4325 N   0  0  0  0  0  0  0  0  0  0  0  0
   33.3874  -24.7368   37.2172 C   0  0  0  0  0  0  0  0  0  0  0  0
   32.0855  -24.0453   37.5181 C   0  0  0  0  0  0  0  0  0  0  0  0
   33.7243  -26.0751   38.7338 H   0  0  0  0  0  0  0  0  0  0  0  0
   38.8733  -18.3039   35.3418 N   0  0  0  0  0  0  0  0  0  0  0  0
   39.7876  -18.9042   36.2722 C   0  0  0  0  0  0  0  0  0  0  0  0
   39.3045  -19.5694   37.1946 O   0  0  0  0  0  0  0  0  0  0  0  0
   41.1998  -18.6986   36.0938 N   0  0  0  0  0  0  0  0  0  0  0  0
   39.1265  -17.8398   34.5171 H   0  0  0  0  0  0  0  0  0  0  0  0
   41.6312  -18.1019   35.4214 H   0  0  0  0  0  0  0  0  0  0  0  0
   42.0038  -19.4247   37.0232 C   0  0  0  0  0  0  0  0  0  0  0  0
   42.4281  -20.6973   36.5966 C   0  0  0  0  0  0  0  0  0  0  0  0
   43.1020  -21.4496   37.4601 C   0  0  0  0  0  0  0  0  0  0  0  0
   43.4204  -21.0557   38.7629 C   0  0  0  0  0  0  0  0  0  0  0  0
   43.0062  -19.8210   39.1611 C   0  0  0  0  0  0  0  0  0  0  0  0
   42.2796  -18.9812   38.2756 C   0  0  0  0  0  0  0  0  0  0  0  0
   43.2337  -19.3400   40.5701 C   0  0  0  0  0  0  0  0  0  0  0  0
   43.8386  -18.1292   40.6043 F   0  0  0  0  0  0  0  0  0  0  0  0
   41.9636  -19.2598   41.1705 F   0  0  0  0  0  0  0  0  0  0  0  0
   44.0266  -20.2522   41.1848 F   0  0  0  0  0  0  0  0  0  0  0  0
  7  8  1  0  0  0
  8  9  2  0  0  0
  9 10  1  0  0  0
 10 11  2  0  0  0
 11 12  1  0  0  0
 12 13  1  0  0  0
 13 14  2  0  0  0
 14 15  1  0  0  0
 15  1  1  0  0  0
  1  2  2  0  0  0
  2  3  1  0  0  0
  3  4  2  0  0  0
  4 26  1  0  0  0
 26 27  1  0  0  0
 27 28  2  0  0  0
 27 29  1  0  0  0
 29 32  1  0  0  0
 32 33  2  0  0  0
 33 34  1  0  0  0
 34 35  2  0  0  0
 35 36  1  0  0  0
 36 37  2  0  0  0
 36 38  1  0  0  0
 38 39  1  0  0  0
 38 40  1  0  0  0
 38 41  1  0  0  0
  4  5  1  0  0  0
  5  6  2  0  0  0
 15 16  2  0  0  0
 13 19  1  0  0  0
 19 20  1  0  0  0
 20 21  1  0  0  0
 21 22  1  0  0  0
 22 23  1  0  0  0
 23 24  1  0  0  0
 16  8  1  0  0  0
 24 19  1  0  0  0
 16 12  1  0  0  0
  6  1  1  0  0  0
 37 32  1  0  0  0
  7 17  1  0  0  0
  7 18  1  0  0  0
 26 30  1  0  0  0
 29 31  1  0  0  0
 22 25  1  0  0  0
M  END
> <minimizedAffinity>
-6.69123

> <CNNscore>
0.3351645172

> <CNNaffinity>
5.5199346542

> <CNN_VS>
1.8500862122

> <CNNaffinity_variance>
0.1835484356

$$$$
[H]c1nc(N([H])[H])c2c(-c3c([H])c([H])c(N([H])C(=O)N([H])c4c([H])c([H])c([H])c(C(F)(F)F)c4[H])c([H])c3[H])c([H])c(C3([H])C([H])([H])C([H])([H])N([H])C([H])([H])C3([H])[H])n2n1


 41 45  0  0  0  0  0  0  0  0999 V2000
   34.8817  -19.2451   36.0814 C   0  0  0  0  0  0  0  0  0  0  0  0
   35.4596  -19.4978   34.8202 C   0  0  0  0  0  0  0  0  0  0  0  0
   36.6850  -19.1878   34.5405 C   0  0  0  0  0  0  0  0  0  0  0  0
   37.4979  -18.5689   35.5662 C   0  0  0  0  0  0  0  0  0  0  0  0
   36.9843  -18.3312   36.7372 C   0  0  0  0  0  0  0  0  0  0  0  0
   35.6038  -18.6565   37.0635 C   0  0  0  0  0  0  0  0  0  0  0  0
   32.2547  -17.8579   34.7845 N   0  0  0  0  0  0  0  0  0  0  0  0
   31.6046  -18.9817   35.3546 C   0  0  0  0  0  0  0  0  0  0  0  0
   30.2896  -19.1329   35.1844 N   0  0  0  0  0  0  0  0  0  0  0  0
   29.7152  -20.2246   35.7324 C   0  0  0  0  0  0  0  0  0  0  0  0
   30.4016  -21.1314   36.4181 N   0  0  0  0  0  0  0  0  0  0  0  0
   31.7221  -21.0343   36.6219 N   0  0  0  0  0  0  0  0  0  0  0  0
   32.5872  -21.8086   37.2246 C   0  0  0  0  0  0  0  0  0  0  0  0
   33.8399  -21.2155   37.0838 C   0  0  0  0  0  0  0  0  0  0  0  0
   33.6322  -20.0100   36.3322 C   0  0  0  0  0  0  0  0  0  0  0  0
   32.3472  -19.9225   36.0779 C   0  0  0  0  0  0  0  0  0  0  0  0
   31.6939  -17.0333   34.4385 H   0  0  0  0  0  0  0  0  0  0  0  0
   33.2755  -17.8145   34.6936 H   0  0  0  0  0  0  0  0  0  0  0  0
   32.4860  -23.0961   37.9564 C   0  0  0  0  0  0  0  0  0  0  0  0
   32.0418  -24.1490   36.9169 C   0  0  0  0  0  0  0  0  0  0  0  0
   31.3581  -25.2805   37.5999 C   0  0  0  0  0  0  0  0  0  0  0  0
   30.1222  -24.8645   38.2267 N   0  0  0  0  0  0  0  0  0  0  0  0
   30.2082  -23.5081   38.7477 C   0  0  0  0  0  0  0  0  0  0  0  0
   31.6199  -23.1365   39.1119 C   0  0  0  0  0  0  0  0  0  0  0  0
   30.0164  -25.5260   39.0576 H   0  0  0  0  0  0  0  0  0  0  0  0
   38.8138  -18.2858   35.0428 N   0  0  0  0  0  0  0  0  0  0  0  0
   39.8159  -18.8258   35.9179 C   0  0  0  0  0  0  0  0  0  0  0  0
   39.4282  -19.4997   36.8783 O   0  0  0  0  0  0  0  0  0  0  0  0
   41.2014  -18.5538   35.6440 N   0  0  0  0  0  0  0  0  0  0  0  0
   38.9889  -17.8226   34.1975 H   0  0  0  0  0  0  0  0  0  0  0  0
   41.5574  -17.9471   34.9373 H   0  0  0  0  0  0  0  0  0  0  0  0
   42.0999  -19.2249   36.5271 C   0  0  0  0  0  0  0  0  0  0  0  0
   42.6789  -18.4247   37.5299 C   0  0  0  0  0  0  0  0  0  0  0  0
   43.5909  -18.9813   38.3199 C   0  0  0  0  0  0  0  0  0  0  0  0
   44.0079  -20.3118   38.2215 C   0  0  0  0  0  0  0  0  0  0  0  0
   43.4373  -21.0751   37.2488 C   0  0  0  0  0  0  0  0  0  0  0  0
   42.4604  -20.5245   36.3771 C   0  0  0  0  0  0  0  0  0  0  0  0
   43.8780  -22.4961   37.0148 C   0  0  0  0  0  0  0  0  0  0  0  0
   44.6219  -22.9747   38.0398 F   0  0  0  0  0  0  0  0  0  0  0  0
   42.7025  -23.2573   36.8777 F   0  0  0  0  0  0  0  0  0  0  0  0
   44.6219  -22.5063   35.8811 F   0  0  0  0  0  0  0  0  0  0  0  0
  7  8  1  0  0  0
  8  9  2  0  0  0
  9 10  1  0  0  0
 10 11  2  0  0  0
 11 12  1  0  0  0
 12 13  1  0  0  0
 13 14  2  0  0  0
 14 15  1  0  0  0
 15  1  1  0  0  0
  1  2  2  0  0  0
  2  3  1  0  0  0
  3  4  2  0  0  0
  4 26  1  0  0  0
 26 27  1  0  0  0
 27 28  2  0  0  0
 27 29  1  0  0  0
 29 32  1  0  0  0
 32 33  2  0  0  0
 33 34  1  0  0  0
 34 35  2  0  0  0
 35 36  1  0  0  0
 36 37  2  0  0  0
 36 38  1  0  0  0
 38 39  1  0  0  0
 38 40  1  0  0  0
 38 41  1  0  0  0
  4  5  1  0  0  0
  5  6  2  0  0  0
 15 16  2  0  0  0
 13 19  1  0  0  0
 19 20  1  0  0  0
 20 21  1  0  0  0
 21 22  1  0  0  0
 22 23  1  0  0  0
 23 24  1  0  0  0
 16  8  1  0  0  0
 24 19  1  0  0  0
 16 12  1  0  0  0
  6  1  1  0  0  0
 37 32  1  0  0  0
  7 17  1  0  0  0
  7 18  1  0  0  0
 26 30  1  0  0  0
 29 31  1  0  0  0
 22 25  1  0  0  0
M  END
> <minimizedAffinity>
-6.26290

> <CNNscore>
0.2983844876

> <CNNaffinity>
5.4761505127

> <CNN_VS>
1.6339983940

> <CNNaffinity_variance>
0.3400477767

$$$$
[H]c1nc(N([H])[H])c2c(-c3c([H])c([H])c(N([H])C(=O)N([H])c4c([H])c([H])c([H])c(C(F)(F)F)c4[H])c([H])c3[H])c([H])c(C3([H])C([H])([H])C([H])([H])N([H])C([H])([H])C3([H])[H])n2n1


 41 45  0  0  0  0  0  0  0  0999 V2000
   34.5026  -17.5510   35.4037 C   0  0  0  0  0  0  0  0  0  0  0  0
   33.4710  -17.5249   34.4426 C   0  0  0  0  0  0  0  0  0  0  0  0
   32.8385  -18.5913   34.0702 C   0  0  0  0  0  0  0  0  0  0  0  0
   33.1954  -19.8584   34.6725 C   0  0  0  0  0  0  0  0  0  0  0  0
   34.1416  -19.9028   35.5637 C   0  0  0  0  0  0  0  0  0  0  0  0
   34.8752  -18.7172   35.9813 C   0  0  0  0  0  0  0  0  0  0  0  0
   37.5357  -17.3406   36.5277 N   0  0  0  0  0  0  0  0  0  0  0  0
   37.1328  -16.0179   36.8419 C   0  0  0  0  0  0  0  0  0  0  0  0
   38.0103  -15.1819   37.4005 N   0  0  0  0  0  0  0  0  0  0  0  0
   37.5876  -13.9284   37.6693 C   0  0  0  0  0  0  0  0  0  0  0  0
   36.3557  -13.5112   37.4007 N   0  0  0  0  0  0  0  0  0  0  0  0
   35.4318  -14.3033   36.8408 N   0  0  0  0  0  0  0  0  0  0  0  0
   34.1953  -14.0986   36.4661 C   0  0  0  0  0  0  0  0  0  0  0  0
   33.7335  -15.2853   35.9012 C   0  0  0  0  0  0  0  0  0  0  0  0
   34.8234  -16.2170   35.9750 C   0  0  0  0  0  0  0  0  0  0  0  0
   35.8277  -15.6010   36.5544 C   0  0  0  0  0  0  0  0  0  0  0  0
   38.4233  -17.7411   36.9350 H   0  0  0  0  0  0  0  0  0  0  0  0
   36.9829  -17.9386   35.9040 H   0  0  0  0  0  0  0  0  0  0  0  0
   33.2805  -12.9307   36.5190 C   0  0  0  0  0  0  0  0  0  0  0  0
   34.1217  -11.7480   37.0482 C   0  0  0  0  0  0  0  0  0  0  0  0
   33.2339  -10.7376   37.6847 C   0  0  0  0  0  0  0  0  0  0  0  0
   32.5825  -11.2600   38.8662 N   0  0  0  0  0  0  0  0  0  0  0  0
   32.2697  -12.6752   38.7320 C   0  0  0  0  0  0  0  0  0  0  0  0
   32.0696  -13.0707   37.2942 C   0  0  0  0  0  0  0  0  0  0  0  0
   31.6596  -10.7259   38.9122 H   0  0  0  0  0  0  0  0  0  0  0  0
   32.3913  -20.9143   34.1032 N   0  0  0  0  0  0  0  0  0  0  0  0
   31.5067  -21.4486   35.1001 C   0  0  0  0  0  0  0  0  0  0  0  0
   31.4924  -20.8929   36.2036 O   0  0  0  0  0  0  0  0  0  0  0  0
   30.6983  -22.5927   34.7744 N   0  0  0  0  0  0  0  0  0  0  0  0
   32.4259  -21.1964   33.1656 H   0  0  0  0  0  0  0  0  0  0  0  0
   30.7386  -23.1263   33.9331 H   0  0  0  0  0  0  0  0  0  0  0  0
   29.7937  -22.9663   35.8135 C   0  0  0  0  0  0  0  0  0  0  0  0
   28.5727  -22.2662   35.8382 C   0  0  0  0  0  0  0  0  0  0  0  0
   27.7350  -22.5130   36.8397 C   0  0  0  0  0  0  0  0  0  0  0  0
   27.9869  -23.4268   37.8670 C   0  0  0  0  0  0  0  0  0  0  0  0
   29.1707  -24.0990   37.8288 C   0  0  0  0  0  0  0  0  0  0  0  0
   30.1007  -23.8672   36.7806 C   0  0  0  0  0  0  0  0  0  0  0  0
   29.5651  -25.0452   38.9322 C   0  0  0  0  0  0  0  0  0  0  0  0
   30.6254  -25.8143   38.5897 F   0  0  0  0  0  0  0  0  0  0  0  0
   29.8910  -24.2443   40.0423 F   0  0  0  0  0  0  0  0  0  0  0  0
   28.4972  -25.8430   39.1805 F   0  0  0  0  0  0  0  0  0  0  0  0
  7  8  1  0  0  0
  8  9  2  0  0  0
  9 10  1  0  0  0
 10 11  2  0  0  0
 11 12  1  0  0  0
 12 13  1  0  0  0
 13 14  2  0  0  0
 14 15  1  0  0  0
 15  1  1  0  0  0
  1  2  2  0  0  0
  2  3  1  0  0  0
  3  4  2  0  0  0
  4 26  1  0  0  0
 26 27  1  0  0  0
 27 28  2  0  0  0
 27 29  1  0  0  0
 29 32  1  0  0  0
 32 33  2  0  0  0
 33 34  1  0  0  0
 34 35  2  0  0  0
 35 36  1  0  0  0
 36 37  2  0  0  0
 36 38  1  0  0  0
 38 39  1  0  0  0
 38 40  1  0  0  0
 38 41  1  0  0  0
  4  5  1  0  0  0
  5  6  2  0  0  0
 15 16  2  0  0  0
 13 19  1  0  0  0
 19 20  1  0  0  0
 20 21  1  0  0  0
 21 22  1  0  0  0
 22 23  1  0  0  0
 23 24  1  0  0  0
 16  8  1  0  0  0
 24 19  1  0  0  0
 16 12  1  0  0  0
  6  1  1  0  0  0
 37 32  1  0  0  0
  7 17  1  0  0  0
  7 18  1  0  0  0
 26 30  1  0  0  0
 29 31  1  0  0  0
 22 25  1  0  0  0
M  END
> <minimizedAffinity>
-7.37689

> <CNNscore>
0.2932864130

> <CNNaffinity>
6.1039733887

> <CNN_VS>
1.7902125120

> <CNNaffinity_variance>
0.0816565007

$$$$
[H]c1nc(N([H])[H])c2c(-c3c([H])c([H])c(N([H])C(=O)N([H])c4c([H])c([H])c([H])c(C(F)(F)F)c4[H])c([H])c3[H])c([H])c(C3([H])C([H])([H])C([H])([H])N([H])C([H])([H])C3([H])[H])n2n1


 41 45  0  0  0  0  0  0  0  0999 V2000
   33.6905  -19.3664   35.5734 C   0  0  0  0  0  0  0  0  0  0  0  0
   34.0773  -19.7538   34.2739 C   0  0  0  0  0  0  0  0  0  0  0  0
   35.1215  -19.2668   33.6836 C   0  0  0  0  0  0  0  0  0  0  0  0
   35.9309  -18.2959   34.3893 C   0  0  0  0  0  0  0  0  0  0  0  0
   35.5928  -17.9286   35.5903 C   0  0  0  0  0  0  0  0  0  0  0  0
   34.4127  -18.4520   36.2623 C   0  0  0  0  0  0  0  0  0  0  0  0
   30.6032  -18.7382   34.8108 N   0  0  0  0  0  0  0  0  0  0  0  0
   30.3596  -19.8516   35.6543 C   0  0  0  0  0  0  0  0  0  0  0  0
   29.1066  -20.2744   35.8343 N   0  0  0  0  0  0  0  0  0  0  0  0
   28.9229  -21.3463   36.6339 C   0  0  0  0  0  0  0  0  0  0  0  0
   29.9263  -21.9784   37.2318 N   0  0  0  0  0  0  0  0  0  0  0  0
   31.2038  -21.6013   37.0893 N   0  0  0  0  0  0  0  0  0  0  0  0
   32.3294  -22.0857   37.5471 C   0  0  0  0  0  0  0  0  0  0  0  0
   33.3571  -21.2997   37.0307 C   0  0  0  0  0  0  0  0  0  0  0  0
   32.7280  -20.2994   36.2153 C   0  0  0  0  0  0  0  0  0  0  0  0
   31.4320  -20.4998   36.2785 C   0  0  0  0  0  0  0  0  0  0  0  0
   29.8113  -18.1045   34.5184 H   0  0  0  0  0  0  0  0  0  0  0  0
   31.5440  -18.5192   34.4656 H   0  0  0  0  0  0  0  0  0  0  0  0
   32.6790  -23.2268   38.4298 C   0  0  0  0  0  0  0  0  0  0  0  0
   32.1108  -24.4903   37.7463 C   0  0  0  0  0  0  0  0  0  0  0  0
   31.8748  -25.5539   38.7598 C   0  0  0  0  0  0  0  0  0  0  0  0
   30.8486  -25.1774   39.7078 N   0  0  0  0  0  0  0  0  0  0  0  0
   30.8683  -23.7495   39.9896 C   0  0  0  0  0  0  0  0  0  0  0  0
   32.2406  -23.1610   39.8048 C   0  0  0  0  0  0  0  0  0  0  0  0
   31.1214  -25.6895   40.6036 H   0  0  0  0  0  0  0  0  0  0  0  0
   37.0243  -17.8672   33.5490 N   0  0  0  0  0  0  0  0  0  0  0  0
   38.2361  -18.5267   33.9469 C   0  0  0  0  0  0  0  0  0  0  0  0
   38.1511  -19.3872   34.8297 O   0  0  0  0  0  0  0  0  0  0  0  0
   39.4732  -18.1541   33.3150 N   0  0  0  0  0  0  0  0  0  0  0  0
   36.9381  -17.2436   32.7983 H   0  0  0  0  0  0  0  0  0  0  0  0
   39.6055  -17.4096   32.6650 H   0  0  0  0  0  0  0  0  0  0  0  0
   40.5858  -18.9478   33.7269 C   0  0  0  0  0  0  0  0  0  0  0  0
   40.6855  -20.2157   33.1237 C   0  0  0  0  0  0  0  0  0  0  0  0
   41.6512  -21.0279   33.5401 C   0  0  0  0  0  0  0  0  0  0  0  0
   42.5770  -20.7014   34.5352 C   0  0  0  0  0  0  0  0  0  0  0  0
   42.4705  -19.4705   35.1080 C   0  0  0  0  0  0  0  0  0  0  0  0
   41.4526  -18.5681   34.6994 C   0  0  0  0  0  0  0  0  0  0  0  0
   43.3721  -19.0582   36.2417 C   0  0  0  0  0  0  0  0  0  0  0  0
   44.4261  -18.3237   35.8140 F   0  0  0  0  0  0  0  0  0  0  0  0
   42.5800  -18.2959   37.1200 F   0  0  0  0  0  0  0  0  0  0  0  0
   43.8280  -20.1929   36.8278 F   0  0  0  0  0  0  0  0  0  0  0  0
  7  8  1  0  0  0
  8  9  2  0  0  0
  9 10  1  0  0  0
 10 11  2  0  0  0
 11 12  1  0  0  0
 12 13  1  0  0  0
 13 14  2  0  0  0
 14 15  1  0  0  0
 15  1  1  0  0  0
  1  2  2  0  0  0
  2  3  1  0  0  0
  3  4  2  0  0  0
  4 26  1  0  0  0
 26 27  1  0  0  0
 27 28  2  0  0  0
 27 29  1  0  0  0
 29 32  1  0  0  0
 32 33  2  0  0  0
 33 34  1  0  0  0
 34 35  2  0  0  0
 35 36  1  0  0  0
 36 37  2  0  0  0
 36 38  1  0  0  0
 38 39  1  0  0  0
 38 40  1  0  0  0
 38 41  1  0  0  0
  4  5  1  0  0  0
  5  6  2  0  0  0
 15 16  2  0  0  0
 13 19  1  0  0  0
 19 20  1  0  0  0
 20 21  1  0  0  0
 21 22  1  0  0  0
 22 23  1  0  0  0
 23 24  1  0  0  0
 16  8  1  0  0  0
 24 19  1  0  0  0
 16 12  1  0  0  0
  6  1  1  0  0  0
 37 32  1  0  0  0
  7 17  1  0  0  0
  7 18  1  0  0  0
 26 30  1  0  0  0
 29 31  1  0  0  0
 22 25  1  0  0  0
M  END
> <minimizedAffinity>
-6.65576

> <CNNscore>
0.2621587515

> <CNNaffinity>
5.3831915855

> <CNN_VS>
1.4112508297

> <CNNaffinity_variance>
0.3736694455

$$$$
[H]c1nc(N([H])[H])c2c(-c3c([H])c([H])c(N([H])C(=O)N([H])c4c([H])c([H])c([H])c(C(F)(F)F)c4[H])c([H])c3[H])c([H])c(C3([H])C([H])([H])C([H])([H])N([H])C([H])([H])C3([H])[H])n2n1


 41 45  0  0  0  0  0  0  0  0999 V2000
   34.6711  -14.3688   36.8337 C   0  0  0  0  0  0  0  0  0  0  0  0
   33.9247  -15.1726   35.9476 C   0  0  0  0  0  0  0  0  0  0  0  0
   34.2735  -16.3811   35.6413 C   0  0  0  0  0  0  0  0  0  0  0  0
   35.4697  -16.9336   36.2410 C   0  0  0  0  0  0  0  0  0  0  0  0
   36.1696  -16.2094   37.0639 C   0  0  0  0  0  0  0  0  0  0  0  0
   35.8024  -14.8432   37.4058 C   0  0  0  0  0  0  0  0  0  0  0  0
   35.7636  -11.5419   35.6838 N   0  0  0  0  0  0  0  0  0  0  0  0
   34.7264  -11.0191   36.4972 C   0  0  0  0  0  0  0  0  0  0  0  0
   34.5141   -9.7018   36.5205 N   0  0  0  0  0  0  0  0  0  0  0  0
   33.5072   -9.2498   37.2976 C   0  0  0  0  0  0  0  0  0  0  0  0
   32.7392  -10.0561   38.0214 N   0  0  0  0  0  0  0  0  0  0  0  0
   32.9035  -11.3855   38.0386 N   0  0  0  0  0  0  0  0  0  0  0  0
   32.2580  -12.3526   38.6379 C   0  0  0  0  0  0  0  0  0  0  0  0
   32.8556  -13.5498   38.2500 C   0  0  0  0  0  0  0  0  0  0  0  0
   33.9213  -13.1962   37.3552 C   0  0  0  0  0  0  0  0  0  0  0  0
   33.9322  -11.8872   37.2558 C   0  0  0  0  0  0  0  0  0  0  0  0
   36.5076  -10.9052   35.2897 H   0  0  0  0  0  0  0  0  0  0  0  0
   35.8202  -12.5410   35.4585 H   0  0  0  0  0  0  0  0  0  0  0  0
   31.0998  -12.4014   39.5651 C   0  0  0  0  0  0  0  0  0  0  0  0
   30.7656  -13.8971   39.7589 C   0  0  0  0  0  0  0  0  0  0  0  0
   29.3394  -14.0522   40.1541 C   0  0  0  0  0  0  0  0  0  0  0  0
   28.4395  -13.6257   39.1045 N   0  0  0  0  0  0  0  0  0  0  0  0
   28.9770  -12.5006   38.3534 C   0  0  0  0  0  0  0  0  0  0  0  0
   29.9143  -11.6683   39.1855 C   0  0  0  0  0  0  0  0  0  0  0  0
   27.5737  -13.2841   39.6269 H   0  0  0  0  0  0  0  0  0  0  0  0
   35.6886  -18.2740   35.7502 N   0  0  0  0  0  0  0  0  0  0  0  0
   35.3249  -19.2304   36.7576 C   0  0  0  0  0  0  0  0  0  0  0  0
   34.8141  -18.7960   37.7954 O   0  0  0  0  0  0  0  0  0  0  0  0
   35.5765  -20.6261   36.5179 N   0  0  0  0  0  0  0  0  0  0  0  0
   36.0068  -18.4921   34.8496 H   0  0  0  0  0  0  0  0  0  0  0  0
   36.0631  -21.0150   35.7394 H   0  0  0  0  0  0  0  0  0  0  0  0
   35.0826  -21.4800   37.5496 C   0  0  0  0  0  0  0  0  0  0  0  0
   36.0473  -21.9628   38.4538 C   0  0  0  0  0  0  0  0  0  0  0  0
   35.6531  -22.8334   39.3771 C   0  0  0  0  0  0  0  0  0  0  0  0
   34.3409  -23.2961   39.5105 C   0  0  0  0  0  0  0  0  0  0  0  0
   33.4176  -22.8184   38.6308 C   0  0  0  0  0  0  0  0  0  0  0  0
   33.7909  -21.8890   37.6237 C   0  0  0  0  0  0  0  0  0  0  0  0
   31.9965  -23.3169   38.6459 C   0  0  0  0  0  0  0  0  0  0  0  0
   31.1643  -22.5066   37.9503 F   0  0  0  0  0  0  0  0  0  0  0  0
   32.0201  -24.5969   38.0618 F   0  0  0  0  0  0  0  0  0  0  0  0
   31.5976  -23.3597   39.9412 F   0  0  0  0  0  0  0  0  0  0  0  0
  7  8  1  0  0  0
  8  9  2  0  0  0
  9 10  1  0  0  0
 10 11  2  0  0  0
 11 12  1  0  0  0
 12 13  1  0  0  0
 13 14  2  0  0  0
 14 15  1  0  0  0
 15  1  1  0  0  0
  1  2  2  0  0  0
  2  3  1  0  0  0
  3  4  2  0  0  0
  4 26  1  0  0  0
 26 27  1  0  0  0
 27 28  2  0  0  0
 27 29  1  0  0  0
 29 32  1  0  0  0
 32 33  2  0  0  0
 33 34  1  0  0  0
 34 35  2  0  0  0
 35 36  1  0  0  0
 36 37  2  0  0  0
 36 38  1  0  0  0
 38 39  1  0  0  0
 38 40  1  0  0  0
 38 41  1  0  0  0
  4  5  1  0  0  0
  5  6  2  0  0  0
 15 16  2  0  0  0
 13 19  1  0  0  0
 19 20  1  0  0  0
 20 21  1  0  0  0
 21 22  1  0  0  0
 22 23  1  0  0  0
 23 24  1  0  0  0
 16  8  1  0  0  0
 24 19  1  0  0  0
 16 12  1  0  0  0
  6  1  1  0  0  0
 37 32  1  0  0  0
  7 17  1  0  0  0
  7 18  1  0  0  0
 26 30  1  0  0  0
 29 31  1  0  0  0
 22 25  1  0  0  0
M  END
> <minimizedAffinity>
-6.63642

> <CNNscore>
0.2396040559

> <CNNaffinity>
6.3211569786

> <CNN_VS>
1.5145748854

> <CNNaffinity_variance>
0.1057146639

$$$$
[H]c1nc(N([H])[H])c2c(-c3c([H])c([H])c(N([H])C(=O)N([H])c4c([H])c([H])c([H])c(C(F)(F)F)c4[H])c([H])c3[H])c([H])c(C3([H])C([H])([H])C([H])([H])N([H])C([H])([H])C3([H])[H])n2n1


 41 45  0  0  0  0  0  0  0  0999 V2000
   34.8759  -15.4227   36.4611 C   0  0  0  0  0  0  0  0  0  0  0  0
   33.8220  -14.7839   35.7757 C   0  0  0  0  0  0  0  0  0  0  0  0
   33.4985  -13.5490   35.9908 C   0  0  0  0  0  0  0  0  0  0  0  0
   34.2555  -12.7903   36.9640 C   0  0  0  0  0  0  0  0  0  0  0  0
   35.2337  -13.3606   37.6038 C   0  0  0  0  0  0  0  0  0  0  0  0
   35.6000  -14.7524   37.3878 C   0  0  0  0  0  0  0  0  0  0  0  0
   32.4465  -17.2544   35.3429 N   0  0  0  0  0  0  0  0  0  0  0  0
   33.5117  -18.1009   34.9436 C   0  0  0  0  0  0  0  0  0  0  0  0
   33.2390  -19.2302   34.2867 N   0  0  0  0  0  0  0  0  0  0  0  0
   34.2845  -19.9982   33.9136 C   0  0  0  0  0  0  0  0  0  0  0  0
   35.5456  -19.6721   34.1729 N   0  0  0  0  0  0  0  0  0  0  0  0
   35.8813  -18.5527   34.8276 N   0  0  0  0  0  0  0  0  0  0  0  0
   37.0335  -18.0274   35.1561 C   0  0  0  0  0  0  0  0  0  0  0  0
   36.7683  -16.8189   35.7962 C   0  0  0  0  0  0  0  0  0  0  0  0
   35.3397  -16.6767   35.8120 C   0  0  0  0  0  0  0  0  0  0  0  0
   34.8331  -17.7399   35.2318 C   0  0  0  0  0  0  0  0  0  0  0  0
   31.4519  -17.6080   35.3410 H   0  0  0  0  0  0  0  0  0  0  0  0
   32.6100  -16.2868   35.6416 H   0  0  0  0  0  0  0  0  0  0  0  0
   38.4469  -18.4439   34.9761 C   0  0  0  0  0  0  0  0  0  0  0  0
   38.6507  -18.6310   33.4562 C   0  0  0  0  0  0  0  0  0  0  0  0
   39.7743  -19.5741   33.2065 C   0  0  0  0  0  0  0  0  0  0  0  0
   39.4771  -20.9063   33.6863 N   0  0  0  0  0  0  0  0  0  0  0  0
   38.6672  -20.8790   34.8954 C   0  0  0  0  0  0  0  0  0  0  0  0
   38.8882  -19.6202   35.6893 C   0  0  0  0  0  0  0  0  0  0  0  0
   40.4314  -21.3094   33.9431 H   0  0  0  0  0  0  0  0  0  0  0  0
   33.7193  -11.4533   37.0664 N   0  0  0  0  0  0  0  0  0  0  0  0
   32.3638  -11.5036   37.5376 C   0  0  0  0  0  0  0  0  0  0  0  0
   31.9160  -12.6084   37.8628 O   0  0  0  0  0  0  0  0  0  0  0  0
   31.6010  -10.2859   37.5995 N   0  0  0  0  0  0  0  0  0  0  0  0
   34.2227  -10.6353   36.8735 H   0  0  0  0  0  0  0  0  0  0  0  0
   31.8872   -9.3902   37.2676 H   0  0  0  0  0  0  0  0  0  0  0  0
   30.3053  -10.4531   38.1744 C   0  0  0  0  0  0  0  0  0  0  0  0
   29.6636   -9.2690   38.5836 C   0  0  0  0  0  0  0  0  0  0  0  0
   28.4955   -9.3787   39.2073 C   0  0  0  0  0  0  0  0  0  0  0  0
   27.8613  -10.5945   39.4783 C   0  0  0  0  0  0  0  0  0  0  0  0
   28.4920  -11.7318   39.0743 C   0  0  0  0  0  0  0  0  0  0  0  0
   29.7441  -11.6665   38.4070 C   0  0  0  0  0  0  0  0  0  0  0  0
   27.9255  -13.0910   39.3903 C   0  0  0  0  0  0  0  0  0  0  0  0
   27.3126  -13.1201   40.5972 F   0  0  0  0  0  0  0  0  0  0  0  0
   26.9971  -13.3788   38.3728 F   0  0  0  0  0  0  0  0  0  0  0  0
   28.9595  -13.9682   39.3940 F   0  0  0  0  0  0  0  0  0  0  0  0
  7  8  1  0  0  0
  8  9  2  0  0  0
  9 10  1  0  0  0
 10 11  2  0  0  0
 11 12  1  0  0  0
 12 13  1  0  0  0
 13 14  2  0  0  0
 14 15  1  0  0  0
 15  1  1  0  0  0
  1  2  2  0  0  0
  2  3  1  0  0  0
  3  4  2  0  0  0
  4 26  1  0  0  0
 26 27  1  0  0  0
 27 28  2  0  0  0
 27 29  1  0  0  0
 29 32  1  0  0  0
 32 33  2  0  0  0
 33 34  1  0  0  0
 34 35  2  0  0  0
 35 36  1  0  0  0
 36 37  2  0  0  0
 36 38  1  0  0  0
 38 39  1  0  0  0
 38 40  1  0  0  0
 38 41  1  0  0  0
  4  5  1  0  0  0
  5  6  2  0  0  0
 15 16  2  0  0  0
 13 19  1  0  0  0
 19 20  1  0  0  0
 20 21  1  0  0  0
 21 22  1  0  0  0
 22 23  1  0  0  0
 23 24  1  0  0  0
 16  8  1  0  0  0
 24 19  1  0  0  0
 16 12  1  0  0  0
  6  1  1  0  0  0
 37 32  1  0  0  0
  7 17  1  0  0  0
  7 18  1  0  0  0
 26 30  1  0  0  0
 29 31  1  0  0  0
 22 25  1  0  0  0
M  END
> <minimizedAffinity>
-9.79882

> <CNNscore>
0.2200595289

> <CNNaffinity>
6.4486112595

> <CNN_VS>
1.4190783501

> <CNNaffinity_variance>
0.1462006718

$$$$
[H]c1nc(N([H])[H])c2c(-c3c([H])c([H])c(N([H])C(=O)N([H])c4c([H])c([H])c([H])c(C(F)(F)F)c4[H])c([H])c3[H])c([H])c(C3([H])C([H])([H])C([H])([H])N([H])C([H])([H])C3([H])[H])n2n1


 41 45  0  0  0  0  0  0  0  0999 V2000
   34.2546  -14.1545   37.1329 C   0  0  0  0  0  0  0  0  0  0  0  0
   35.5060  -14.2976   37.7670 C   0  0  0  0  0  0  0  0  0  0  0  0
   36.3607  -15.2075   37.4243 C   0  0  0  0  0  0  0  0  0  0  0  0
   36.0243  -16.1056   36.3398 C   0  0  0  0  0  0  0  0  0  0  0  0
   34.8765  -15.9872   35.7398 C   0  0  0  0  0  0  0  0  0  0  0  0
   33.8964  -14.9820   36.1233 C   0  0  0  0  0  0  0  0  0  0  0  0
   35.9303  -11.6424   35.9542 N   0  0  0  0  0  0  0  0  0  0  0  0
   34.8507  -10.9019   36.4989 C   0  0  0  0  0  0  0  0  0  0  0  0
   34.8296   -9.5751   36.3564 N   0  0  0  0  0  0  0  0  0  0  0  0
   33.7758   -8.9124   36.8782 C   0  0  0  0  0  0  0  0  0  0  0  0
   32.7829   -9.5250   37.5128 N   0  0  0  0  0  0  0  0  0  0  0  0
   32.7484  -10.8528   37.6868 N   0  0  0  0  0  0  0  0  0  0  0  0
   31.8739  -11.6540   38.2386 C   0  0  0  0  0  0  0  0  0  0  0  0
   32.3525  -12.9536   38.0882 C   0  0  0  0  0  0  0  0  0  0  0  0
   33.6005  -12.8443   37.3868 C   0  0  0  0  0  0  0  0  0  0  0  0
   33.8173  -11.5680   37.1683 C   0  0  0  0  0  0  0  0  0  0  0  0
   36.8164  -11.1544   35.6530 H   0  0  0  0  0  0  0  0  0  0  0  0
   35.8818  -12.6606   35.8394 H   0  0  0  0  0  0  0  0  0  0  0  0
   30.5740  -11.4479   38.9251 C   0  0  0  0  0  0  0  0  0  0  0  0
   29.9220  -12.8435   39.0415 C   0  0  0  0  0  0  0  0  0  0  0  0
   28.4446  -12.7065   39.1536 C   0  0  0  0  0  0  0  0  0  0  0  0
   27.8621  -12.1473   37.9531 N   0  0  0  0  0  0  0  0  0  0  0  0
   28.7427  -11.1723   37.3266 C   0  0  0  0  0  0  0  0  0  0  0  0
   29.6497  -10.5114   38.3288 C   0  0  0  0  0  0  0  0  0  0  0  0
   26.9971  -11.6280   38.3011 H   0  0  0  0  0  0  0  0  0  0  0  0
   37.0970  -17.0509   36.1369 N   0  0  0  0  0  0  0  0  0  0  0  0
   36.8361  -18.2542   36.8758 C   0  0  0  0  0  0  0  0  0  0  0  0
   35.7504  -18.3383   37.4596 O   0  0  0  0  0  0  0  0  0  0  0  0
   37.8390  -19.2846   36.9077 N   0  0  0  0  0  0  0  0  0  0  0  0
   37.8691  -16.8999   35.5532 H   0  0  0  0  0  0  0  0  0  0  0  0
   38.7594  -19.2273   36.5283 H   0  0  0  0  0  0  0  0  0  0  0  0
   37.4216  -20.4659   37.5917 C   0  0  0  0  0  0  0  0  0  0  0  0
   36.6925  -21.3903   36.8203 C   0  0  0  0  0  0  0  0  0  0  0  0
   36.2034  -22.4628   37.4337 C   0  0  0  0  0  0  0  0  0  0  0  0
   36.3711  -22.7336   38.7947 C   0  0  0  0  0  0  0  0  0  0  0  0
   37.0810  -21.8322   39.5282 C   0  0  0  0  0  0  0  0  0  0  0  0
   37.6208  -20.6684   38.9186 C   0  0  0  0  0  0  0  0  0  0  0  0
   37.2481  -21.9975   41.0158 C   0  0  0  0  0  0  0  0  0  0  0  0
   38.5302  -21.8109   41.4088 F   0  0  0  0  0  0  0  0  0  0  0  0
   36.4163  -21.0346   41.6167 F   0  0  0  0  0  0  0  0  0  0  0  0
   36.8657  -23.2607   41.3268 F   0  0  0  0  0  0  0  0  0  0  0  0
  7  8  1  0  0  0
  8  9  2  0  0  0
  9 10  1  0  0  0
 10 11  2  0  0  0
 11 12  1  0  0  0
 12 13  1  0  0  0
 13 14  2  0  0  0
 14 15  1  0  0  0
 15  1  1  0  0  0
  1  2  2  0  0  0
  2  3  1  0  0  0
  3  4  2  0  0  0
  4 26  1  0  0  0
 26 27  1  0  0  0
 27 28  2  0  0  0
 27 29  1  0  0  0
 29 32  1  0  0  0
 32 33  2  0  0  0
 33 34  1  0  0  0
 34 35  2  0  0  0
 35 36  1  0  0  0
 36 37  2  0  0  0
 36 38  1  0  0  0
 38 39  1  0  0  0
 38 40  1  0  0  0
 38 41  1  0  0  0
  4  5  1  0  0  0
  5  6  2  0  0  0
 15 16  2  0  0  0
 13 19  1  0  0  0
 19 20  1  0  0  0
 20 21  1  0  0  0
 21 22  1  0  0  0
 22 23  1  0  0  0
 23 24  1  0  0  0
 16  8  1  0  0  0
 24 19  1  0  0  0
 16 12  1  0  0  0
  6  1  1  0  0  0
 37 32  1  0  0  0
  7 17  1  0  0  0
  7 18  1  0  0  0
 26 30  1  0  0  0
 29 31  1  0  0  0
 22 25  1  0  0  0
M  END
> <minimizedAffinity>
-8.01590

> <CNNscore>
0.2170377672

> <CNNaffinity>
6.4859457016

> <CNN_VS>
1.4076951742

> <CNNaffinity_variance>
0.1372072548

$$$$
[H]c1nc(N([H])[H])c2c(-c3c([H])c([H])c(N([H])C(=O)N([H])c4c([H])c([H])c([H])c(C(F)(F)F)c4[H])c([H])c3[H])c([H])c(C3([H])C([H])([H])C([H])([H])N([H])C([H])([H])C3([H])[H])n2n1


 41 45  0  0  0  0  0  0  0  0999 V2000
   39.3889  -19.9497   36.1100 C   0  0  0  0  0  0  0  0  0  0  0  0
   38.9850  -20.5603   34.9048 C   0  0  0  0  0  0  0  0  0  0  0  0
   37.9808  -20.1320   34.2091 C   0  0  0  0  0  0  0  0  0  0  0  0
   37.2512  -18.9737   34.6799 C   0  0  0  0  0  0  0  0  0  0  0  0
   37.6105  -18.3941   35.7874 C   0  0  0  0  0  0  0  0  0  0  0  0
   38.7254  -18.8724   36.5914 C   0  0  0  0  0  0  0  0  0  0  0  0
   41.6714  -17.9407   34.9869 N   0  0  0  0  0  0  0  0  0  0  0  0
   42.5313  -18.8108   35.7039 C   0  0  0  0  0  0  0  0  0  0  0  0
   43.8421  -18.5614   35.7285 N   0  0  0  0  0  0  0  0  0  0  0  0
   44.6209  -19.4077   36.4351 C   0  0  0  0  0  0  0  0  0  0  0  0
   44.1348  -20.4550   37.0914 N   0  0  0  0  0  0  0  0  0  0  0  0
   42.8295  -20.7561   37.1039 N   0  0  0  0  0  0  0  0  0  0  0  0
   42.1407  -21.6976   37.6957 C   0  0  0  0  0  0  0  0  0  0  0  0
   40.8002  -21.4889   37.3794 C   0  0  0  0  0  0  0  0  0  0  0  0
   40.7611  -20.3240   36.5411 C   0  0  0  0  0  0  0  0  0  0  0  0
   41.9977  -19.9116   36.3844 C   0  0  0  0  0  0  0  0  0  0  0  0
   42.0657  -17.2513   34.2916 H   0  0  0  0  0  0  0  0  0  0  0  0
   40.6546  -17.9565   35.1213 H   0  0  0  0  0  0  0  0  0  0  0  0
   42.4966  -22.8399   38.5744 C   0  0  0  0  0  0  0  0  0  0  0  0
   41.1982  -23.6537   38.7703 C   0  0  0  0  0  0  0  0  0  0  0  0
   41.2708  -24.4293   40.0382 C   0  0  0  0  0  0  0  0  0  0  0  0
   41.3201  -23.5646   41.1972 N   0  0  0  0  0  0  0  0  0  0  0  0
   42.0578  -22.3390   40.9284 C   0  0  0  0  0  0  0  0  0  0  0  0
   43.0929  -22.5325   39.8538 C   0  0  0  0  0  0  0  0  0  0  0  0
   41.8731  -24.1258   41.9172 H   0  0  0  0  0  0  0  0  0  0  0  0
   36.1636  -18.6801   33.7763 N   0  0  0  0  0  0  0  0  0  0  0  0
   34.9542  -19.2927   34.2495 C   0  0  0  0  0  0  0  0  0  0  0  0
   34.9966  -19.8612   35.3457 O   0  0  0  0  0  0  0  0  0  0  0  0
   33.7718  -19.2238   33.4336 N   0  0  0  0  0  0  0  0  0  0  0  0
   36.2396  -18.1173   32.9780 H   0  0  0  0  0  0  0  0  0  0  0  0
   33.7107  -18.8554   32.5090 H   0  0  0  0  0  0  0  0  0  0  0  0
   32.6157  -19.7835   34.0564 C   0  0  0  0  0  0  0  0  0  0  0  0
   31.7221  -18.8567   34.6253 C   0  0  0  0  0  0  0  0  0  0  0  0
   30.6776  -19.3314   35.2958 C   0  0  0  0  0  0  0  0  0  0  0  0
   30.4075  -20.6920   35.4675 C   0  0  0  0  0  0  0  0  0  0  0  0
   31.2788  -21.5773   34.9093 C   0  0  0  0  0  0  0  0  0  0  0  0
   32.4120  -21.1188   34.1862 C   0  0  0  0  0  0  0  0  0  0  0  0
   31.1148  -23.0614   35.1065 C   0  0  0  0  0  0  0  0  0  0  0  0
   31.3490  -23.7561   33.9683 F   0  0  0  0  0  0  0  0  0  0  0  0
   32.0428  -23.4338   36.0965 F   0  0  0  0  0  0  0  0  0  0  0  0
   29.8367  -23.2766   35.5052 F   0  0  0  0  0  0  0  0  0  0  0  0
  7  8  1  0  0  0
  8  9  2  0  0  0
  9 10  1  0  0  0
 10 11  2  0  0  0
 11 12  1  0  0  0
 12 13  1  0  0  0
 13 14  2  0  0  0
 14 15  1  0  0  0
 15  1  1  0  0  0
  1  2  2  0  0  0
  2  3  1  0  0  0
  3  4  2  0  0  0
  4 26  1  0  0  0
 26 27  1  0  0  0
 27 28  2  0  0  0
 27 29  1  0  0  0
 29 32  1  0  0  0
 32 33  2  0  0  0
 33 34  1  0  0  0
 34 35  2  0  0  0
 35 36  1  0  0  0
 36 37  2  0  0  0
 36 38  1  0  0  0
 38 39  1  0  0  0
 38 40  1  0  0  0
 38 41  1  0  0  0
  4  5  1  0  0  0
  5  6  2  0  0  0
 15 16  2  0  0  0
 13 19  1  0  0  0
 19 20  1  0  0  0
 20 21  1  0  0  0
 21 22  1  0  0  0
 22 23  1  0  0  0
 23 24  1  0  0  0
 16  8  1  0  0  0
 24 19  1  0  0  0
 16 12  1  0  0  0
  6  1  1  0  0  0
 37 32  1  0  0  0
  7 17  1  0  0  0
  7 18  1  0  0  0
 26 30  1  0  0  0
 29 31  1  0  0  0
 22 25  1  0  0  0
M  END
> <minimizedAffinity>
-6.10497

> <CNNscore>
0.2043548971

> <CNNaffinity>
5.4567155838

> <CNN_VS>
1.1151065826

> <CNNaffinity_variance>
0.3187695742

$$$$
[H]c1nc(N([H])[H])c2c(-c3c([H])c([H])c(N([H])C(=O)N([H])c4c([H])c([H])c([H])c(C(F)(F)F)c4[H])c([H])c3[H])c([H])c(C3([H])C([H])([H])C([H])([H])N([H])C([H])([H])C3([H])[H])n2n1


 41 45  0  0  0  0  0  0  0  0999 V2000
   36.9286  -18.5411   35.8936 C   0  0  0  0  0  0  0  0  0  0  0  0
   36.1626  -19.3168   34.9991 C   0  0  0  0  0  0  0  0  0  0  0  0
   34.9536  -19.0002   34.6614 C   0  0  0  0  0  0  0  0  0  0  0  0
   34.3691  -17.7964   35.2137 C   0  0  0  0  0  0  0  0  0  0  0  0
   35.0609  -17.0654   36.0375 C   0  0  0  0  0  0  0  0  0  0  0  0
   36.4144  -17.4154   36.4421 C   0  0  0  0  0  0  0  0  0  0  0  0
   38.2147  -18.1651   32.9420 N   0  0  0  0  0  0  0  0  0  0  0  0
   39.4023  -18.5582   33.6095 C   0  0  0  0  0  0  0  0  0  0  0  0
   40.5476  -18.6174   32.9269 N   0  0  0  0  0  0  0  0  0  0  0  0
   41.6556  -18.9826   33.6058 C   0  0  0  0  0  0  0  0  0  0  0  0
   41.6419  -19.2767   34.9009 N   0  0  0  0  0  0  0  0  0  0  0  0
   40.5243  -19.2351   35.6383 N   0  0  0  0  0  0  0  0  0  0  0  0
   40.2890  -19.4477   36.9074 C   0  0  0  0  0  0  0  0  0  0  0  0
   38.9324  -19.2138   37.1203 C   0  0  0  0  0  0  0  0  0  0  0  0
   38.3844  -18.8366   35.8480 C   0  0  0  0  0  0  0  0  0  0  0  0
   39.3636  -18.8686   34.9740 C   0  0  0  0  0  0  0  0  0  0  0  0
   38.1734  -18.1488   31.8874 H   0  0  0  0  0  0  0  0  0  0  0  0
   37.3723  -17.8893   33.4583 H   0  0  0  0  0  0  0  0  0  0  0  0
   41.1335  -19.8467   38.0612 C   0  0  0  0  0  0  0  0  0  0  0  0
   42.2726  -18.8063   38.1417 C   0  0  0  0  0  0  0  0  0  0  0  0
   43.4525  -19.3968   38.8298 C   0  0  0  0  0  0  0  0  0  0  0  0
   44.0279  -20.4877   38.0733 N   0  0  0  0  0  0  0  0  0  0  0  0
   43.0116  -21.2501   37.3628 C   0  0  0  0  0  0  0  0  0  0  0  0
   41.6771  -21.1852   38.0545 C   0  0  0  0  0  0  0  0  0  0  0  0
   44.4518  -21.1250   38.8171 H   0  0  0  0  0  0  0  0  0  0  0  0
   33.0171  -17.6428   34.7302 N   0  0  0  0  0  0  0  0  0  0  0  0
   32.2243  -18.7735   35.1239 C   0  0  0  0  0  0  0  0  0  0  0  0
   32.7562  -19.6117   35.8596 O   0  0  0  0  0  0  0  0  0  0  0  0
   30.8727  -18.8791   34.6437 N   0  0  0  0  0  0  0  0  0  0  0  0
   32.6877  -16.8636   34.2360 H   0  0  0  0  0  0  0  0  0  0  0  0
   30.4305  -18.2782   33.9822 H   0  0  0  0  0  0  0  0  0  0  0  0
   30.1613  -19.9930   35.1828 C   0  0  0  0  0  0  0  0  0  0  0  0
   29.1372  -19.6772   36.0953 C   0  0  0  0  0  0  0  0  0  0  0  0
   28.5064  -20.6820   36.6938 C   0  0  0  0  0  0  0  0  0  0  0  0
   28.7918  -22.0321   36.4712 C   0  0  0  0  0  0  0  0  0  0  0  0
   29.7830  -22.3230   35.5837 C   0  0  0  0  0  0  0  0  0  0  0  0
   30.4888  -21.2836   34.9213 C   0  0  0  0  0  0  0  0  0  0  0  0
   30.2149  -23.7445   35.3367 C   0  0  0  0  0  0  0  0  0  0  0  0
   30.8738  -23.8805   34.1618 F   0  0  0  0  0  0  0  0  0  0  0  0
   31.0615  -24.0920   36.4056 F   0  0  0  0  0  0  0  0  0  0  0  0
   29.0944  -24.5078   35.3106 F   0  0  0  0  0  0  0  0  0  0  0  0
  7  8  1  0  0  0
  8  9  2  0  0  0
  9 10  1  0  0  0
 10 11  2  0  0  0
 11 12  1  0  0  0
 12 13  1  0  0  0
 13 14  2  0  0  0
 14 15  1  0  0  0
 15  1  1  0  0  0
  1  2  2  0  0  0
  2  3  1  0  0  0
  3  4  2  0  0  0
  4 26  1  0  0  0
 26 27  1  0  0  0
 27 28  2  0  0  0
 27 29  1  0  0  0
 29 32  1  0  0  0
 32 33  2  0  0  0
 33 34  1  0  0  0
 34 35  2  0  0  0
 35 36  1  0  0  0
 36 37  2  0  0  0
 36 38  1  0  0  0
 38 39  1  0  0  0
 38 40  1  0  0  0
 38 41  1  0  0  0
  4  5  1  0  0  0
  5  6  2  0  0  0
 15 16  2  0  0  0
 13 19  1  0  0  0
 19 20  1  0  0  0
 20 21  1  0  0  0
 21 22  1  0  0  0
 22 23  1  0  0  0
 23 24  1  0  0  0
 16  8  1  0  0  0
 24 19  1  0  0  0
 16 12  1  0  0  0
  6  1  1  0  0  0
 37 32  1  0  0  0
  7 17  1  0  0  0
  7 18  1  0  0  0
 26 30  1  0  0  0
 29 31  1  0  0  0
 22 25  1  0  0  0
M  END
> <minimizedAffinity>
-7.47940

> <CNNscore>
0.1980562657

> <CNNaffinity>
5.7577505112

> <CNN_VS>
1.1403585672

> <CNNaffinity_variance>
0.1893864423

$$$$
[H]OC(c1c([H])c([H])c(N2C([H])([H])C([H])([H])N(c3c([H])c([H])c(F)c([H])c3C([H])([H])[H])C([H])([H])[C@@]2([H])C([H])(C([H])([H])[H])C([H])([H])[H])c([H])c1[H])(C(F)(F)F)C(F)(F)F


 34 36  0  0  0  0  0  0  0  0999 V2000
   35.9868  -18.6044   36.4555 C   0  0  0  0  0  0  0  0  0  0  0  0
   36.8851  -17.7542   35.5612 C   0  0  0  0  0  0  0  0  0  0  0  0
   37.3881  -18.4548   34.4411 N   0  0  0  0  0  0  0  0  0  0  0  0
   37.7505  -19.8375   34.5168 C   0  0  0  0  0  0  0  0  0  0  0  0
   37.0457  -20.6837   35.4953 C   0  0  0  0  0  0  0  0  0  0  0  0
   36.4420  -19.9432   36.5976 N   0  0  0  0  0  0  0  0  0  0  0  0
   37.5633  -17.7164   33.2119 C   0  0  0  0  0  0  0  0  0  0  0  0
   36.5267  -17.1194   32.5363 C   0  0  0  0  0  0  0  0  0  0  0  0
   36.7205  -16.4251   31.3581 C   0  0  0  0  0  0  0  0  0  0  0  0
   37.9825  -16.3080   30.8153 C   0  0  0  0  0  0  0  0  0  0  0  0
   38.1849  -15.6307   29.6430 F   0  0  0  0  0  0  0  0  0  0  0  0
   39.0273  -16.8955   31.4748 C   0  0  0  0  0  0  0  0  0  0  0  0
   38.8176  -17.5987   32.6716 C   0  0  0  0  0  0  0  0  0  0  0  0
   39.9636  -18.2381   33.3657 C   0  0  0  0  0  0  0  0  0  0  0  0
   36.3454  -20.6326   37.8350 C   0  0  0  0  0  0  0  0  0  0  0  0
   35.1435  -21.1933   38.2534 C   0  0  0  0  0  0  0  0  0  0  0  0
   35.0940  -21.8863   39.4344 C   0  0  0  0  0  0  0  0  0  0  0  0
   36.2048  -22.0650   40.2609 C   0  0  0  0  0  0  0  0  0  0  0  0
   37.3875  -21.5174   39.8614 C   0  0  0  0  0  0  0  0  0  0  0  0
   37.4362  -20.8073   38.6478 C   0  0  0  0  0  0  0  0  0  0  0  0
   36.0232  -22.8338   41.4928 C   0  0  0  0  0  0  0  0  0  0  0  0
   36.7186  -22.1389   42.5253 O   0  0  0  0  0  0  0  0  0  0  0  0
   36.3910  -21.1979   42.4912 H   0  0  0  0  0  0  0  0  0  0  0  0
   34.6402  -23.0077   41.9959 C   0  0  0  0  0  0  0  0  0  0  0  0
   33.9503  -24.0948   41.5684 F   0  0  0  0  0  0  0  0  0  0  0  0
   33.8957  -21.8275   41.7855 F   0  0  0  0  0  0  0  0  0  0  0  0
   34.6887  -23.1012   43.3991 F   0  0  0  0  0  0  0  0  0  0  0  0
   36.7413  -24.1679   41.3884 C   0  0  0  0  0  0  0  0  0  0  0  0
   36.8136  -24.7219   42.6692 F   0  0  0  0  0  0  0  0  0  0  0  0
   38.0326  -24.0449   40.9553 F   0  0  0  0  0  0  0  0  0  0  0  0
   36.0558  -25.0836   40.6305 F   0  0  0  0  0  0  0  0  0  0  0  0
   34.1609  -17.1449   35.4692 C   0  0  0  0  0  0  0  0  0  0  0  0
   34.5386  -18.4413   36.0925 C   0  0  0  0  0  0  0  0  0  0  0  0
   34.0245  -19.5315   35.1651 C   0  0  0  0  0  0  0  0  0  0  0  0
 32 33  1  0  0  0
 33 34  1  0  0  0
 33  1  1  0  0  0
  1  2  1  0  0  0
  2  3  1  0  0  0
  3  4  1  0  0  0
  4  5  1  0  0  0
  5  6  1  0  0  0
  6 15  1  0  0  0
 15 16  2  0  0  0
 16 17  1  0  0  0
 17 18  2  0  0  0
 18 19  1  0  0  0
 19 20  2  0  0  0
 18 21  1  0  0  0
 21 22  1  0  0  0
 21 24  1  0  0  0
 24 25  1  0  0  0
 24 26  1  0  0  0
 24 27  1  0  0  0
 21 28  1  0  0  0
 28 29  1  0  0  0
 28 30  1  0  0  0
 28 31  1  0  0  0
  3  7  1  0  0  0
  7  8  2  0  0  0
  8  9  1  0  0  0
  9 10  2  0  0  0
 10 11  1  0  0  0
 10 12  1  0  0  0
 12 13  2  0  0  0
 13 14  1  0  0  0
  6  1  1  0  0  0
 20 15  1  0  0  0
 13  7  1  0  0  0
 22 23  1  0  0  0
M  END
> <minimizedAffinity>
3.03240

> <CNNscore>
0.4458315969

> <CNNaffinity>
5.4142656326

> <CNN_VS>
2.4138507843

> <CNNaffinity_variance>
0.6297982931

$$$$
[H]OC(c1c([H])c([H])c(N2C([H])([H])C([H])([H])N(c3c([H])c([H])c(F)c([H])c3C([H])([H])[H])C([H])([H])[C@@]2([H])C([H])(C([H])([H])[H])C([H])([H])[H])c([H])c1[H])(C(F)(F)F)C(F)(F)F


 34 36  0  0  0  0  0  0  0  0999 V2000
   37.7190  -20.6225   35.6673 C   0  0  0  0  0  0  0  0  0  0  0  0
   38.8954  -20.0000   36.4146 C   0  0  0  0  0  0  0  0  0  0  0  0
   39.1700  -20.6262   37.6519 N   0  0  0  0  0  0  0  0  0  0  0  0
   38.1253  -21.1319   38.4896 C   0  0  0  0  0  0  0  0  0  0  0  0
   36.8800  -21.5831   37.8445 C   0  0  0  0  0  0  0  0  0  0  0  0
   36.6522  -21.0093   36.5229 N   0  0  0  0  0  0  0  0  0  0  0  0
   40.5505  -20.7090   38.0695 C   0  0  0  0  0  0  0  0  0  0  0  0
   41.2564  -19.6364   38.5578 C   0  0  0  0  0  0  0  0  0  0  0  0
   42.5787  -19.7409   38.9433 C   0  0  0  0  0  0  0  0  0  0  0  0
   43.2413  -20.9462   38.8481 C   0  0  0  0  0  0  0  0  0  0  0  0
   44.5544  -21.0592   39.2179 F   0  0  0  0  0  0  0  0  0  0  0  0
   42.5538  -22.0258   38.3647 C   0  0  0  0  0  0  0  0  0  0  0  0
   41.2101  -21.9070   37.9760 C   0  0  0  0  0  0  0  0  0  0  0  0
   40.4856  -23.0883   37.4437 C   0  0  0  0  0  0  0  0  0  0  0  0
   35.2954  -20.8433   36.1390 C   0  0  0  0  0  0  0  0  0  0  0  0
   34.9112  -20.9223   34.8049 C   0  0  0  0  0  0  0  0  0  0  0  0
   33.5878  -20.7969   34.4724 C   0  0  0  0  0  0  0  0  0  0  0  0
   32.5807  -20.5886   35.4164 C   0  0  0  0  0  0  0  0  0  0  0  0
   32.9467  -20.5071   36.7270 C   0  0  0  0  0  0  0  0  0  0  0  0
   34.3059  -20.6373   37.0661 C   0  0  0  0  0  0  0  0  0  0  0  0
   31.2034  -20.4805   34.9336 C   0  0  0  0  0  0  0  0  0  0  0  0
   31.2566  -19.8473   33.6575 O   0  0  0  0  0  0  0  0  0  0  0  0
   31.9165  -20.3671   33.1206 H   0  0  0  0  0  0  0  0  0  0  0  0
   30.4504  -21.7387   34.7192 C   0  0  0  0  0  0  0  0  0  0  0  0
   30.8199  -22.5193   33.6729 F   0  0  0  0  0  0  0  0  0  0  0  0
   29.0647  -21.4739   34.6816 F   0  0  0  0  0  0  0  0  0  0  0  0
   30.5855  -22.5365   35.8704 F   0  0  0  0  0  0  0  0  0  0  0  0
   30.4187  -19.5120   35.8012 C   0  0  0  0  0  0  0  0  0  0  0  0
   31.0823  -18.2822   35.7860 F   0  0  0  0  0  0  0  0  0  0  0  0
   30.3633  -19.8966   37.1123 F   0  0  0  0  0  0  0  0  0  0  0  0
   29.1622  -19.2572   35.3120 F   0  0  0  0  0  0  0  0  0  0  0  0
   39.3446  -21.2924   33.8382 C   0  0  0  0  0  0  0  0  0  0  0  0
   38.1802  -21.6621   34.6863 C   0  0  0  0  0  0  0  0  0  0  0  0
   38.5263  -22.9921   35.3376 C   0  0  0  0  0  0  0  0  0  0  0  0
 32 33  1  0  0  0
 33 34  1  0  0  0
 33  1  1  0  0  0
  1  2  1  0  0  0
  2  3  1  0  0  0
  3  4  1  0  0  0
  4  5  1  0  0  0
  5  6  1  0  0  0
  6 15  1  0  0  0
 15 16  2  0  0  0
 16 17  1  0  0  0
 17 18  2  0  0  0
 18 19  1  0  0  0
 19 20  2  0  0  0
 18 21  1  0  0  0
 21 22  1  0  0  0
 21 24  1  0  0  0
 24 25  1  0  0  0
 24 26  1  0  0  0
 24 27  1  0  0  0
 21 28  1  0  0  0
 28 29  1  0  0  0
 28 30  1  0  0  0
 28 31  1  0  0  0
  3  7  1  0  0  0
  7  8  2  0  0  0
  8  9  1  0  0  0
  9 10  2  0  0  0
 10 11  1  0  0  0
 10 12  1  0  0  0
 12 13  2  0  0  0
 13 14  1  0  0  0
  6  1  1  0  0  0
 20 15  1  0  0  0
 13  7  1  0  0  0
 22 23  1  0  0  0
M  END
> <minimizedAffinity>
1.82651

> <CNNscore>
0.4031527042

> <CNNaffinity>
5.0644392967

> <CNN_VS>
2.0417423248

> <CNNaffinity_variance>
0.2778190970

$$$$
[H]OC(c1c([H])c([H])c(N2C([H])([H])C([H])([H])N(c3c([H])c([H])c(F)c([H])c3C([H])([H])[H])C([H])([H])[C@@]2([H])C([H])(C([H])([H])[H])C([H])([H])[H])c([H])c1[H])(C(F)(F)F)C(F)(F)F


 34 36  0  0  0  0  0  0  0  0999 V2000
   39.0371  -20.2780   34.7912 C   0  0  0  0  0  0  0  0  0  0  0  0
   40.0555  -21.3320   35.2174 C   0  0  0  0  0  0  0  0  0  0  0  0
   41.1734  -20.7923   35.8938 N   0  0  0  0  0  0  0  0  0  0  0  0
   41.7342  -19.5257   35.5326 C   0  0  0  0  0  0  0  0  0  0  0  0
   40.8382  -18.5172   34.9406 C   0  0  0  0  0  0  0  0  0  0  0  0
   39.6352  -19.0735   34.3315 N   0  0  0  0  0  0  0  0  0  0  0  0
   41.7643  -21.5826   36.9489 C   0  0  0  0  0  0  0  0  0  0  0  0
   42.3316  -21.0351   38.0739 C   0  0  0  0  0  0  0  0  0  0  0  0
   42.8970  -21.8137   39.0650 C   0  0  0  0  0  0  0  0  0  0  0  0
   42.9087  -23.1878   38.9529 C   0  0  0  0  0  0  0  0  0  0  0  0
   43.4749  -23.9689   39.9242 F   0  0  0  0  0  0  0  0  0  0  0  0
   42.3473  -23.7508   37.8395 C   0  0  0  0  0  0  0  0  0  0  0  0
   41.7760  -22.9489   36.8389 C   0  0  0  0  0  0  0  0  0  0  0  0
   41.1819  -23.5794   35.6334 C   0  0  0  0  0  0  0  0  0  0  0  0
   39.0966  -18.3485   33.2360 C   0  0  0  0  0  0  0  0  0  0  0  0
   37.7281  -18.3292   32.9901 C   0  0  0  0  0  0  0  0  0  0  0  0
   37.2374  -17.5872   31.9479 C   0  0  0  0  0  0  0  0  0  0  0  0
   38.0501  -16.8337   31.0990 C   0  0  0  0  0  0  0  0  0  0  0  0
   39.3935  -16.8475   31.3297 C   0  0  0  0  0  0  0  0  0  0  0  0
   39.8949  -17.6091   32.4011 C   0  0  0  0  0  0  0  0  0  0  0  0
   37.4022  -16.0764   30.0274 C   0  0  0  0  0  0  0  0  0  0  0  0
   36.9588  -17.0219   29.0569 O   0  0  0  0  0  0  0  0  0  0  0  0
   36.4269  -17.7001   29.5579 H   0  0  0  0  0  0  0  0  0  0  0  0
   36.2037  -15.2787   30.3781 C   0  0  0  0  0  0  0  0  0  0  0  0
   36.0984  -14.8352   31.6559 F   0  0  0  0  0  0  0  0  0  0  0  0
   35.0336  -15.9645   29.9880 F   0  0  0  0  0  0  0  0  0  0  0  0
   36.1812  -14.1324   29.5623 F   0  0  0  0  0  0  0  0  0  0  0  0
   38.4266  -15.2326   29.2890 C   0  0  0  0  0  0  0  0  0  0  0  0
   38.2068  -15.3869   27.9176 F   0  0  0  0  0  0  0  0  0  0  0  0
   39.7128  -15.6386   29.5147 F   0  0  0  0  0  0  0  0  0  0  0  0
   38.2867  -13.8899   29.5345 F   0  0  0  0  0  0  0  0  0  0  0  0
   37.7187  -21.2829   36.7118 C   0  0  0  0  0  0  0  0  0  0  0  0
   37.9504  -20.1189   35.8156 C   0  0  0  0  0  0  0  0  0  0  0  0
   38.1477  -18.9117   36.7193 C   0  0  0  0  0  0  0  0  0  0  0  0
 32 33  1  0  0  0
 33 34  1  0  0  0
 33  1  1  0  0  0
  1  2  1  0  0  0
  2  3  1  0  0  0
  3  4  1  0  0  0
  4  5  1  0  0  0
  5  6  1  0  0  0
  6 15  1  0  0  0
 15 16  2  0  0  0
 16 17  1  0  0  0
 17 18  2  0  0  0
 18 19  1  0  0  0
 19 20  2  0  0  0
 18 21  1  0  0  0
 21 22  1  0  0  0
 21 24  1  0  0  0
 24 25  1  0  0  0
 24 26  1  0  0  0
 24 27  1  0  0  0
 21 28  1  0  0  0
 28 29  1  0  0  0
 28 30  1  0  0  0
 28 31  1  0  0  0
  3  7  1  0  0  0
  7  8  2  0  0  0
  8  9  1  0  0  0
  9 10  2  0  0  0
 10 11  1  0  0  0
 10 12  1  0  0  0
 12 13  2  0  0  0
 13 14  1  0  0  0
  6  1  1  0  0  0
 20 15  1  0  0  0
 13  7  1  0  0  0
 22 23  1  0  0  0
M  END
> <minimizedAffinity>
20.94715

> <CNNscore>
0.3941412866

> <CNNaffinity>
5.0949010849

> <CNN_VS>
2.0081107616

> <CNNaffinity_variance>
0.2783579826

$$$$
[H]OC(c1c([H])c([H])c(N2C([H])([H])C([H])([H])N(c3c([H])c([H])c(F)c([H])c3C([H])([H])[H])C([H])([H])[C@@]2([H])C([H])(C([H])([H])[H])C([H])([H])[H])c([H])c1[H])(C(F)(F)F)C(F)(F)F


 34 36  0  0  0  0  0  0  0  0999 V2000
   35.2346  -18.9341   36.3543 C   0  0  0  0  0  0  0  0  0  0  0  0
   35.8293  -17.6533   35.7750 C   0  0  0  0  0  0  0  0  0  0  0  0
   35.1171  -16.4878   36.1398 N   0  0  0  0  0  0  0  0  0  0  0  0
   33.6914  -16.4844   36.2684 C   0  0  0  0  0  0  0  0  0  0  0  0
   33.0292  -17.7442   36.6489 C   0  0  0  0  0  0  0  0  0  0  0  0
   33.8135  -18.9399   36.3610 N   0  0  0  0  0  0  0  0  0  0  0  0
   35.8755  -15.2756   36.3454 C   0  0  0  0  0  0  0  0  0  0  0  0
   37.2007  -15.2672   36.7073 C   0  0  0  0  0  0  0  0  0  0  0  0
   37.9011  -14.0932   36.9051 C   0  0  0  0  0  0  0  0  0  0  0  0
   37.2802  -12.8730   36.7420 C   0  0  0  0  0  0  0  0  0  0  0  0
   37.9617  -11.7033   36.9450 F   0  0  0  0  0  0  0  0  0  0  0  0
   35.9606  -12.8619   36.3809 C   0  0  0  0  0  0  0  0  0  0  0  0
   35.2594  -14.0619   36.1830 C   0  0  0  0  0  0  0  0  0  0  0  0
   33.8250  -14.0276   35.8021 C   0  0  0  0  0  0  0  0  0  0  0  0
   33.0747  -20.1173   36.0715 C   0  0  0  0  0  0  0  0  0  0  0  0
   32.8096  -21.0603   37.0586 C   0  0  0  0  0  0  0  0  0  0  0  0
   32.0598  -22.1663   36.7551 C   0  0  0  0  0  0  0  0  0  0  0  0
   31.5361  -22.4072   35.4836 C   0  0  0  0  0  0  0  0  0  0  0  0
   31.7921  -21.4903   34.5079 C   0  0  0  0  0  0  0  0  0  0  0  0
   32.5612  -20.3548   34.8222 C   0  0  0  0  0  0  0  0  0  0  0  0
   30.7432  -23.6218   35.2902 C   0  0  0  0  0  0  0  0  0  0  0  0
   30.8878  -24.0020   33.9238 O   0  0  0  0  0  0  0  0  0  0  0  0
   31.8691  -24.0338   33.7504 H   0  0  0  0  0  0  0  0  0  0  0  0
   31.1204  -24.8204   36.0757 C   0  0  0  0  0  0  0  0  0  0  0  0
   32.3862  -25.2882   35.9356 F   0  0  0  0  0  0  0  0  0  0  0  0
   30.1797  -25.8517   35.8685 F   0  0  0  0  0  0  0  0  0  0  0  0
   30.9618  -24.5218   37.4416 F   0  0  0  0  0  0  0  0  0  0  0  0
   29.2640  -23.3111   35.4390 C   0  0  0  0  0  0  0  0  0  0  0  0
   28.9842  -22.1676   34.6860 F   0  0  0  0  0  0  0  0  0  0  0  0
   28.9095  -23.0136   36.7258 F   0  0  0  0  0  0  0  0  0  0  0  0
   28.4588  -24.2957   34.9243 F   0  0  0  0  0  0  0  0  0  0  0  0
   36.3599  -20.7178   37.7646 C   0  0  0  0  0  0  0  0  0  0  0  0
   35.8962  -19.3094   37.6494 C   0  0  0  0  0  0  0  0  0  0  0  0
   37.0911  -18.4328   37.9906 C   0  0  0  0  0  0  0  0  0  0  0  0
 32 33  1  0  0  0
 33 34  1  0  0  0
 33  1  1  0  0  0
  1  2  1  0  0  0
  2  3  1  0  0  0
  3  4  1  0  0  0
  4  5  1  0  0  0
  5  6  1  0  0  0
  6 15  1  0  0  0
 15 16  2  0  0  0
 16 17  1  0  0  0
 17 18  2  0  0  0
 18 19  1  0  0  0
 19 20  2  0  0  0
 18 21  1  0  0  0
 21 22  1  0  0  0
 21 24  1  0  0  0
 24 25  1  0  0  0
 24 26  1  0  0  0
 24 27  1  0  0  0
 21 28  1  0  0  0
 28 29  1  0  0  0
 28 30  1  0  0  0
 28 31  1  0  0  0
  3  7  1  0  0  0
  7  8  2  0  0  0
  8  9  1  0  0  0
  9 10  2  0  0  0
 10 11  1  0  0  0
 10 12  1  0  0  0
 12 13  2  0  0  0
 13 14  1  0  0  0
  6  1  1  0  0  0
 20 15  1  0  0  0
 13  7  1  0  0  0
 22 23  1  0  0  0
M  END
> <minimizedAffinity>
-1.90987

> <CNNscore>
0.3886449337

> <CNNaffinity>
5.6386089325

> <CNN_VS>
2.1914167404

> <CNNaffinity_variance>
0.2602005899

$$$$
[H]OC(c1c([H])c([H])c(N2C([H])([H])C([H])([H])N(c3c([H])c([H])c(F)c([H])c3C([H])([H])[H])C([H])([H])[C@@]2([H])C([H])(C([H])([H])[H])C([H])([H])[H])c([H])c1[H])(C(F)(F)F)C(F)(F)F


 34 36  0  0  0  0  0  0  0  0999 V2000
   36.0378  -20.6856   39.1890 C   0  0  0  0  0  0  0  0  0  0  0  0
   35.0564  -19.8294   38.3931 C   0  0  0  0  0  0  0  0  0  0  0  0
   35.0008  -20.1665   37.0213 N   0  0  0  0  0  0  0  0  0  0  0  0
   36.1658  -20.5760   36.2974 C   0  0  0  0  0  0  0  0  0  0  0  0
   37.2418  -21.2499   37.0446 C   0  0  0  0  0  0  0  0  0  0  0  0
   37.2330  -20.9773   38.4775 N   0  0  0  0  0  0  0  0  0  0  0  0
   33.7254  -20.0484   36.3532 C   0  0  0  0  0  0  0  0  0  0  0  0
   33.1843  -18.8460   35.9675 C   0  0  0  0  0  0  0  0  0  0  0  0
   31.9585  -18.7605   35.3366 C   0  0  0  0  0  0  0  0  0  0  0  0
   31.2286  -19.8993   35.0699 C   0  0  0  0  0  0  0  0  0  0  0  0
   30.0083  -19.8257   34.4541 F   0  0  0  0  0  0  0  0  0  0  0  0
   31.7523  -21.1060   35.4461 C   0  0  0  0  0  0  0  0  0  0  0  0
   32.9991  -21.1801   36.0870 C   0  0  0  0  0  0  0  0  0  0  0  0
   33.5442  -22.4987   36.4968 C   0  0  0  0  0  0  0  0  0  0  0  0
   38.4953  -21.0053   39.1269 C   0  0  0  0  0  0  0  0  0  0  0  0
   38.6165  -21.4347   40.4440 C   0  0  0  0  0  0  0  0  0  0  0  0
   39.8549  -21.4871   41.0282 C   0  0  0  0  0  0  0  0  0  0  0  0
   41.0278  -21.1250   40.3633 C   0  0  0  0  0  0  0  0  0  0  0  0
   40.9200  -20.7002   39.0725 C   0  0  0  0  0  0  0  0  0  0  0  0
   39.6476  -20.6484   38.4744 C   0  0  0  0  0  0  0  0  0  0  0  0
   42.2900  -21.2347   41.0957 C   0  0  0  0  0  0  0  0  0  0  0  0
   41.9961  -21.8582   42.3436 O   0  0  0  0  0  0  0  0  0  0  0  0
   41.4927  -22.6899   42.1228 H   0  0  0  0  0  0  0  0  0  0  0  0
   43.3667  -22.0526   40.4894 C   0  0  0  0  0  0  0  0  0  0  0  0
   44.4614  -22.3092   41.2487 F   0  0  0  0  0  0  0  0  0  0  0  0
   43.7394  -21.5138   39.2394 F   0  0  0  0  0  0  0  0  0  0  0  0
   42.8282  -23.3053   40.1422 F   0  0  0  0  0  0  0  0  0  0  0  0
   42.7968  -19.8544   41.4756 C   0  0  0  0  0  0  0  0  0  0  0  0
   41.6892  -19.0440   41.7390 F   0  0  0  0  0  0  0  0  0  0  0  0
   43.4824  -19.2418   40.4633 F   0  0  0  0  0  0  0  0  0  0  0  0
   43.5329  -19.8577   42.6337 F   0  0  0  0  0  0  0  0  0  0  0  0
   33.8777  -21.7482   39.9901 C   0  0  0  0  0  0  0  0  0  0  0  0
   35.3512  -21.8611   39.8236 C   0  0  0  0  0  0  0  0  0  0  0  0
   35.6034  -23.1711   39.0934 C   0  0  0  0  0  0  0  0  0  0  0  0
 32 33  1  0  0  0
 33 34  1  0  0  0
 33  1  1  0  0  0
  1  2  1  0  0  0
  2  3  1  0  0  0
  3  4  1  0  0  0
  4  5  1  0  0  0
  5  6  1  0  0  0
  6 15  1  0  0  0
 15 16  2  0  0  0
 16 17  1  0  0  0
 17 18  2  0  0  0
 18 19  1  0  0  0
 19 20  2  0  0  0
 18 21  1  0  0  0
 21 22  1  0  0  0
 21 24  1  0  0  0
 24 25  1  0  0  0
 24 26  1  0  0  0
 24 27  1  0  0  0
 21 28  1  0  0  0
 28 29  1  0  0  0
 28 30  1  0  0  0
 28 31  1  0  0  0
  3  7  1  0  0  0
  7  8  2  0  0  0
  8  9  1  0  0  0
  9 10  2  0  0  0
 10 11  1  0  0  0
 10 12  1  0  0  0
 12 13  2  0  0  0
 13 14  1  0  0  0
  6  1  1  0  0  0
 20 15  1  0  0  0
 13  7  1  0  0  0
 22 23  1  0  0  0
M  END
> <minimizedAffinity>
-4.40390

> <CNNscore>
0.3873960674

> <CNNaffinity>
4.8962621689

> <CNN_VS>
1.8967926502

> <CNNaffinity_variance>
0.0805954039

$$$$
[H]OC(c1c([H])c([H])c(N2C([H])([H])C([H])([H])N(c3c([H])c([H])c(F)c([H])c3C([H])([H])[H])C([H])([H])[C@@]2([H])C([H])(C([H])([H])[H])C([H])([H])[H])c([H])c1[H])(C(F)(F)F)C(F)(F)F


 34 36  0  0  0  0  0  0  0  0999 V2000
   35.7809  -21.1818   38.6263 C   0  0  0  0  0  0  0  0  0  0  0  0
   34.5950  -20.3270   38.1877 C   0  0  0  0  0  0  0  0  0  0  0  0
   34.5616  -20.0840   36.7954 N   0  0  0  0  0  0  0  0  0  0  0  0
   35.7585  -19.8872   36.0353 C   0  0  0  0  0  0  0  0  0  0  0  0
   36.9920  -20.5393   36.5081 C   0  0  0  0  0  0  0  0  0  0  0  0
   36.9802  -20.8787   37.9266 N   0  0  0  0  0  0  0  0  0  0  0  0
   33.2669  -20.0019   36.1601 C   0  0  0  0  0  0  0  0  0  0  0  0
   32.6529  -18.8127   35.8499 C   0  0  0  0  0  0  0  0  0  0  0  0
   31.4102  -18.7622   35.2489 C   0  0  0  0  0  0  0  0  0  0  0  0
   30.7371  -19.9242   34.9364 C   0  0  0  0  0  0  0  0  0  0  0  0
   29.5009  -19.8860   34.3497 F   0  0  0  0  0  0  0  0  0  0  0  0
   31.3337  -21.1180   35.2372 C   0  0  0  0  0  0  0  0  0  0  0  0
   32.5970  -21.1565   35.8483 C   0  0  0  0  0  0  0  0  0  0  0  0
   33.2219  -22.4626   36.1763 C   0  0  0  0  0  0  0  0  0  0  0  0
   38.2406  -20.8766   38.5804 C   0  0  0  0  0  0  0  0  0  0  0  0
   39.4003  -20.5137   37.9043 C   0  0  0  0  0  0  0  0  0  0  0  0
   40.5946  -20.4840   38.5753 C   0  0  0  0  0  0  0  0  0  0  0  0
   40.7174  -20.8053   39.9283 C   0  0  0  0  0  0  0  0  0  0  0  0
   39.5870  -21.1648   40.6001 C   0  0  0  0  0  0  0  0  0  0  0  0
   38.3617  -21.1934   39.9093 C   0  0  0  0  0  0  0  0  0  0  0  0
   42.0484  -20.7258   40.5314 C   0  0  0  0  0  0  0  0  0  0  0  0
   42.9925  -20.7393   39.4632 O   0  0  0  0  0  0  0  0  0  0  0  0
   42.7045  -20.0219   38.8336 H   0  0  0  0  0  0  0  0  0  0  0  0
   42.3703  -19.5182   41.3277 C   0  0  0  0  0  0  0  0  0  0  0  0
   43.4785  -19.5604   42.1092 F   0  0  0  0  0  0  0  0  0  0  0  0
   41.2438  -19.1174   42.0774 F   0  0  0  0  0  0  0  0  0  0  0  0
   42.5562  -18.4409   40.4418 F   0  0  0  0  0  0  0  0  0  0  0  0
   42.3464  -21.9939   41.3121 C   0  0  0  0  0  0  0  0  0  0  0  0
   41.8486  -21.8315   42.6077 F   0  0  0  0  0  0  0  0  0  0  0  0
   43.6859  -22.2329   41.4480 F   0  0  0  0  0  0  0  0  0  0  0  0
   41.7014  -23.0943   40.8062 F   0  0  0  0  0  0  0  0  0  0  0  0
   36.3070  -23.5734   37.9625 C   0  0  0  0  0  0  0  0  0  0  0  0
   35.4135  -22.6365   38.6944 C   0  0  0  0  0  0  0  0  0  0  0  0
   35.3079  -23.1642   40.1168 C   0  0  0  0  0  0  0  0  0  0  0  0
 32 33  1  0  0  0
 33 34  1  0  0  0
 33  1  1  0  0  0
  1  2  1  0  0  0
  2  3  1  0  0  0
  3  4  1  0  0  0
  4  5  1  0  0  0
  5  6  1  0  0  0
  6 15  1  0  0  0
 15 16  2  0  0  0
 16 17  1  0  0  0
 17 18  2  0  0  0
 18 19  1  0  0  0
 19 20  2  0  0  0
 18 21  1  0  0  0
 21 22  1  0  0  0
 21 24  1  0  0  0
 24 25  1  0  0  0
 24 26  1  0  0  0
 24 27  1  0  0  0
 21 28  1  0  0  0
 28 29  1  0  0  0
 28 30  1  0  0  0
 28 31  1  0  0  0
  3  7  1  0  0  0
  7  8  2  0  0  0
  8  9  1  0  0  0
  9 10  2  0  0  0
 10 11  1  0  0  0
 10 12  1  0  0  0
 12 13  2  0  0  0
 13 14  1  0  0  0
  6  1  1  0  0  0
 20 15  1  0  0  0
 13  7  1  0  0  0
 22 23  1  0  0  0
M  END
> <minimizedAffinity>
-4.84192

> <CNNscore>
0.3790578842

> <CNNaffinity>
4.9211759567

> <CNN_VS>
1.8654105663

> <CNNaffinity_variance>
0.1200710312

$$$$
[H]OC(c1c([H])c([H])c(N2C([H])([H])C([H])([H])N(c3c([H])c([H])c(F)c([H])c3C([H])([H])[H])C([H])([H])[C@@]2([H])C([H])(C([H])([H])[H])C([H])([H])[H])c([H])c1[H])(C(F)(F)F)C(F)(F)F


 34 36  0  0  0  0  0  0  0  0999 V2000
   36.1731  -20.6784   38.1415 C   0  0  0  0  0  0  0  0  0  0  0  0
   37.3138  -20.6986   39.1554 C   0  0  0  0  0  0  0  0  0  0  0  0
   38.3787  -21.5522   38.7866 N   0  0  0  0  0  0  0  0  0  0  0  0
   38.1508  -22.7945   38.1129 C   0  0  0  0  0  0  0  0  0  0  0  0
   36.9583  -22.9065   37.2551 C   0  0  0  0  0  0  0  0  0  0  0  0
   35.9015  -21.9541   37.5770 N   0  0  0  0  0  0  0  0  0  0  0  0
   39.7178  -21.1473   39.1466 C   0  0  0  0  0  0  0  0  0  0  0  0
   40.5147  -20.3732   38.3385 C   0  0  0  0  0  0  0  0  0  0  0  0
   41.7953  -20.0062   38.7037 C   0  0  0  0  0  0  0  0  0  0  0  0
   42.3213  -20.4127   39.9116 C   0  0  0  0  0  0  0  0  0  0  0  0
   43.5927  -20.0633   40.2795 F   0  0  0  0  0  0  0  0  0  0  0  0
   41.5416  -21.1836   40.7299 C   0  0  0  0  0  0  0  0  0  0  0  0
   40.2416  -21.5503   40.3476 C   0  0  0  0  0  0  0  0  0  0  0  0
   39.4162  -22.3965   41.2456 C   0  0  0  0  0  0  0  0  0  0  0  0
   34.5738  -22.3787   37.3070 C   0  0  0  0  0  0  0  0  0  0  0  0
   33.9058  -23.2413   38.1693 C   0  0  0  0  0  0  0  0  0  0  0  0
   32.6111  -23.6002   37.8998 C   0  0  0  0  0  0  0  0  0  0  0  0
   31.9087  -23.1406   36.7843 C   0  0  0  0  0  0  0  0  0  0  0  0
   32.5551  -22.2965   35.9312 C   0  0  0  0  0  0  0  0  0  0  0  0
   33.8839  -21.9284   36.2105 C   0  0  0  0  0  0  0  0  0  0  0  0
   30.5267  -23.5908   36.6140 C   0  0  0  0  0  0  0  0  0  0  0  0
   30.1681  -24.2963   37.7998 O   0  0  0  0  0  0  0  0  0  0  0  0
   30.3870  -23.6871   38.5581 H   0  0  0  0  0  0  0  0  0  0  0  0
   29.4831  -22.5532   36.4407 C   0  0  0  0  0  0  0  0  0  0  0  0
   29.5174  -21.8141   35.3036 F   0  0  0  0  0  0  0  0  0  0  0  0
   29.4344  -21.7198   37.5785 F   0  0  0  0  0  0  0  0  0  0  0  0
   28.2252  -23.1836   36.4605 F   0  0  0  0  0  0  0  0  0  0  0  0
   30.4482  -24.6373   35.5162 C   0  0  0  0  0  0  0  0  0  0  0  0
   29.5674  -25.6382   35.9346 F   0  0  0  0  0  0  0  0  0  0  0  0
   31.6449  -25.2577   35.2856 F   0  0  0  0  0  0  0  0  0  0  0  0
   29.9184  -24.1462   34.3496 F   0  0  0  0  0  0  0  0  0  0  0  0
   36.8652  -19.9129   35.8237 C   0  0  0  0  0  0  0  0  0  0  0  0
   36.3289  -19.5500   37.1626 C   0  0  0  0  0  0  0  0  0  0  0  0
   35.0381  -18.7844   36.9169 C   0  0  0  0  0  0  0  0  0  0  0  0
 32 33  1  0  0  0
 33 34  1  0  0  0
 33  1  1  0  0  0
  1  2  1  0  0  0
  2  3  1  0  0  0
  3  4  1  0  0  0
  4  5  1  0  0  0
  5  6  1  0  0  0
  6 15  1  0  0  0
 15 16  2  0  0  0
 16 17  1  0  0  0
 17 18  2  0  0  0
 18 19  1  0  0  0
 19 20  2  0  0  0
 18 21  1  0  0  0
 21 22  1  0  0  0
 21 24  1  0  0  0
 24 25  1  0  0  0
 24 26  1  0  0  0
 24 27  1  0  0  0
 21 28  1  0  0  0
 28 29  1  0  0  0
 28 30  1  0  0  0
 28 31  1  0  0  0
  3  7  1  0  0  0
  7  8  2  0  0  0
  8  9  1  0  0  0
  9 10  2  0  0  0
 10 11  1  0  0  0
 10 12  1  0  0  0
 12 13  2  0  0  0
 13 14  1  0  0  0
  6  1  1  0  0  0
 20 15  1  0  0  0
 13  7  1  0  0  0
 22 23  1  0  0  0
M  END
> <minimizedAffinity>
-3.42860

> <CNNscore>
0.3671926260

> <CNNaffinity>
4.6880149841

> <CNN_VS>
1.7214045525

> <CNNaffinity_variance>
0.1831546873

$$$$
[H]OC(c1c([H])c([H])c(N2C([H])([H])C([H])([H])N(c3c([H])c([H])c(F)c([H])c3C([H])([H])[H])C([H])([H])[C@@]2([H])C([H])(C([H])([H])[H])C([H])([H])[H])c([H])c1[H])(C(F)(F)F)C(F)(F)F


 34 36  0  0  0  0  0  0  0  0999 V2000
   36.5011  -20.9353   37.5668 C   0  0  0  0  0  0  0  0  0  0  0  0
   35.1962  -20.1654   37.3821 C   0  0  0  0  0  0  0  0  0  0  0  0
   35.0109  -19.6806   36.0671 N   0  0  0  0  0  0  0  0  0  0  0  0
   36.1061  -19.2062   35.2769 C   0  0  0  0  0  0  0  0  0  0  0  0
   37.4397  -19.7787   35.5302 C   0  0  0  0  0  0  0  0  0  0  0  0
   37.5929  -20.3679   36.8558 N   0  0  0  0  0  0  0  0  0  0  0  0
   33.6624  -19.6425   35.5505 C   0  0  0  0  0  0  0  0  0  0  0  0
   32.9282  -20.7704   35.2745 C   0  0  0  0  0  0  0  0  0  0  0  0
   31.6425  -20.7060   34.7737 C   0  0  0  0  0  0  0  0  0  0  0  0
   31.0469  -19.4863   34.5319 C   0  0  0  0  0  0  0  0  0  0  0  0
   29.7770  -19.4105   34.0264 F   0  0  0  0  0  0  0  0  0  0  0  0
   31.7628  -18.3521   34.8017 C   0  0  0  0  0  0  0  0  0  0  0  0
   33.0689  -18.4304   35.3104 C   0  0  0  0  0  0  0  0  0  0  0  0
   33.8324  -17.1875   35.5859 C   0  0  0  0  0  0  0  0  0  0  0  0
   38.9001  -20.3312   37.4088 C   0  0  0  0  0  0  0  0  0  0  0  0
   39.9767  -19.8424   36.6768 C   0  0  0  0  0  0  0  0  0  0  0  0
   41.2179  -19.7841   37.2542 C   0  0  0  0  0  0  0  0  0  0  0  0
   41.4701  -20.1974   38.5636 C   0  0  0  0  0  0  0  0  0  0  0  0
   40.4222  -20.6805   39.2893 C   0  0  0  0  0  0  0  0  0  0  0  0
   39.1484  -20.7383   38.6947 C   0  0  0  0  0  0  0  0  0  0  0  0
   42.8388  -20.0753   39.0670 C   0  0  0  0  0  0  0  0  0  0  0  0
   43.7015  -20.0600   37.9321 O   0  0  0  0  0  0  0  0  0  0  0  0
   43.3453  -19.3526   37.3265 H   0  0  0  0  0  0  0  0  0  0  0  0
   43.1803  -18.8574   39.8391 C   0  0  0  0  0  0  0  0  0  0  0  0
   44.3918  -18.8213   40.4485 F   0  0  0  0  0  0  0  0  0  0  0  0
   42.1495  -18.5597   40.7559 F   0  0  0  0  0  0  0  0  0  0  0  0
   43.1487  -17.7558   38.9642 F   0  0  0  0  0  0  0  0  0  0  0  0
   43.2334  -21.3326   39.8219 C   0  0  0  0  0  0  0  0  0  0  0  0
   44.6206  -21.4748   39.7306 F   0  0  0  0  0  0  0  0  0  0  0  0
   42.6995  -22.4687   39.2795 F   0  0  0  0  0  0  0  0  0  0  0  0
   42.9598  -21.2555   41.1643 F   0  0  0  0  0  0  0  0  0  0  0  0
   37.0830  -23.2990   38.2819 C   0  0  0  0  0  0  0  0  0  0  0  0
   36.2977  -22.4120   37.3828 C   0  0  0  0  0  0  0  0  0  0  0  0
   34.8446  -22.8403   37.5163 C   0  0  0  0  0  0  0  0  0  0  0  0
 32 33  1  0  0  0
 33 34  1  0  0  0
 33  1  1  0  0  0
  1  2  1  0  0  0
  2  3  1  0  0  0
  3  4  1  0  0  0
  4  5  1  0  0  0
  5  6  1  0  0  0
  6 15  1  0  0  0
 15 16  2  0  0  0
 16 17  1  0  0  0
 17 18  2  0  0  0
 18 19  1  0  0  0
 19 20  2  0  0  0
 18 21  1  0  0  0
 21 22  1  0  0  0
 21 24  1  0  0  0
 24 25  1  0  0  0
 24 26  1  0  0  0
 24 27  1  0  0  0
 21 28  1  0  0  0
 28 29  1  0  0  0
 28 30  1  0  0  0
 28 31  1  0  0  0
  3  7  1  0  0  0
  7  8  2  0  0  0
  8  9  1  0  0  0
  9 10  2  0  0  0
 10 11  1  0  0  0
 10 12  1  0  0  0
 12 13  2  0  0  0
 13 14  1  0  0  0
  6  1  1  0  0  0
 20 15  1  0  0  0
 13  7  1  0  0  0
 22 23  1  0  0  0
M  END
> <minimizedAffinity>
-5.56461

> <CNNscore>
0.3434109390

> <CNNaffinity>
5.0774383545

> <CNN_VS>
1.7436478138

> <CNNaffinity_variance>
0.1555511951

$$$$
[H]OC(c1c([H])c([H])c(N2C([H])([H])C([H])([H])N(c3c([H])c([H])c(F)c([H])c3C([H])([H])[H])C([H])([H])[C@@]2([H])C([H])(C([H])([H])[H])C([H])([H])[H])c([H])c1[H])(C(F)(F)F)C(F)(F)F


 34 36  0  0  0  0  0  0  0  0999 V2000
   35.6703  -21.5632   37.7329 C   0  0  0  0  0  0  0  0  0  0  0  0
   36.9997  -21.7167   36.9989 C   0  0  0  0  0  0  0  0  0  0  0  0
   37.3285  -20.6030   36.1926 N   0  0  0  0  0  0  0  0  0  0  0  0
   36.3292  -19.8670   35.4794 C   0  0  0  0  0  0  0  0  0  0  0  0
   34.9674  -19.8293   36.0400 C   0  0  0  0  0  0  0  0  0  0  0  0
   34.6677  -20.9284   36.9510 N   0  0  0  0  0  0  0  0  0  0  0  0
   38.7239  -20.2470   36.0780 C   0  0  0  0  0  0  0  0  0  0  0  0
   39.6794  -21.0943   35.5718 C   0  0  0  0  0  0  0  0  0  0  0  0
   41.0090  -20.7316   35.4802 C   0  0  0  0  0  0  0  0  0  0  0  0
   41.4243  -19.4861   35.9011 C   0  0  0  0  0  0  0  0  0  0  0  0
   42.7410  -19.1195   35.8242 F   0  0  0  0  0  0  0  0  0  0  0  0
   40.4863  -18.6284   36.4074 C   0  0  0  0  0  0  0  0  0  0  0  0
   39.1378  -19.0087   36.4956 C   0  0  0  0  0  0  0  0  0  0  0  0
   38.1378  -18.0669   37.0584 C   0  0  0  0  0  0  0  0  0  0  0  0
   33.3109  -21.3433   37.0050 C   0  0  0  0  0  0  0  0  0  0  0  0
   32.3077  -20.6020   36.3902 C   0  0  0  0  0  0  0  0  0  0  0  0
   31.0138  -21.0513   36.4274 C   0  0  0  0  0  0  0  0  0  0  0  0
   30.6358  -22.2359   37.0621 C   0  0  0  0  0  0  0  0  0  0  0  0
   31.6110  -22.9690   37.6701 C   0  0  0  0  0  0  0  0  0  0  0  0
   32.9390  -22.5063   37.6295 C   0  0  0  0  0  0  0  0  0  0  0  0
   29.2217  -22.6108   37.0229 C   0  0  0  0  0  0  0  0  0  0  0  0
   29.1147  -23.9004   37.6213 O   0  0  0  0  0  0  0  0  0  0  0  0
   29.5712  -23.8313   38.5050 H   0  0  0  0  0  0  0  0  0  0  0  0
   28.2634  -21.7531   37.7590 C   0  0  0  0  0  0  0  0  0  0  0  0
   28.0591  -20.4966   37.2898 F   0  0  0  0  0  0  0  0  0  0  0  0
   28.5903  -21.7281   39.1316 F   0  0  0  0  0  0  0  0  0  0  0  0
   27.0060  -22.3847   37.7481 F   0  0  0  0  0  0  0  0  0  0  0  0
   28.7762  -22.8250   35.5869 C   0  0  0  0  0  0  0  0  0  0  0  0
   27.5811  -23.5489   35.6080 F   0  0  0  0  0  0  0  0  0  0  0  0
   29.6604  -23.5744   34.8614 F   0  0  0  0  0  0  0  0  0  0  0  0
   28.4829  -21.6510   34.9399 F   0  0  0  0  0  0  0  0  0  0  0  0
   34.9942  -21.5781   40.1782 C   0  0  0  0  0  0  0  0  0  0  0  0
   35.8676  -21.0119   39.1160 C   0  0  0  0  0  0  0  0  0  0  0  0
   37.2972  -21.1435   39.6177 C   0  0  0  0  0  0  0  0  0  0  0  0
 32 33  1  0  0  0
 33 34  1  0  0  0
 33  1  1  0  0  0
  1  2  1  0  0  0
  2  3  1  0  0  0
  3  4  1  0  0  0
  4  5  1  0  0  0
  5  6  1  0  0  0
  6 15  1  0  0  0
 15 16  2  0  0  0
 16 17  1  0  0  0
 17 18  2  0  0  0
 18 19  1  0  0  0
 19 20  2  0  0  0
 18 21  1  0  0  0
 21 22  1  0  0  0
 21 24  1  0  0  0
 24 25  1  0  0  0
 24 26  1  0  0  0
 24 27  1  0  0  0
 21 28  1  0  0  0
 28 29  1  0  0  0
 28 30  1  0  0  0
 28 31  1  0  0  0
  3  7  1  0  0  0
  7  8  2  0  0  0
  8  9  1  0  0  0
  9 10  2  0  0  0
 10 11  1  0  0  0
 10 12  1  0  0  0
 12 13  2  0  0  0
 13 14  1  0  0  0
  6  1  1  0  0  0
 20 15  1  0  0  0
 13  7  1  0  0  0
 22 23  1  0  0  0
M  END
> <minimizedAffinity>
-4.51995

> <CNNscore>
0.3413829505

> <CNNaffinity>
4.8644995689

> <CNN_VS>
1.6606571674

> <CNNaffinity_variance>
0.1318723112

$$$$
[H]N=C(c1c([H])c([H])c(C([H])([H])N([H])C(=O)[C@@]([H])(N([H])C(=O)[C@@]([H])(N([H])C(=O)[C@@]([H])(N([H])C(=O)[C@@]([H])(N([H])C(=O)[C@@]([H])(N([H])C(=O)[C@@]([H])(N([H])C(=O)[C@@]([H])(N([H])C(=O)C([H])([H])[H])C([H])(C([H])([H])[H])C([H])([H])[H])C([H])([H])C([H])([H])C(=O)N([H])[H])C([H])([H])C([H])([H])C(=O)N([H])[H])C([H])([H])C([H])(C([H])([H])[H])C([H])([H])[H])C([H])([H])C([H])([H])C(=O)N([H])[H])C([H])([H])C([H])([H])C(=O)N([H])[H])C([H])([H])C([H])([H])C([H])([H])N([H])C(=N[H])N([H])[H])c([H])c1[H])N([H])[H]


 99 99  0  0  0  0  0  0  0  0999 V2000
   34.1076  -14.3600   36.0780 C   0  0  0  0  0  0  0  0  0  0  0  0
   34.3210  -15.8263   36.3112 C   0  0  0  0  0  0  0  0  0  0  0  0
   35.1566  -16.2201   37.1337 O   0  0  0  0  0  0  0  0  0  0  0  0
   33.5176  -16.6788   35.5513 N   0  0  0  0  0  0  0  0  0  0  0  0
   32.8260  -16.2163   34.8631 H   0  0  0  0  0  0  0  0  0  0  0  0
   33.4394  -18.1144   35.5083 C   0  0  0  0  0  0  0  0  0  0  0  0
   34.7877  -18.7476   35.3301 C   0  0  0  0  0  0  0  0  0  0  0  0
   35.4548  -18.2275   34.3672 O   0  0  0  0  0  0  0  0  0  0  0  0
   35.2841  -19.7778   36.1247 N   0  0  0  0  0  0  0  0  0  0  0  0
   36.4983  -19.5264   35.4319 H   0  0  0  0  0  0  0  0  0  0  0  0
   35.9944  -20.7698   36.7602 C   0  0  0  0  0  0  0  0  0  0  0  0
   35.8013  -20.6433   38.2815 C   0  0  0  0  0  0  0  0  0  0  0  0
   34.8579  -19.7738   38.5023 O   0  0  0  0  0  0  0  0  0  0  0  0
   36.4406  -21.2634   39.2601 N   0  0  0  0  0  0  0  0  0  0  0  0
   35.6546  -20.5947   40.1832 H   0  0  0  0  0  0  0  0  0  0  0  0
   37.0727  -21.8798   40.3481 C   0  0  0  0  0  0  0  0  0  0  0  0
   38.3673  -21.2619   40.7281 C   0  0  0  0  0  0  0  0  0  0  0  0
   38.6683  -20.9176   42.0396 C   0  0  0  0  0  0  0  0  0  0  0  0
   39.8852  -20.4443   42.3761 C   0  0  0  0  0  0  0  0  0  0  0  0
   40.8854  -20.2909   41.4026 C   0  0  0  0  0  0  0  0  0  0  0  0
   40.5746  -20.6329   40.1005 C   0  0  0  0  0  0  0  0  0  0  0  0
   39.3348  -21.1155   39.7405 C   0  0  0  0  0  0  0  0  0  0  0  0
   42.1851  -19.8244   41.8247 C   0  0  0  0  0  0  0  0  0  0  0  0
   42.2660  -18.6716   42.6587 N   0  0  0  0  0  0  0  0  0  0  0  0
   43.2890  -20.4153   41.5018 N   0  0  0  0  0  0  0  0  0  0  0  0
   41.7252  -17.8104   42.4581 H   0  0  0  0  0  0  0  0  0  0  0  0
   42.8901  -18.6963   43.4841 H   0  0  0  0  0  0  0  0  0  0  0  0
   44.2066  -20.0296   41.8383 H   0  0  0  0  0  0  0  0  0  0  0  0
   37.4657  -20.4250   36.4761 C   0  0  0  0  0  0  0  0  0  0  0  0
   37.9967  -19.1198   36.8715 C   0  0  0  0  0  0  0  0  0  0  0  0
   38.6471  -18.2890   35.8340 C   0  0  0  0  0  0  0  0  0  0  0  0
   38.3968  -18.4370   34.4653 N   0  0  0  0  0  0  0  0  0  0  0  0
   37.3737  -18.3726   34.1338 H   0  0  0  0  0  0  0  0  0  0  0  0
   39.3129  -18.6700   33.4327 C   0  0  0  0  0  0  0  0  0  0  0  0
   40.5670  -18.0188   33.3314 N   0  0  0  0  0  0  0  0  0  0  0  0
   39.0000  -19.5219   32.4935 N   0  0  0  0  0  0  0  0  0  0  0  0
   41.3396  -18.5029   32.8389 H   0  0  0  0  0  0  0  0  0  0  0  0
   40.7842  -17.0719   33.7180 H   0  0  0  0  0  0  0  0  0  0  0  0
   38.1086  -20.0282   32.4840 H   0  0  0  0  0  0  0  0  0  0  0  0
   32.5891  -18.4559   34.2863 C   0  0  0  0  0  0  0  0  0  0  0  0
   32.0502  -19.8625   34.3135 C   0  0  0  0  0  0  0  0  0  0  0  0
   30.7077  -19.9295   34.9547 C   0  0  0  0  0  0  0  0  0  0  0  0
   29.9332  -18.7107   35.0045 N   0  0  0  0  0  0  0  0  0  0  0  0
   30.1864  -20.9295   35.4498 O   0  0  0  0  0  0  0  0  0  0  0  0
   30.0318  -18.0168   34.2523 H   0  0  0  0  0  0  0  0  0  0  0  0
   29.3006  -18.5972   35.8215 H   0  0  0  0  0  0  0  0  0  0  0  0
   32.6632  -12.9825   37.9971 C   0  0  0  0  0  0  0  0  0  0  0  0
   32.5321  -13.2738   39.1748 O   0  0  0  0  0  0  0  0  0  0  0  0
   33.3568  -13.6082   36.9761 N   0  0  0  0  0  0  0  0  0  0  0  0
   33.7440  -14.5338   37.9701 H   0  0  0  0  0  0  0  0  0  0  0  0
   31.9129  -11.6777   37.6093 C   0  0  0  0  0  0  0  0  0  0  0  0
   30.7798  -11.3730   38.3625 N   0  0  0  0  0  0  0  0  0  0  0  0
   29.4073  -11.2039   38.1463 C   0  0  0  0  0  0  0  0  0  0  0  0
   28.8910  -11.3623   37.0211 O   0  0  0  0  0  0  0  0  0  0  0  0
   31.0466  -11.2236   39.4263 H   0  0  0  0  0  0  0  0  0  0  0  0
   28.5345  -10.8130   39.2816 C   0  0  0  0  0  0  0  0  0  0  0  0
   28.1923  -11.8350   40.1528 N   0  0  0  0  0  0  0  0  0  0  0  0
   28.9425  -12.5987   41.0843 C   0  0  0  0  0  0  0  0  0  0  0  0
   30.1673  -12.3199   41.2143 O   0  0  0  0  0  0  0  0  0  0  0  0
   27.1159  -12.0705   40.2230 H   0  0  0  0  0  0  0  0  0  0  0  0
   28.3343  -13.6526   41.8988 C   0  0  0  0  0  0  0  0  0  0  0  0
   26.8950  -13.5557   41.8080 N   0  0  0  0  0  0  0  0  0  0  0  0
   26.0105  -13.3363   42.8575 C   0  0  0  0  0  0  0  0  0  0  0  0
   26.5558  -13.1896   44.0093 O   0  0  0  0  0  0  0  0  0  0  0  0
   26.5183  -13.6393   40.8348 H   0  0  0  0  0  0  0  0  0  0  0  0
   24.5432  -13.2556   42.8036 C   0  0  0  0  0  0  0  0  0  0  0  0
   23.9729  -13.0189   41.5089 N   0  0  0  0  0  0  0  0  0  0  0  0
   23.2550  -11.8957   41.0766 C   0  0  0  0  0  0  0  0  0  0  0  0
   22.6717  -11.7629   39.7099 C   0  0  0  0  0  0  0  0  0  0  0  0
   23.0674  -10.9278   41.8501 O   0  0  0  0  0  0  0  0  0  0  0  0
   24.1083  -13.7854   40.7838 H   0  0  0  0  0  0  0  0  0  0  0  0
   23.7521  -14.2048   43.5968 C   0  0  0  0  0  0  0  0  0  0  0  0
   23.0243  -15.2959   42.8347 C   0  0  0  0  0  0  0  0  0  0  0  0
   22.7967  -13.4974   44.5528 C   0  0  0  0  0  0  0  0  0  0  0  0
   28.9653  -14.9666   41.8858 C   0  0  0  0  0  0  0  0  0  0  0  0
   29.3738  -15.5993   40.6029 C   0  0  0  0  0  0  0  0  0  0  0  0
   28.2005  -16.2742   39.9759 C   0  0  0  0  0  0  0  0  0  0  0  0
   27.5153  -15.5760   38.9580 N   0  0  0  0  0  0  0  0  0  0  0  0
   27.8333  -17.4020   40.3221 O   0  0  0  0  0  0  0  0  0  0  0  0
   27.8681  -15.5970   37.9741 H   0  0  0  0  0  0  0  0  0  0  0  0
   26.6456  -15.0394   39.2349 H   0  0  0  0  0  0  0  0  0  0  0  0
   28.8122   -9.4569   39.8708 C   0  0  0  0  0  0  0  0  0  0  0  0
   27.5549   -8.5969   39.8070 C   0  0  0  0  0  0  0  0  0  0  0  0
   26.9150   -8.5362   41.1348 C   0  0  0  0  0  0  0  0  0  0  0  0
   27.5655   -8.2953   42.3674 N   0  0  0  0  0  0  0  0  0  0  0  0
   25.6438   -8.7244   41.1866 O   0  0  0  0  0  0  0  0  0  0  0  0
   27.3522   -7.4042   42.8784 H   0  0  0  0  0  0  0  0  0  0  0  0
   28.2351   -8.9505   42.7848 H   0  0  0  0  0  0  0  0  0  0  0  0
   32.9784  -10.6022   37.8080 C   0  0  0  0  0  0  0  0  0  0  0  0
   32.0132   -8.3249   37.2665 C   0  0  0  0  0  0  0  0  0  0  0  0
   32.9495   -9.4378   36.9062 C   0  0  0  0  0  0  0  0  0  0  0  0
   34.3598   -8.8695   36.7768 C   0  0  0  0  0  0  0  0  0  0  0  0
   35.4836  -13.7355   35.8973 C   0  0  0  0  0  0  0  0  0  0  0  0
   36.0859  -13.1344   37.1023 C   0  0  0  0  0  0  0  0  0  0  0  0
   37.4771  -13.6958   37.2893 C   0  0  0  0  0  0  0  0  0  0  0  0
   37.7131  -15.0889   37.3551 N   0  0  0  0  0  0  0  0  0  0  0  0
   38.4140  -12.8681   37.3798 O   0  0  0  0  0  0  0  0  0  0  0  0
   38.6937  -15.4413   37.3742 H   0  0  0  0  0  0  0  0  0  0  0  0
   36.9134  -15.7541   37.4093 H   0  0  0  0  0  0  0  0  0  0  0  0
 90 91  1  0  0  0
 91 92  1  0  0  0
 91 89  1  0  0  0
 89 51  1  0  0  0
 51 52  1  0  0  0
 52 53  1  0  0  0
 53 54  2  0  0  0
 53 56  1  0  0  0
 56 82  1  0  0  0
 82 83  1  0  0  0
 83 84  1  0  0  0
 84 85  1  0  0  0
 84 86  2  0  0  0
 56 57  1  0  0  0
 57 58  1  0  0  0
 58 59  2  0  0  0
 58 61  1  0  0  0
 61 75  1  0  0  0
 75 76  1  0  0  0
 76 77  1  0  0  0
 77 78  1  0  0  0
 77 79  2  0  0  0
 61 62  1  0  0  0
 62 63  1  0  0  0
 63 64  2  0  0  0
 63 66  1  0  0  0
 66 67  1  0  0  0
 67 68  1  0  0  0
 68 69  1  0  0  0
 68 70  2  0  0  0
 66 72  1  0  0  0
 72 73  1  0  0  0
 72 74  1  0  0  0
 51 47  1  0  0  0
 47 48  2  0  0  0
 47 49  1  0  0  0
 49  1  1  0  0  0
  1 93  1  0  0  0
 93 94  1  0  0  0
 94 95  1  0  0  0
 95 96  1  0  0  0
 95 97  2  0  0  0
  1  2  1  0  0  0
  2  3  2  0  0  0
  2  4  1  0  0  0
  4  6  1  0  0  0
  6 40  1  0  0  0
 40 41  1  0  0  0
 41 42  1  0  0  0
 42 43  1  0  0  0
 42 44  2  0  0  0
  6  7  1  0  0  0
  7  8  2  0  0  0
  7  9  1  0  0  0
  9 11  1  0  0  0
 11 29  1  0  0  0
 29 30  1  0  0  0
 30 31  1  0  0  0
 31 32  1  0  0  0
 32 34  1  0  0  0
 34 35  1  0  0  0
 34 36  2  0  0  0
 11 12  1  0  0  0
 12 13  2  0  0  0
 12 14  1  0  0  0
 14 16  1  0  0  0
 16 17  1  0  0  0
 17 18  2  0  0  0
 18 19  1  0  0  0
 19 20  2  0  0  0
 20 21  1  0  0  0
 21 22  2  0  0  0
 20 23  1  0  0  0
 23 24  1  0  0  0
 23 25  2  0  0  0
 22 17  1  0  0  0
 52 55  1  0  0  0
 85 87  1  0  0  0
 85 88  1  0  0  0
 57 60  1  0  0  0
 78 80  1  0  0  0
 78 81  1  0  0  0
 62 65  1  0  0  0
 67 71  1  0  0  0
 49 50  1  0  0  0
 96 98  1  0  0  0
 96 99  1  0  0  0
  4  5  1  0  0  0
 43 45  1  0  0  0
 43 46  1  0  0  0
  9 10  1  0  0  0
 32 33  1  0  0  0
 35 37  1  0  0  0
 35 38  1  0  0  0
 36 39  1  0  0  0
 14 15  1  0  0  0
 24 26  1  0  0  0
 24 27  1  0  0  0
 25 28  1  0  0  0
M  END
> <minimizedAffinity>
-7.84440

> <CNNscore>
0.6821332574

> <CNNaffinity>
8.4866027832

> <CNN_VS>
5.7889938354

> <CNNaffinity_variance>
0.6930364370

$$$$
[H]N=C(c1c([H])c([H])c(C([H])([H])N([H])C(=O)[C@@]([H])(N([H])C(=O)[C@@]([H])(N([H])C(=O)[C@@]([H])(N([H])C(=O)[C@@]([H])(N([H])C(=O)[C@@]([H])(N([H])C(=O)[C@@]([H])(N([H])C(=O)[C@@]([H])(N([H])C(=O)C([H])([H])[H])C([H])(C([H])([H])[H])C([H])([H])[H])C([H])([H])C([H])([H])C(=O)N([H])[H])C([H])([H])C([H])([H])C(=O)N([H])[H])C([H])([H])C([H])(C([H])([H])[H])C([H])([H])[H])C([H])([H])C([H])([H])C(=O)N([H])[H])C([H])([H])C([H])([H])C(=O)N([H])[H])C([H])([H])C([H])([H])C([H])([H])N([H])C(=N[H])N([H])[H])c([H])c1[H])N([H])[H]


 99 99  0  0  0  0  0  0  0  0999 V2000
   34.2048  -14.4892   35.9703 C   0  0  0  0  0  0  0  0  0  0  0  0
   34.4501  -15.9583   36.1481 C   0  0  0  0  0  0  0  0  0  0  0  0
   35.4190  -16.3624   36.8021 O   0  0  0  0  0  0  0  0  0  0  0  0
   33.5184  -16.8011   35.5389 N   0  0  0  0  0  0  0  0  0  0  0  0
   32.7158  -16.3301   34.9913 H   0  0  0  0  0  0  0  0  0  0  0  0
   33.4270  -18.2360   35.4981 C   0  0  0  0  0  0  0  0  0  0  0  0
   34.6791  -18.8660   34.9633 C   0  0  0  0  0  0  0  0  0  0  0  0
   34.8343  -18.6681   33.7066 O   0  0  0  0  0  0  0  0  0  0  0  0
   35.5935  -19.5777   35.7358 N   0  0  0  0  0  0  0  0  0  0  0  0
   36.3911  -19.5371   34.5612 H   0  0  0  0  0  0  0  0  0  0  0  0
   36.6349  -20.2999   36.2709 C   0  0  0  0  0  0  0  0  0  0  0  0
   36.2970  -20.6871   37.7213 C   0  0  0  0  0  0  0  0  0  0  0  0
   35.0449  -20.4045   37.9382 O   0  0  0  0  0  0  0  0  0  0  0  0
   37.0793  -21.2115   38.6508 N   0  0  0  0  0  0  0  0  0  0  0  0
   36.0091  -21.2248   39.5292 H   0  0  0  0  0  0  0  0  0  0  0  0
   37.8457  -21.7656   39.6846 C   0  0  0  0  0  0  0  0  0  0  0  0
   39.1584  -21.1042   39.8889 C   0  0  0  0  0  0  0  0  0  0  0  0
   39.6752  -20.8564   41.1541 C   0  0  0  0  0  0  0  0  0  0  0  0
   40.9102  -20.3399   41.3155 C   0  0  0  0  0  0  0  0  0  0  0  0
   41.7105  -20.0419   40.2009 C   0  0  0  0  0  0  0  0  0  0  0  0
   41.1855  -20.2888   38.9468 C   0  0  0  0  0  0  0  0  0  0  0  0
   39.9243  -20.8140   38.7655 C   0  0  0  0  0  0  0  0  0  0  0  0
   43.0425  -19.5344   40.4310 C   0  0  0  0  0  0  0  0  0  0  0  0
   44.1516  -20.4166   40.2802 N   0  0  0  0  0  0  0  0  0  0  0  0
   43.2872  -18.3049   40.7479 N   0  0  0  0  0  0  0  0  0  0  0  0
   44.1542  -21.3692   40.6888 H   0  0  0  0  0  0  0  0  0  0  0  0
   44.9801  -20.0901   39.7527 H   0  0  0  0  0  0  0  0  0  0  0  0
   44.2780  -17.9921   40.9038 H   0  0  0  0  0  0  0  0  0  0  0  0
   37.7955  -19.2941   36.3461 C   0  0  0  0  0  0  0  0  0  0  0  0
   38.8885  -19.3703   35.3760 C   0  0  0  0  0  0  0  0  0  0  0  0
   38.6262  -18.9126   33.9934 C   0  0  0  0  0  0  0  0  0  0  0  0
   39.1938  -19.5158   32.8657 N   0  0  0  0  0  0  0  0  0  0  0  0
   38.5288  -19.9941   32.1659 H   0  0  0  0  0  0  0  0  0  0  0  0
   40.5448  -19.5948   32.5075 C   0  0  0  0  0  0  0  0  0  0  0  0
   41.5277  -18.6681   32.9344 N   0  0  0  0  0  0  0  0  0  0  0  0
   40.9325  -20.5637   31.7222 N   0  0  0  0  0  0  0  0  0  0  0  0
   42.5117  -18.9851   33.0051 H   0  0  0  0  0  0  0  0  0  0  0  0
   41.3419  -17.6711   33.1885 H   0  0  0  0  0  0  0  0  0  0  0  0
   40.2850  -21.2704   31.3587 H   0  0  0  0  0  0  0  0  0  0  0  0
   32.2845  -18.5607   34.5378 C   0  0  0  0  0  0  0  0  0  0  0  0
   31.3562  -19.6263   35.0598 C   0  0  0  0  0  0  0  0  0  0  0  0
   31.8192  -20.9933   34.6925 C   0  0  0  0  0  0  0  0  0  0  0  0
   32.7170  -21.1109   33.5664 N   0  0  0  0  0  0  0  0  0  0  0  0
   31.5117  -22.0428   35.2588 O   0  0  0  0  0  0  0  0  0  0  0  0
   33.3767  -20.3491   33.3628 H   0  0  0  0  0  0  0  0  0  0  0  0
   32.6451  -21.9836   33.0062 H   0  0  0  0  0  0  0  0  0  0  0  0
   32.7672  -13.1339   37.9101 C   0  0  0  0  0  0  0  0  0  0  0  0
   33.0763  -12.9674   39.0788 O   0  0  0  0  0  0  0  0  0  0  0  0
   33.4167  -13.7936   36.8815 N   0  0  0  0  0  0  0  0  0  0  0  0
   34.4288  -14.0333   37.8370 H   0  0  0  0  0  0  0  0  0  0  0  0
   31.4065  -12.4775   37.5446 C   0  0  0  0  0  0  0  0  0  0  0  0
   30.5543  -12.1942   38.6113 N   0  0  0  0  0  0  0  0  0  0  0  0
   29.2265  -11.7926   38.7974 C   0  0  0  0  0  0  0  0  0  0  0  0
   28.4466  -11.6230   37.8379 O   0  0  0  0  0  0  0  0  0  0  0  0
   31.0803  -12.3242   39.5765 H   0  0  0  0  0  0  0  0  0  0  0  0
   28.7265  -11.5473   40.1734 C   0  0  0  0  0  0  0  0  0  0  0  0
   27.4559  -11.0010   40.2598 N   0  0  0  0  0  0  0  0  0  0  0  0
   26.1565  -11.5656   40.1761 C   0  0  0  0  0  0  0  0  0  0  0  0
   26.0734  -12.8162   40.0222 O   0  0  0  0  0  0  0  0  0  0  0  0
   27.4065   -9.9317   40.5300 H   0  0  0  0  0  0  0  0  0  0  0  0
   24.9439  -10.7535   40.2939 C   0  0  0  0  0  0  0  0  0  0  0  0
   24.7997  -10.3060   41.6606 N   0  0  0  0  0  0  0  0  0  0  0  0
   25.4312   -9.2158   42.2476 C   0  0  0  0  0  0  0  0  0  0  0  0
   26.1994   -8.5457   41.4689 O   0  0  0  0  0  0  0  0  0  0  0  0
   24.1244  -10.8688   42.2292 H   0  0  0  0  0  0  0  0  0  0  0  0
   25.3250   -8.7478   43.6375 C   0  0  0  0  0  0  0  0  0  0  0  0
   24.6472   -7.4986   43.8312 N   0  0  0  0  0  0  0  0  0  0  0  0
   25.1968   -6.2743   44.2349 C   0  0  0  0  0  0  0  0  0  0  0  0
   24.3927   -5.0345   44.4400 C   0  0  0  0  0  0  0  0  0  0  0  0
   26.4273   -6.1724   44.4488 O   0  0  0  0  0  0  0  0  0  0  0  0
   23.5994   -7.4941   43.6471 H   0  0  0  0  0  0  0  0  0  0  0  0
   25.0117   -9.7219   44.6908 C   0  0  0  0  0  0  0  0  0  0  0  0
   23.5799   -9.7545   45.1908 C   0  0  0  0  0  0  0  0  0  0  0  0
   25.9818   -9.6299   45.8644 C   0  0  0  0  0  0  0  0  0  0  0  0
   24.6359   -9.8356   39.2041 C   0  0  0  0  0  0  0  0  0  0  0  0
   23.3333   -9.1185   39.1615 C   0  0  0  0  0  0  0  0  0  0  0  0
   22.8391   -9.0511   37.7556 C   0  0  0  0  0  0  0  0  0  0  0  0
   21.9078   -8.0378   37.4409 N   0  0  0  0  0  0  0  0  0  0  0  0
   23.2237   -9.8433   36.8889 O   0  0  0  0  0  0  0  0  0  0  0  0
   22.2357   -7.0706   37.2175 H   0  0  0  0  0  0  0  0  0  0  0  0
   20.8820   -8.2999   37.4443 H   0  0  0  0  0  0  0  0  0  0  0  0
   29.1117  -12.5838   41.1935 C   0  0  0  0  0  0  0  0  0  0  0  0
   28.5977  -12.1734   42.5689 C   0  0  0  0  0  0  0  0  0  0  0  0
   29.1527  -13.0660   43.6039 C   0  0  0  0  0  0  0  0  0  0  0  0
   28.6636  -13.2262   44.9212 N   0  0  0  0  0  0  0  0  0  0  0  0
   30.1842  -13.7664   43.2880 O   0  0  0  0  0  0  0  0  0  0  0  0
   28.2443  -14.1499   45.1891 H   0  0  0  0  0  0  0  0  0  0  0  0
   28.6999  -12.4824   45.6265 H   0  0  0  0  0  0  0  0  0  0  0  0
   31.8293  -11.1828   36.8543 C   0  0  0  0  0  0  0  0  0  0  0  0
   33.7548   -9.6829   37.5278 C   0  0  0  0  0  0  0  0  0  0  0  0
   32.3224  -10.0855   37.7045 C   0  0  0  0  0  0  0  0  0  0  0  0
   31.4393   -8.8580   37.5000 C   0  0  0  0  0  0  0  0  0  0  0  0
   35.5681  -13.8245   35.8455 C   0  0  0  0  0  0  0  0  0  0  0  0
   36.0243  -13.0558   37.0191 C   0  0  0  0  0  0  0  0  0  0  0  0
   37.3870  -13.5591   37.4377 C   0  0  0  0  0  0  0  0  0  0  0  0
   38.5770  -13.0135   36.9019 N   0  0  0  0  0  0  0  0  0  0  0  0
   37.4136  -14.4815   38.2860 O   0  0  0  0  0  0  0  0  0  0  0  0
   39.4966  -13.3085   37.2937 H   0  0  0  0  0  0  0  0  0  0  0  0
   38.5343  -12.3423   36.1066 H   0  0  0  0  0  0  0  0  0  0  0  0
 90 91  1  0  0  0
 91 92  1  0  0  0
 91 89  1  0  0  0
 89 51  1  0  0  0
 51 52  1  0  0  0
 52 53  1  0  0  0
 53 54  2  0  0  0
 53 56  1  0  0  0
 56 82  1  0  0  0
 82 83  1  0  0  0
 83 84  1  0  0  0
 84 85  1  0  0  0
 84 86  2  0  0  0
 56 57  1  0  0  0
 57 58  1  0  0  0
 58 59  2  0  0  0
 58 61  1  0  0  0
 61 75  1  0  0  0
 75 76  1  0  0  0
 76 77  1  0  0  0
 77 78  1  0  0  0
 77 79  2  0  0  0
 61 62  1  0  0  0
 62 63  1  0  0  0
 63 64  2  0  0  0
 63 66  1  0  0  0
 66 67  1  0  0  0
 67 68  1  0  0  0
 68 69  1  0  0  0
 68 70  2  0  0  0
 66 72  1  0  0  0
 72 73  1  0  0  0
 72 74  1  0  0  0
 51 47  1  0  0  0
 47 48  2  0  0  0
 47 49  1  0  0  0
 49  1  1  0  0  0
  1 93  1  0  0  0
 93 94  1  0  0  0
 94 95  1  0  0  0
 95 96  1  0  0  0
 95 97  2  0  0  0
  1  2  1  0  0  0
  2  3  2  0  0  0
  2  4  1  0  0  0
  4  6  1  0  0  0
  6 40  1  0  0  0
 40 41  1  0  0  0
 41 42  1  0  0  0
 42 43  1  0  0  0
 42 44  2  0  0  0
  6  7  1  0  0  0
  7  8  2  0  0  0
  7  9  1  0  0  0
  9 11  1  0  0  0
 11 29  1  0  0  0
 29 30  1  0  0  0
 30 31  1  0  0  0
 31 32  1  0  0  0
 32 34  1  0  0  0
 34 35  1  0  0  0
 34 36  2  0  0  0
 11 12  1  0  0  0
 12 13  2  0  0  0
 12 14  1  0  0  0
 14 16  1  0  0  0
 16 17  1  0  0  0
 17 18  2  0  0  0
 18 19  1  0  0  0
 19 20  2  0  0  0
 20 21  1  0  0  0
 21 22  2  0  0  0
 20 23  1  0  0  0
 23 24  1  0  0  0
 23 25  2  0  0  0
 22 17  1  0  0  0
 52 55  1  0  0  0
 85 87  1  0  0  0
 85 88  1  0  0  0
 57 60  1  0  0  0
 78 80  1  0  0  0
 78 81  1  0  0  0
 62 65  1  0  0  0
 67 71  1  0  0  0
 49 50  1  0  0  0
 96 98  1  0  0  0
 96 99  1  0  0  0
  4  5  1  0  0  0
 43 45  1  0  0  0
 43 46  1  0  0  0
  9 10  1  0  0  0
 32 33  1  0  0  0
 35 37  1  0  0  0
 35 38  1  0  0  0
 36 39  1  0  0  0
 14 15  1  0  0  0
 24 26  1  0  0  0
 24 27  1  0  0  0
 25 28  1  0  0  0
M  END
> <minimizedAffinity>
-8.45752

> <CNNscore>
0.5915060639

> <CNNaffinity>
8.1689786911

> <CNN_VS>
4.8320002556

> <CNNaffinity_variance>
0.2911530137

$$$$
[H]N=C(c1c([H])c([H])c(C([H])([H])N([H])C(=O)[C@@]([H])(N([H])C(=O)[C@@]([H])(N([H])C(=O)[C@@]([H])(N([H])C(=O)[C@@]([H])(N([H])C(=O)[C@@]([H])(N([H])C(=O)[C@@]([H])(N([H])C(=O)[C@@]([H])(N([H])C(=O)C([H])([H])[H])C([H])(C([H])([H])[H])C([H])([H])[H])C([H])([H])C([H])([H])C(=O)N([H])[H])C([H])([H])C([H])([H])C(=O)N([H])[H])C([H])([H])C([H])(C([H])([H])[H])C([H])([H])[H])C([H])([H])C([H])([H])C(=O)N([H])[H])C([H])([H])C([H])([H])C(=O)N([H])[H])C([H])([H])C([H])([H])C([H])([H])N([H])C(=N[H])N([H])[H])c([H])c1[H])N([H])[H]


 99 99  0  0  0  0  0  0  0  0999 V2000
   34.0889  -14.3742   35.9753 C   0  0  0  0  0  0  0  0  0  0  0  0
   34.2557  -15.8568   36.1296 C   0  0  0  0  0  0  0  0  0  0  0  0
   35.1129  -16.3203   36.8912 O   0  0  0  0  0  0  0  0  0  0  0  0
   33.3848  -16.6416   35.3710 N   0  0  0  0  0  0  0  0  0  0  0  0
   32.6803  -16.1215   34.7394 H   0  0  0  0  0  0  0  0  0  0  0  0
   33.2488  -18.0696   35.2653 C   0  0  0  0  0  0  0  0  0  0  0  0
   34.5580  -18.7409   34.9720 C   0  0  0  0  0  0  0  0  0  0  0  0
   34.9864  -18.4935   33.7896 O   0  0  0  0  0  0  0  0  0  0  0  0
   35.2548  -19.5360   35.8783 N   0  0  0  0  0  0  0  0  0  0  0  0
   36.2860  -19.4840   34.9029 H   0  0  0  0  0  0  0  0  0  0  0  0
   36.1258  -20.3374   36.5793 C   0  0  0  0  0  0  0  0  0  0  0  0
   35.3634  -21.0619   37.7025 C   0  0  0  0  0  0  0  0  0  0  0  0
   34.1174  -21.1750   37.3431 O   0  0  0  0  0  0  0  0  0  0  0  0
   35.8137  -21.5158   38.8610 N   0  0  0  0  0  0  0  0  0  0  0  0
   34.5443  -21.9807   39.1604 H   0  0  0  0  0  0  0  0  0  0  0  0
   36.2169  -22.0213   40.1041 C   0  0  0  0  0  0  0  0  0  0  0  0
   35.5758  -21.3576   41.2664 C   0  0  0  0  0  0  0  0  0  0  0  0
   36.2644  -21.0960   42.4439 C   0  0  0  0  0  0  0  0  0  0  0  0
   35.6896  -20.4088   43.4515 C   0  0  0  0  0  0  0  0  0  0  0  0
   34.3734  -19.9344   43.3321 C   0  0  0  0  0  0  0  0  0  0  0  0
   33.6961  -20.2031   42.1581 C   0  0  0  0  0  0  0  0  0  0  0  0
   34.2689  -20.9063   41.1204 C   0  0  0  0  0  0  0  0  0  0  0  0
   33.8223  -19.1640   44.4219 C   0  0  0  0  0  0  0  0  0  0  0  0
   33.8909  -19.6930   45.7435 N   0  0  0  0  0  0  0  0  0  0  0  0
   33.2846  -17.9986   44.2647 N   0  0  0  0  0  0  0  0  0  0  0  0
   33.6362  -20.6752   45.9550 H   0  0  0  0  0  0  0  0  0  0  0  0
   34.1973  -19.0727   46.5134 H   0  0  0  0  0  0  0  0  0  0  0  0
   32.8992  -17.4839   45.0956 H   0  0  0  0  0  0  0  0  0  0  0  0
   37.0818  -19.3488   37.2670 C   0  0  0  0  0  0  0  0  0  0  0  0
   38.0414  -18.5876   36.4660 C   0  0  0  0  0  0  0  0  0  0  0  0
   39.1783  -19.3171   35.8618 C   0  0  0  0  0  0  0  0  0  0  0  0
   40.0527  -18.7406   34.9340 N   0  0  0  0  0  0  0  0  0  0  0  0
   40.8603  -18.1377   35.3150 H   0  0  0  0  0  0  0  0  0  0  0  0
   40.0249  -18.8325   33.5374 C   0  0  0  0  0  0  0  0  0  0  0  0
   38.9611  -19.4188   32.8083 N   0  0  0  0  0  0  0  0  0  0  0  0
   41.0382  -18.3699   32.8555 N   0  0  0  0  0  0  0  0  0  0  0  0
   38.7866  -19.0969   31.8389 H   0  0  0  0  0  0  0  0  0  0  0  0
   38.3245  -20.1645   33.1713 H   0  0  0  0  0  0  0  0  0  0  0  0
   41.8537  -17.9402   33.3042 H   0  0  0  0  0  0  0  0  0  0  0  0
   32.3119  -18.3198   34.0851 C   0  0  0  0  0  0  0  0  0  0  0  0
   31.6843  -19.6892   34.1064 C   0  0  0  0  0  0  0  0  0  0  0  0
   30.8527  -19.8989   35.3240 C   0  0  0  0  0  0  0  0  0  0  0  0
   31.2285  -20.9786   36.2077 N   0  0  0  0  0  0  0  0  0  0  0  0
   29.8688  -19.2371   35.6566 O   0  0  0  0  0  0  0  0  0  0  0  0
   32.2190  -21.2393   36.2963 H   0  0  0  0  0  0  0  0  0  0  0  0
   30.4552  -21.4477   36.7203 H   0  0  0  0  0  0  0  0  0  0  0  0
   32.8005  -12.9911   37.9985 C   0  0  0  0  0  0  0  0  0  0  0  0
   33.0439  -13.0315   39.1936 O   0  0  0  0  0  0  0  0  0  0  0  0
   33.3851  -13.6440   36.9275 N   0  0  0  0  0  0  0  0  0  0  0  0
   34.2517  -14.1987   37.8950 H   0  0  0  0  0  0  0  0  0  0  0  0
   31.6295  -12.0296   37.6517 C   0  0  0  0  0  0  0  0  0  0  0  0
   30.4547  -12.2027   38.3825 N   0  0  0  0  0  0  0  0  0  0  0  0
   29.0912  -11.9247   38.2323 C   0  0  0  0  0  0  0  0  0  0  0  0
   28.6341  -11.3991   37.1968 O   0  0  0  0  0  0  0  0  0  0  0  0
   30.6660  -12.6974   39.3499 H   0  0  0  0  0  0  0  0  0  0  0  0
   28.1559  -12.2507   39.3380 C   0  0  0  0  0  0  0  0  0  0  0  0
   27.0265  -11.4520   39.4213 N   0  0  0  0  0  0  0  0  0  0  0  0
   26.5954  -10.4887   40.3701 C   0  0  0  0  0  0  0  0  0  0  0  0
   27.3642  -10.2426   41.3412 O   0  0  0  0  0  0  0  0  0  0  0  0
   26.3461  -11.4844   38.5525 H   0  0  0  0  0  0  0  0  0  0  0  0
   25.3268   -9.7708   40.2318 C   0  0  0  0  0  0  0  0  0  0  0  0
   25.2798   -8.6941   41.1950 N   0  0  0  0  0  0  0  0  0  0  0  0
   24.4024   -8.5774   42.2666 C   0  0  0  0  0  0  0  0  0  0  0  0
   23.5737   -9.5472   42.4017 O   0  0  0  0  0  0  0  0  0  0  0  0
   26.0113   -7.9584   41.0546 H   0  0  0  0  0  0  0  0  0  0  0  0
   24.3125   -7.4870   43.2491 C   0  0  0  0  0  0  0  0  0  0  0  0
   25.2127   -7.5673   44.3629 N   0  0  0  0  0  0  0  0  0  0  0  0
   24.9995   -8.1922   45.5989 C   0  0  0  0  0  0  0  0  0  0  0  0
   25.9952   -8.1887   46.7099 C   0  0  0  0  0  0  0  0  0  0  0  0
   23.9254   -8.7965   45.8261 O   0  0  0  0  0  0  0  0  0  0  0  0
   26.1595   -7.0977   44.2421 H   0  0  0  0  0  0  0  0  0  0  0  0
   24.1438   -6.1106   42.7660 C   0  0  0  0  0  0  0  0  0  0  0  0
   25.1504   -5.0851   43.2519 C   0  0  0  0  0  0  0  0  0  0  0  0
   22.7219   -5.5992   42.9753 C   0  0  0  0  0  0  0  0  0  0  0  0
   24.8194   -9.5474   38.8836 C   0  0  0  0  0  0  0  0  0  0  0  0
   23.5858  -10.2334   38.4140 C   0  0  0  0  0  0  0  0  0  0  0  0
   22.4148   -9.7719   39.2147 C   0  0  0  0  0  0  0  0  0  0  0  0
   21.8282  -10.6986   40.1037 N   0  0  0  0  0  0  0  0  0  0  0  0
   21.9669   -8.6246   39.1160 O   0  0  0  0  0  0  0  0  0  0  0  0
   22.2349  -10.8471   41.0553 H   0  0  0  0  0  0  0  0  0  0  0  0
   20.9750  -11.2263   39.7653 H   0  0  0  0  0  0  0  0  0  0  0  0
   27.9982  -13.7165   39.6377 C   0  0  0  0  0  0  0  0  0  0  0  0
   28.0076  -13.9409   41.1457 C   0  0  0  0  0  0  0  0  0  0  0  0
   29.2100  -14.7006   41.5370 C   0  0  0  0  0  0  0  0  0  0  0  0
   29.4183  -16.0882   41.3591 N   0  0  0  0  0  0  0  0  0  0  0  0
   30.1642  -14.0469   42.0994 O   0  0  0  0  0  0  0  0  0  0  0  0
   30.1628  -16.3992   40.6885 H   0  0  0  0  0  0  0  0  0  0  0  0
   28.8763  -16.8041   41.8549 H   0  0  0  0  0  0  0  0  0  0  0  0
   32.2254  -10.6530   37.9370 C   0  0  0  0  0  0  0  0  0  0  0  0
   30.5466   -8.7596   38.0229 C   0  0  0  0  0  0  0  0  0  0  0  0
   31.6133   -9.4922   37.2677 C   0  0  0  0  0  0  0  0  0  0  0  0
   32.7084   -8.5022   36.8813 C   0  0  0  0  0  0  0  0  0  0  0  0
   35.4816  -13.7885   35.7933 C   0  0  0  0  0  0  0  0  0  0  0  0
   36.0557  -13.1046   36.9676 C   0  0  0  0  0  0  0  0  0  0  0  0
   37.4022  -13.7155   37.2833 C   0  0  0  0  0  0  0  0  0  0  0  0
   37.6095  -15.1142   37.2489 N   0  0  0  0  0  0  0  0  0  0  0  0
   38.3290  -12.9231   37.5738 O   0  0  0  0  0  0  0  0  0  0  0  0
   38.5742  -15.4913   37.3642 H   0  0  0  0  0  0  0  0  0  0  0  0
   36.8013  -15.7614   37.1344 H   0  0  0  0  0  0  0  0  0  0  0  0
 90 91  1  0  0  0
 91 92  1  0  0  0
 91 89  1  0  0  0
 89 51  1  0  0  0
 51 52  1  0  0  0
 52 53  1  0  0  0
 53 54  2  0  0  0
 53 56  1  0  0  0
 56 82  1  0  0  0
 82 83  1  0  0  0
 83 84  1  0  0  0
 84 85  1  0  0  0
 84 86  2  0  0  0
 56 57  1  0  0  0
 57 58  1  0  0  0
 58 59  2  0  0  0
 58 61  1  0  0  0
 61 75  1  0  0  0
 75 76  1  0  0  0
 76 77  1  0  0  0
 77 78  1  0  0  0
 77 79  2  0  0  0
 61 62  1  0  0  0
 62 63  1  0  0  0
 63 64  2  0  0  0
 63 66  1  0  0  0
 66 67  1  0  0  0
 67 68  1  0  0  0
 68 69  1  0  0  0
 68 70  2  0  0  0
 66 72  1  0  0  0
 72 73  1  0  0  0
 72 74  1  0  0  0
 51 47  1  0  0  0
 47 48  2  0  0  0
 47 49  1  0  0  0
 49  1  1  0  0  0
  1 93  1  0  0  0
 93 94  1  0  0  0
 94 95  1  0  0  0
 95 96  1  0  0  0
 95 97  2  0  0  0
  1  2  1  0  0  0
  2  3  2  0  0  0
  2  4  1  0  0  0
  4  6  1  0  0  0
  6 40  1  0  0  0
 40 41  1  0  0  0
 41 42  1  0  0  0
 42 43  1  0  0  0
 42 44  2  0  0  0
  6  7  1  0  0  0
  7  8  2  0  0  0
  7  9  1  0  0  0
  9 11  1  0  0  0
 11 29  1  0  0  0
 29 30  1  0  0  0
 30 31  1  0  0  0
 31 32  1  0  0  0
 32 34  1  0  0  0
 34 35  1  0  0  0
 34 36  2  0  0  0
 11 12  1  0  0  0
 12 13  2  0  0  0
 12 14  1  0  0  0
 14 16  1  0  0  0
 16 17  1  0  0  0
 17 18  2  0  0  0
 18 19  1  0  0  0
 19 20  2  0  0  0
 20 21  1  0  0  0
 21 22  2  0  0  0
 20 23  1  0  0  0
 23 24  1  0  0  0
 23 25  2  0  0  0
 22 17  1  0  0  0
 52 55  1  0  0  0
 85 87  1  0  0  0
 85 88  1  0  0  0
 57 60  1  0  0  0
 78 80  1  0  0  0
 78 81  1  0  0  0
 62 65  1  0  0  0
 67 71  1  0  0  0
 49 50  1  0  0  0
 96 98  1  0  0  0
 96 99  1  0  0  0
  4  5  1  0  0  0
 43 45  1  0  0  0
 43 46  1  0  0  0
  9 10  1  0  0  0
 32 33  1  0  0  0
 35 37  1  0  0  0
 35 38  1  0  0  0
 36 39  1  0  0  0
 14 15  1  0  0  0
 24 26  1  0  0  0
 24 27  1  0  0  0
 25 28  1  0  0  0
M  END
> <minimizedAffinity>
-8.39999

> <CNNscore>
0.5623369217

> <CNNaffinity>
8.2453327179

> <CNN_VS>
4.6366548538

> <CNNaffinity_variance>
0.3949193358

$$$$
[H]N=C(c1c([H])c([H])c(C([H])([H])N([H])C(=O)[C@@]([H])(N([H])C(=O)[C@@]([H])(N([H])C(=O)[C@@]([H])(N([H])C(=O)[C@@]([H])(N([H])C(=O)[C@@]([H])(N([H])C(=O)[C@@]([H])(N([H])C(=O)[C@@]([H])(N([H])C(=O)C([H])([H])[H])C([H])(C([H])([H])[H])C([H])([H])[H])C([H])([H])C([H])([H])C(=O)N([H])[H])C([H])([H])C([H])([H])C(=O)N([H])[H])C([H])([H])C([H])(C([H])([H])[H])C([H])([H])[H])C([H])([H])C([H])([H])C(=O)N([H])[H])C([H])([H])C([H])([H])C(=O)N([H])[H])C([H])([H])C([H])([H])C([H])([H])N([H])C(=N[H])N([H])[H])c([H])c1[H])N([H])[H]


 99 99  0  0  0  0  0  0  0  0999 V2000
   34.0881  -14.4308   36.0246 C   0  0  0  0  0  0  0  0  0  0  0  0
   34.2157  -15.9140   36.2077 C   0  0  0  0  0  0  0  0  0  0  0  0
   35.1262  -16.3895   36.8966 O   0  0  0  0  0  0  0  0  0  0  0  0
   33.2470  -16.6847   35.5617 N   0  0  0  0  0  0  0  0  0  0  0  0
   32.5031  -16.1550   34.9857 H   0  0  0  0  0  0  0  0  0  0  0  0
   33.0499  -18.1087   35.5138 C   0  0  0  0  0  0  0  0  0  0  0  0
   34.3496  -18.8580   35.5010 C   0  0  0  0  0  0  0  0  0  0  0  0
   35.0304  -18.6488   34.4354 O   0  0  0  0  0  0  0  0  0  0  0  0
   34.7926  -19.6822   36.5323 N   0  0  0  0  0  0  0  0  0  0  0  0
   36.0067  -19.7009   35.7954 H   0  0  0  0  0  0  0  0  0  0  0  0
   35.4483  -20.5251   37.3995 C   0  0  0  0  0  0  0  0  0  0  0  0
   34.5744  -20.7599   38.6440 C   0  0  0  0  0  0  0  0  0  0  0  0
   33.3366  -20.8758   38.2577 O   0  0  0  0  0  0  0  0  0  0  0  0
   34.9331  -20.8367   39.9154 N   0  0  0  0  0  0  0  0  0  0  0  0
   33.6117  -21.0594   40.2639 H   0  0  0  0  0  0  0  0  0  0  0  0
   35.2365  -20.9293   41.2801 C   0  0  0  0  0  0  0  0  0  0  0  0
   34.2782  -20.2211   42.1647 C   0  0  0  0  0  0  0  0  0  0  0  0
   33.0944  -20.8065   42.5952 C   0  0  0  0  0  0  0  0  0  0  0  0
   32.2845  -20.1807   43.4730 C   0  0  0  0  0  0  0  0  0  0  0  0
   32.6226  -18.9155   43.9794 C   0  0  0  0  0  0  0  0  0  0  0  0
   33.8005  -18.3406   43.5419 C   0  0  0  0  0  0  0  0  0  0  0  0
   34.6375  -18.9663   42.6434 C   0  0  0  0  0  0  0  0  0  0  0  0
   31.7436  -18.3106   44.9522 C   0  0  0  0  0  0  0  0  0  0  0  0
   32.3044  -17.4790   45.9646 N   0  0  0  0  0  0  0  0  0  0  0  0
   30.4600  -18.4664   44.9406 N   0  0  0  0  0  0  0  0  0  0  0  0
   33.1448  -17.7603   46.5022 H   0  0  0  0  0  0  0  0  0  0  0  0
   31.8519  -16.5713   46.1714 H   0  0  0  0  0  0  0  0  0  0  0  0
   29.8700  -18.0015   45.6752 H   0  0  0  0  0  0  0  0  0  0  0  0
   36.6677  -19.7142   37.8681 C   0  0  0  0  0  0  0  0  0  0  0  0
   37.9691  -19.9239   37.2326 C   0  0  0  0  0  0  0  0  0  0  0  0
   38.2786  -19.1534   36.0077 C   0  0  0  0  0  0  0  0  0  0  0  0
   38.2168  -19.7010   34.7216 N   0  0  0  0  0  0  0  0  0  0  0  0
   38.0798  -20.7663   34.6373 H   0  0  0  0  0  0  0  0  0  0  0  0
   38.3165  -19.0438   33.4895 C   0  0  0  0  0  0  0  0  0  0  0  0
   37.6310  -17.8432   33.1802 N   0  0  0  0  0  0  0  0  0  0  0  0
   39.0682  -19.5645   32.5570 N   0  0  0  0  0  0  0  0  0  0  0  0
   38.0418  -17.2041   32.4757 H   0  0  0  0  0  0  0  0  0  0  0  0
   36.7271  -17.5408   33.6100 H   0  0  0  0  0  0  0  0  0  0  0  0
   39.5898  -20.4365   32.6932 H   0  0  0  0  0  0  0  0  0  0  0  0
   32.3254  -18.3922   34.1994 C   0  0  0  0  0  0  0  0  0  0  0  0
   31.6634  -19.7451   34.1673 C   0  0  0  0  0  0  0  0  0  0  0  0
   30.4771  -19.8032   35.0657 C   0  0  0  0  0  0  0  0  0  0  0  0
   30.0864  -21.1006   35.5678 N   0  0  0  0  0  0  0  0  0  0  0  0
   29.7906  -18.8470   35.4280 O   0  0  0  0  0  0  0  0  0  0  0  0
   30.8050  -21.8167   35.7345 H   0  0  0  0  0  0  0  0  0  0  0  0
   29.0710  -21.2447   35.7377 H   0  0  0  0  0  0  0  0  0  0  0  0
   32.7452  -13.0232   37.9950 C   0  0  0  0  0  0  0  0  0  0  0  0
   32.7157  -13.2688   39.1899 O   0  0  0  0  0  0  0  0  0  0  0  0
   33.3811  -13.6676   36.9483 N   0  0  0  0  0  0  0  0  0  0  0  0
   33.8774  -14.5368   37.9448 H   0  0  0  0  0  0  0  0  0  0  0  0
   31.9196  -11.7620   37.6159 C   0  0  0  0  0  0  0  0  0  0  0  0
   30.7416  -11.5597   38.3338 N   0  0  0  0  0  0  0  0  0  0  0  0
   29.4102  -11.2216   38.0651 C   0  0  0  0  0  0  0  0  0  0  0  0
   28.9954  -11.0440   36.9015 O   0  0  0  0  0  0  0  0  0  0  0  0
   30.9140  -11.7084   39.4170 H   0  0  0  0  0  0  0  0  0  0  0  0
   28.4596  -11.0557   39.1931 C   0  0  0  0  0  0  0  0  0  0  0  0
   27.9750  -12.2309   39.7449 N   0  0  0  0  0  0  0  0  0  0  0  0
   28.5914  -13.2752   40.4821 C   0  0  0  0  0  0  0  0  0  0  0  0
   29.8202  -13.1548   40.7469 O   0  0  0  0  0  0  0  0  0  0  0  0
   26.8816  -12.3750   39.6922 H   0  0  0  0  0  0  0  0  0  0  0  0
   27.8442  -14.4416   40.9565 C   0  0  0  0  0  0  0  0  0  0  0  0
   26.4308  -14.1398   40.9467 N   0  0  0  0  0  0  0  0  0  0  0  0
   25.7466  -13.3415   41.8558 C   0  0  0  0  0  0  0  0  0  0  0  0
   26.4714  -12.8170   42.7751 O   0  0  0  0  0  0  0  0  0  0  0  0
   25.9057  -14.5620   40.1453 H   0  0  0  0  0  0  0  0  0  0  0  0
   24.3092  -13.0333   41.8883 C   0  0  0  0  0  0  0  0  0  0  0  0
   23.8931  -11.8899   41.1287 N   0  0  0  0  0  0  0  0  0  0  0  0
   24.2150  -11.5742   39.8018 C   0  0  0  0  0  0  0  0  0  0  0  0
   23.7544  -10.3343   39.1118 C   0  0  0  0  0  0  0  0  0  0  0  0
   24.9293  -12.3477   39.1223 O   0  0  0  0  0  0  0  0  0  0  0  0
   23.2628  -11.1931   41.6275 H   0  0  0  0  0  0  0  0  0  0  0  0
   23.3458  -14.1386   41.8060 C   0  0  0  0  0  0  0  0  0  0  0  0
   21.9025  -13.7703   41.5195 C   0  0  0  0  0  0  0  0  0  0  0  0
   23.4276  -15.0624   43.0172 C   0  0  0  0  0  0  0  0  0  0  0  0
   28.2980  -15.7575   40.5234 C   0  0  0  0  0  0  0  0  0  0  0  0
   27.6764  -16.9927   41.0719 C   0  0  0  0  0  0  0  0  0  0  0  0
   28.6173  -17.6525   42.0232 C   0  0  0  0  0  0  0  0  0  0  0  0
   28.1811  -18.8385   42.6527 N   0  0  0  0  0  0  0  0  0  0  0  0
   29.7392  -17.1914   42.2582 O   0  0  0  0  0  0  0  0  0  0  0  0
   28.2638  -19.7577   42.1617 H   0  0  0  0  0  0  0  0  0  0  0  0
   27.7727  -18.7525   43.6258 H   0  0  0  0  0  0  0  0  0  0  0  0
   28.7626   -9.9177   40.1292 C   0  0  0  0  0  0  0  0  0  0  0  0
   27.7672   -8.7845   39.9066 C   0  0  0  0  0  0  0  0  0  0  0  0
   26.8524   -8.6804   41.0591 C   0  0  0  0  0  0  0  0  0  0  0  0
   26.4767   -7.4905   41.7250 N   0  0  0  0  0  0  0  0  0  0  0  0
   26.3468   -9.7729   41.5120 O   0  0  0  0  0  0  0  0  0  0  0  0
   25.4783   -7.1751   41.6581 H   0  0  0  0  0  0  0  0  0  0  0  0
   27.1339   -6.9222   42.2701 H   0  0  0  0  0  0  0  0  0  0  0  0
   32.8991  -10.6221   37.8852 C   0  0  0  0  0  0  0  0  0  0  0  0
   31.9366   -8.3547   37.2997 C   0  0  0  0  0  0  0  0  0  0  0  0
   32.8774   -9.4718   36.9653 C   0  0  0  0  0  0  0  0  0  0  0  0
   34.2882   -8.9038   36.8403 C   0  0  0  0  0  0  0  0  0  0  0  0
   35.4982  -13.8814   35.8642 C   0  0  0  0  0  0  0  0  0  0  0  0
   36.0040  -13.0584   36.9792 C   0  0  0  0  0  0  0  0  0  0  0  0
   37.3332  -13.6141   37.4375 C   0  0  0  0  0  0  0  0  0  0  0  0
   38.5596  -13.0713   36.9880 N   0  0  0  0  0  0  0  0  0  0  0  0
   37.2980  -14.5773   38.2387 O   0  0  0  0  0  0  0  0  0  0  0  0
   39.4522  -13.4070   37.4085 H   0  0  0  0  0  0  0  0  0  0  0  0
   38.5708  -12.3610   36.2262 H   0  0  0  0  0  0  0  0  0  0  0  0
 90 91  1  0  0  0
 91 92  1  0  0  0
 91 89  1  0  0  0
 89 51  1  0  0  0
 51 52  1  0  0  0
 52 53  1  0  0  0
 53 54  2  0  0  0
 53 56  1  0  0  0
 56 82  1  0  0  0
 82 83  1  0  0  0
 83 84  1  0  0  0
 84 85  1  0  0  0
 84 86  2  0  0  0
 56 57  1  0  0  0
 57 58  1  0  0  0
 58 59  2  0  0  0
 58 61  1  0  0  0
 61 75  1  0  0  0
 75 76  1  0  0  0
 76 77  1  0  0  0
 77 78  1  0  0  0
 77 79  2  0  0  0
 61 62  1  0  0  0
 62 63  1  0  0  0
 63 64  2  0  0  0
 63 66  1  0  0  0
 66 67  1  0  0  0
 67 68  1  0  0  0
 68 69  1  0  0  0
 68 70  2  0  0  0
 66 72  1  0  0  0
 72 73  1  0  0  0
 72 74  1  0  0  0
 51 47  1  0  0  0
 47 48  2  0  0  0
 47 49  1  0  0  0
 49  1  1  0  0  0
  1 93  1  0  0  0
 93 94  1  0  0  0
 94 95  1  0  0  0
 95 96  1  0  0  0
 95 97  2  0  0  0
  1  2  1  0  0  0
  2  3  2  0  0  0
  2  4  1  0  0  0
  4  6  1  0  0  0
  6 40  1  0  0  0
 40 41  1  0  0  0
 41 42  1  0  0  0
 42 43  1  0  0  0
 42 44  2  0  0  0
  6  7  1  0  0  0
  7  8  2  0  0  0
  7  9  1  0  0  0
  9 11  1  0  0  0
 11 29  1  0  0  0
 29 30  1  0  0  0
 30 31  1  0  0  0
 31 32  1  0  0  0
 32 34  1  0  0  0
 34 35  1  0  0  0
 34 36  2  0  0  0
 11 12  1  0  0  0
 12 13  2  0  0  0
 12 14  1  0  0  0
 14 16  1  0  0  0
 16 17  1  0  0  0
 17 18  2  0  0  0
 18 19  1  0  0  0
 19 20  2  0  0  0
 20 21  1  0  0  0
 21 22  2  0  0  0
 20 23  1  0  0  0
 23 24  1  0  0  0
 23 25  2  0  0  0
 22 17  1  0  0  0
 52 55  1  0  0  0
 85 87  1  0  0  0
 85 88  1  0  0  0
 57 60  1  0  0  0
 78 80  1  0  0  0
 78 81  1  0  0  0
 62 65  1  0  0  0
 67 71  1  0  0  0
 49 50  1  0  0  0
 96 98  1  0  0  0
 96 99  1  0  0  0
  4  5  1  0  0  0
 43 45  1  0  0  0
 43 46  1  0  0  0
  9 10  1  0  0  0
 32 33  1  0  0  0
 35 37  1  0  0  0
 35 38  1  0  0  0
 36 39  1  0  0  0
 14 15  1  0  0  0
 24 26  1  0  0  0
 24 27  1  0  0  0
 25 28  1  0  0  0
M  END
> <minimizedAffinity>
-7.91265

> <CNNscore>
0.5465444326

> <CNNaffinity>
8.7376890182

> <CNN_VS>
4.7755351067

> <CNNaffinity_variance>
0.7213234305

$$$$
[H]N=C(c1c([H])c([H])c(C([H])([H])N([H])C(=O)[C@@]([H])(N([H])C(=O)[C@@]([H])(N([H])C(=O)[C@@]([H])(N([H])C(=O)[C@@]([H])(N([H])C(=O)[C@@]([H])(N([H])C(=O)[C@@]([H])(N([H])C(=O)[C@@]([H])(N([H])C(=O)C([H])([H])[H])C([H])(C([H])([H])[H])C([H])([H])[H])C([H])([H])C([H])([H])C(=O)N([H])[H])C([H])([H])C([H])([H])C(=O)N([H])[H])C([H])([H])C([H])(C([H])([H])[H])C([H])([H])[H])C([H])([H])C([H])([H])C(=O)N([H])[H])C([H])([H])C([H])([H])C(=O)N([H])[H])C([H])([H])C([H])([H])C([H])([H])N([H])C(=N[H])N([H])[H])c([H])c1[H])N([H])[H]


 99 99  0  0  0  0  0  0  0  0999 V2000
   34.2198  -14.4363   35.9680 C   0  0  0  0  0  0  0  0  0  0  0  0
   34.4085  -15.9156   36.1295 C   0  0  0  0  0  0  0  0  0  0  0  0
   35.2994  -16.3626   36.8616 O   0  0  0  0  0  0  0  0  0  0  0  0
   33.5177  -16.7168   35.4124 N   0  0  0  0  0  0  0  0  0  0  0  0
   32.7837  -16.2102   34.8038 H   0  0  0  0  0  0  0  0  0  0  0  0
   33.3932  -18.1471   35.3253 C   0  0  0  0  0  0  0  0  0  0  0  0
   34.6850  -18.8031   34.9362 C   0  0  0  0  0  0  0  0  0  0  0  0
   35.0083  -18.5741   33.7172 O   0  0  0  0  0  0  0  0  0  0  0  0
   35.4696  -19.5672   35.7963 N   0  0  0  0  0  0  0  0  0  0  0  0
   36.4142  -19.5194   34.7366 H   0  0  0  0  0  0  0  0  0  0  0  0
   36.4106  -20.3393   36.4373 C   0  0  0  0  0  0  0  0  0  0  0  0
   35.7395  -21.1192   37.5813 C   0  0  0  0  0  0  0  0  0  0  0  0
   34.5352  -21.4401   37.2052 O   0  0  0  0  0  0  0  0  0  0  0  0
   36.2239  -21.4433   38.7693 N   0  0  0  0  0  0  0  0  0  0  0  0
   35.0334  -22.0840   39.0683 H   0  0  0  0  0  0  0  0  0  0  0  0
   36.6674  -21.8216   40.0434 C   0  0  0  0  0  0  0  0  0  0  0  0
   35.8393  -21.2938   41.1562 C   0  0  0  0  0  0  0  0  0  0  0  0
   36.3988  -20.8024   42.3287 C   0  0  0  0  0  0  0  0  0  0  0  0
   35.6332  -20.2421   43.2868 C   0  0  0  0  0  0  0  0  0  0  0  0
   34.2430  -20.1376   43.1192 C   0  0  0  0  0  0  0  0  0  0  0  0
   33.6962  -20.6328   41.9508 C   0  0  0  0  0  0  0  0  0  0  0  0
   34.4650  -21.2104   40.9635 C   0  0  0  0  0  0  0  0  0  0  0  0
   33.4759  -19.4870   44.1551 C   0  0  0  0  0  0  0  0  0  0  0  0
   33.6128  -18.0796   44.3329 N   0  0  0  0  0  0  0  0  0  0  0  0
   32.6466  -20.1152   44.9230 N   0  0  0  0  0  0  0  0  0  0  0  0
   34.5403  -17.6174   44.3569 H   0  0  0  0  0  0  0  0  0  0  0  0
   32.7588  -17.5064   44.4487 H   0  0  0  0  0  0  0  0  0  0  0  0
   32.1154  -19.5887   45.6609 H   0  0  0  0  0  0  0  0  0  0  0  0
   37.3529  -19.3193   37.0974 C   0  0  0  0  0  0  0  0  0  0  0  0
   38.7977  -19.5522   37.0901 C   0  0  0  0  0  0  0  0  0  0  0  0
   39.5504  -19.2221   35.8595 C   0  0  0  0  0  0  0  0  0  0  0  0
   39.2913  -19.8169   34.6198 N   0  0  0  0  0  0  0  0  0  0  0  0
   39.4646  -20.8762   34.5270 H   0  0  0  0  0  0  0  0  0  0  0  0
   38.8301  -19.2135   33.4437 C   0  0  0  0  0  0  0  0  0  0  0  0
   37.8927  -18.1515   33.4193 N   0  0  0  0  0  0  0  0  0  0  0  0
   39.2683  -19.6554   32.2955 N   0  0  0  0  0  0  0  0  0  0  0  0
   37.9108  -17.4914   32.6208 H   0  0  0  0  0  0  0  0  0  0  0  0
   37.1688  -17.9735   34.1524 H   0  0  0  0  0  0  0  0  0  0  0  0
   39.9390  -20.4273   32.2222 H   0  0  0  0  0  0  0  0  0  0  0  0
   32.3722  -18.4171   34.2218 C   0  0  0  0  0  0  0  0  0  0  0  0
   31.2685  -19.3486   34.6503 C   0  0  0  0  0  0  0  0  0  0  0  0
   31.7801  -20.7158   34.9451 C   0  0  0  0  0  0  0  0  0  0  0  0
   31.5550  -21.2377   36.2735 N   0  0  0  0  0  0  0  0  0  0  0  0
   32.3800  -21.4532   34.1620 O   0  0  0  0  0  0  0  0  0  0  0  0
   30.7124  -20.9578   36.7918 H   0  0  0  0  0  0  0  0  0  0  0  0
   32.2779  -21.8859   36.6449 H   0  0  0  0  0  0  0  0  0  0  0  0
   32.8869  -13.0891   37.9867 C   0  0  0  0  0  0  0  0  0  0  0  0
   32.9964  -13.2627   39.1896 O   0  0  0  0  0  0  0  0  0  0  0  0
   33.5051  -13.7121   36.9167 N   0  0  0  0  0  0  0  0  0  0  0  0
   34.1969  -14.4499   37.9024 H   0  0  0  0  0  0  0  0  0  0  0  0
   31.8740  -11.9663   37.6271 C   0  0  0  0  0  0  0  0  0  0  0  0
   30.6681  -11.9789   38.3270 N   0  0  0  0  0  0  0  0  0  0  0  0
   29.3443  -11.5762   38.1162 C   0  0  0  0  0  0  0  0  0  0  0  0
   28.9712  -11.0694   37.0385 O   0  0  0  0  0  0  0  0  0  0  0  0
   30.8017  -12.4346   39.3268 H   0  0  0  0  0  0  0  0  0  0  0  0
   28.3508  -11.7424   39.2066 C   0  0  0  0  0  0  0  0  0  0  0  0
   27.6390  -10.6029   39.5463 N   0  0  0  0  0  0  0  0  0  0  0  0
   27.6401   -9.7738   40.6980 C   0  0  0  0  0  0  0  0  0  0  0  0
   28.4511  -10.0612   41.6222 O   0  0  0  0  0  0  0  0  0  0  0  0
   26.9958  -10.1805   38.7546 H   0  0  0  0  0  0  0  0  0  0  0  0
   26.7665   -8.6049   40.8187 C   0  0  0  0  0  0  0  0  0  0  0  0
   25.4114   -8.9853   40.4900 N   0  0  0  0  0  0  0  0  0  0  0  0
   24.6264   -9.9177   41.1579 C   0  0  0  0  0  0  0  0  0  0  0  0
   25.1791  -10.4669   42.1770 O   0  0  0  0  0  0  0  0  0  0  0  0
   25.0041   -8.4677   39.6763 H   0  0  0  0  0  0  0  0  0  0  0  0
   23.2562  -10.3441   40.8370 C   0  0  0  0  0  0  0  0  0  0  0  0
   22.5486   -9.5300   39.8915 N   0  0  0  0  0  0  0  0  0  0  0  0
   22.8825   -9.2759   38.5544 C   0  0  0  0  0  0  0  0  0  0  0  0
   22.0916   -8.3808   37.6604 C   0  0  0  0  0  0  0  0  0  0  0  0
   23.8951   -9.8077   38.0425 O   0  0  0  0  0  0  0  0  0  0  0  0
   21.6612   -9.0593   40.2416 H   0  0  0  0  0  0  0  0  0  0  0  0
   22.9844  -11.7756   40.6544 C   0  0  0  0  0  0  0  0  0  0  0  0
   23.9813  -12.5626   39.8251 C   0  0  0  0  0  0  0  0  0  0  0  0
   21.5639  -12.0315   40.1606 C   0  0  0  0  0  0  0  0  0  0  0  0
   27.0042   -7.6950   41.9326 C   0  0  0  0  0  0  0  0  0  0  0  0
   26.4572   -7.9909   43.2838 C   0  0  0  0  0  0  0  0  0  0  0  0
   25.2902   -7.1043   43.5622 C   0  0  0  0  0  0  0  0  0  0  0  0
   24.9491   -6.8824   44.9140 N   0  0  0  0  0  0  0  0  0  0  0  0
   24.6400   -6.5755   42.6543 O   0  0  0  0  0  0  0  0  0  0  0  0
   25.4497   -6.1536   45.4718 H   0  0  0  0  0  0  0  0  0  0  0  0
   24.1786   -7.4797   45.3271 H   0  0  0  0  0  0  0  0  0  0  0  0
   27.6136  -13.0538   39.2124 C   0  0  0  0  0  0  0  0  0  0  0  0
   28.3587  -14.0632   40.0786 C   0  0  0  0  0  0  0  0  0  0  0  0
   28.6898  -13.4627   41.3846 C   0  0  0  0  0  0  0  0  0  0  0  0
   29.9554  -12.9744   41.7849 N   0  0  0  0  0  0  0  0  0  0  0  0
   27.7433  -13.3752   42.2511 O   0  0  0  0  0  0  0  0  0  0  0  0
   30.0636  -11.9439   41.9490 H   0  0  0  0  0  0  0  0  0  0  0  0
   30.7716  -13.5802   41.9224 H   0  0  0  0  0  0  0  0  0  0  0  0
   32.6522  -10.6923   37.9480 C   0  0  0  0  0  0  0  0  0  0  0  0
   31.4273   -8.5125   37.5496 C   0  0  0  0  0  0  0  0  0  0  0  0
   32.4316   -9.5213   37.0819 C   0  0  0  0  0  0  0  0  0  0  0  0
   33.7634   -8.8145   36.8465 C   0  0  0  0  0  0  0  0  0  0  0  0
   35.6037  -13.8309   35.7834 C   0  0  0  0  0  0  0  0  0  0  0  0
   36.0877  -12.9730   36.8815 C   0  0  0  0  0  0  0  0  0  0  0  0
   37.3808  -13.5434   37.4183 C   0  0  0  0  0  0  0  0  0  0  0  0
   38.6393  -13.1047   36.9443 N   0  0  0  0  0  0  0  0  0  0  0  0
   37.2859  -14.4221   38.3072 O   0  0  0  0  0  0  0  0  0  0  0  0
   39.5076  -13.4396   37.4134 H   0  0  0  0  0  0  0  0  0  0  0  0
   38.6972  -12.4727   36.1184 H   0  0  0  0  0  0  0  0  0  0  0  0
 90 91  1  0  0  0
 91 92  1  0  0  0
 91 89  1  0  0  0
 89 51  1  0  0  0
 51 52  1  0  0  0
 52 53  1  0  0  0
 53 54  2  0  0  0
 53 56  1  0  0  0
 56 82  1  0  0  0
 82 83  1  0  0  0
 83 84  1  0  0  0
 84 85  1  0  0  0
 84 86  2  0  0  0
 56 57  1  0  0  0
 57 58  1  0  0  0
 58 59  2  0  0  0
 58 61  1  0  0  0
 61 75  1  0  0  0
 75 76  1  0  0  0
 76 77  1  0  0  0
 77 78  1  0  0  0
 77 79  2  0  0  0
 61 62  1  0  0  0
 62 63  1  0  0  0
 63 64  2  0  0  0
 63 66  1  0  0  0
 66 67  1  0  0  0
 67 68  1  0  0  0
 68 69  1  0  0  0
 68 70  2  0  0  0
 66 72  1  0  0  0
 72 73  1  0  0  0
 72 74  1  0  0  0
 51 47  1  0  0  0
 47 48  2  0  0  0
 47 49  1  0  0  0
 49  1  1  0  0  0
  1 93  1  0  0  0
 93 94  1  0  0  0
 94 95  1  0  0  0
 95 96  1  0  0  0
 95 97  2  0  0  0
  1  2  1  0  0  0
  2  3  2  0  0  0
  2  4  1  0  0  0
  4  6  1  0  0  0
  6 40  1  0  0  0
 40 41  1  0  0  0
 41 42  1  0  0  0
 42 43  1  0  0  0
 42 44  2  0  0  0
  6  7  1  0  0  0
  7  8  2  0  0  0
  7  9  1  0  0  0
  9 11  1  0  0  0
 11 29  1  0  0  0
 29 30  1  0  0  0
 30 31  1  0  0  0
 31 32  1  0  0  0
 32 34  1  0  0  0
 34 35  1  0  0  0
 34 36  2  0  0  0
 11 12  1  0  0  0
 12 13  2  0  0  0
 12 14  1  0  0  0
 14 16  1  0  0  0
 16 17  1  0  0  0
 17 18  2  0  0  0
 18 19  1  0  0  0
 19 20  2  0  0  0
 20 21  1  0  0  0
 21 22  2  0  0  0
 20 23  1  0  0  0
 23 24  1  0  0  0
 23 25  2  0  0  0
 22 17  1  0  0  0
 52 55  1  0  0  0
 85 87  1  0  0  0
 85 88  1  0  0  0
 57 60  1  0  0  0
 78 80  1  0  0  0
 78 81  1  0  0  0
 62 65  1  0  0  0
 67 71  1  0  0  0
 49 50  1  0  0  0
 96 98  1  0  0  0
 96 99  1  0  0  0
  4  5  1  0  0  0
 43 45  1  0  0  0
 43 46  1  0  0  0
  9 10  1  0  0  0
 32 33  1  0  0  0
 35 37  1  0  0  0
 35 38  1  0  0  0
 36 39  1  0  0  0
 14 15  1  0  0  0
 24 26  1  0  0  0
 24 27  1  0  0  0
 25 28  1  0  0  0
M  END
> <minimizedAffinity>
-7.94778

> <CNNscore>
0.4595318437

> <CNNaffinity>
8.4184627533

> <CNN_VS>
3.8685517311

> <CNNaffinity_variance>
0.2785619199

$$$$
[H]N=C(c1c([H])c([H])c(C([H])([H])N([H])C(=O)[C@@]([H])(N([H])C(=O)[C@@]([H])(N([H])C(=O)[C@@]([H])(N([H])C(=O)[C@@]([H])(N([H])C(=O)[C@@]([H])(N([H])C(=O)[C@@]([H])(N([H])C(=O)[C@@]([H])(N([H])C(=O)C([H])([H])[H])C([H])(C([H])([H])[H])C([H])([H])[H])C([H])([H])C([H])([H])C(=O)N([H])[H])C([H])([H])C([H])([H])C(=O)N([H])[H])C([H])([H])C([H])(C([H])([H])[H])C([H])([H])[H])C([H])([H])C([H])([H])C(=O)N([H])[H])C([H])([H])C([H])([H])C(=O)N([H])[H])C([H])([H])C([H])([H])C([H])([H])N([H])C(=N[H])N([H])[H])c([H])c1[H])N([H])[H]


 99 99  0  0  0  0  0  0  0  0999 V2000
   34.2138  -14.4514   35.8403 C   0  0  0  0  0  0  0  0  0  0  0  0
   34.1490  -15.9499   35.8486 C   0  0  0  0  0  0  0  0  0  0  0  0
   33.1526  -16.5367   36.2874 O   0  0  0  0  0  0  0  0  0  0  0  0
   35.2687  -16.6026   35.3292 N   0  0  0  0  0  0  0  0  0  0  0  0
   36.0792  -15.9815   34.9782 H   0  0  0  0  0  0  0  0  0  0  0  0
   35.5582  -18.0029   35.1728 C   0  0  0  0  0  0  0  0  0  0  0  0
   37.0100  -18.2503   34.8871 C   0  0  0  0  0  0  0  0  0  0  0  0
   37.4261  -17.6149   33.8547 O   0  0  0  0  0  0  0  0  0  0  0  0
   37.8357  -19.0648   35.6578 N   0  0  0  0  0  0  0  0  0  0  0  0
   38.8719  -18.5245   34.8505 H   0  0  0  0  0  0  0  0  0  0  0  0
   38.8425  -19.7919   36.2495 C   0  0  0  0  0  0  0  0  0  0  0  0
   38.3416  -20.3661   37.5863 C   0  0  0  0  0  0  0  0  0  0  0  0
   37.1643  -19.8666   37.8296 O   0  0  0  0  0  0  0  0  0  0  0  0
   38.9384  -21.2141   38.4083 N   0  0  0  0  0  0  0  0  0  0  0  0
   37.8359  -21.1632   39.2444 H   0  0  0  0  0  0  0  0  0  0  0  0
   39.5069  -22.1070   39.3263 C   0  0  0  0  0  0  0  0  0  0  0  0
   40.3740  -21.4621   40.3434 C   0  0  0  0  0  0  0  0  0  0  0  0
   39.8759  -20.5714   41.2856 C   0  0  0  0  0  0  0  0  0  0  0  0
   40.6638  -20.0701   42.2582 C   0  0  0  0  0  0  0  0  0  0  0  0
   42.0150  -20.4419   42.3447 C   0  0  0  0  0  0  0  0  0  0  0  0
   42.5014  -21.3257   41.4003 C   0  0  0  0  0  0  0  0  0  0  0  0
   41.7094  -21.8448   40.3990 C   0  0  0  0  0  0  0  0  0  0  0  0
   42.8022  -19.9121   43.4331 C   0  0  0  0  0  0  0  0  0  0  0  0
   42.4992  -18.6127   43.9338 N   0  0  0  0  0  0  0  0  0  0  0  0
   43.7621  -20.5687   43.9982 N   0  0  0  0  0  0  0  0  0  0  0  0
   42.3376  -17.8059   43.3034 H   0  0  0  0  0  0  0  0  0  0  0  0
   42.4472  -18.4728   44.9580 H   0  0  0  0  0  0  0  0  0  0  0  0
   44.3015  -20.1316   44.7868 H   0  0  0  0  0  0  0  0  0  0  0  0
   39.9132  -18.7446   36.5974 C   0  0  0  0  0  0  0  0  0  0  0  0
   41.3299  -19.1086   36.5498 C   0  0  0  0  0  0  0  0  0  0  0  0
   41.7497  -20.1499   35.5858 C   0  0  0  0  0  0  0  0  0  0  0  0
   41.7470  -19.9572   34.2000 N   0  0  0  0  0  0  0  0  0  0  0  0
   42.4285  -19.2277   33.7947 H   0  0  0  0  0  0  0  0  0  0  0  0
   40.9570  -20.5919   33.2341 C   0  0  0  0  0  0  0  0  0  0  0  0
   40.2265  -21.7820   33.4729 N   0  0  0  0  0  0  0  0  0  0  0  0
   40.8935  -20.0775   32.0353 N   0  0  0  0  0  0  0  0  0  0  0  0
   39.3735  -21.9620   32.9128 H   0  0  0  0  0  0  0  0  0  0  0  0
   40.4798  -22.5097   34.1796 H   0  0  0  0  0  0  0  0  0  0  0  0
   41.3994  -19.2249   31.7744 H   0  0  0  0  0  0  0  0  0  0  0  0
   34.7500  -18.4702   33.9638 C   0  0  0  0  0  0  0  0  0  0  0  0
   34.1150  -19.8219   34.1619 C   0  0  0  0  0  0  0  0  0  0  0  0
   32.6292  -19.7342   34.2126 C   0  0  0  0  0  0  0  0  0  0  0  0
   32.0465  -18.4254   34.4012 N   0  0  0  0  0  0  0  0  0  0  0  0
   31.8404  -20.6742   34.1074 O   0  0  0  0  0  0  0  0  0  0  0  0
   32.5275  -17.5979   34.0259 H   0  0  0  0  0  0  0  0  0  0  0  0
   31.1474  -18.3897   34.9217 H   0  0  0  0  0  0  0  0  0  0  0  0
   32.9894  -13.0868   37.9153 C   0  0  0  0  0  0  0  0  0  0  0  0
   33.1129  -13.2940   39.1115 O   0  0  0  0  0  0  0  0  0  0  0  0
   33.5548  -13.7147   36.8193 N   0  0  0  0  0  0  0  0  0  0  0  0
   34.2272  -14.5092   37.7740 H   0  0  0  0  0  0  0  0  0  0  0  0
   32.0278  -11.9066   37.6016 C   0  0  0  0  0  0  0  0  0  0  0  0
   30.8790  -11.8241   38.3874 N   0  0  0  0  0  0  0  0  0  0  0  0
   29.5240  -11.5205   38.2119 C   0  0  0  0  0  0  0  0  0  0  0  0
   29.0466  -11.2526   37.0903 O   0  0  0  0  0  0  0  0  0  0  0  0
   31.1094  -12.0663   39.4426 H   0  0  0  0  0  0  0  0  0  0  0  0
   28.6234  -11.5028   39.3918 C   0  0  0  0  0  0  0  0  0  0  0  0
   28.5372  -12.6929   40.0966 N   0  0  0  0  0  0  0  0  0  0  0  0
   29.4480  -13.3820   40.9390 C   0  0  0  0  0  0  0  0  0  0  0  0
   30.5681  -12.8397   41.1533 O   0  0  0  0  0  0  0  0  0  0  0  0
   27.5501  -13.1873   40.0920 H   0  0  0  0  0  0  0  0  0  0  0  0
   29.1116  -14.6582   41.5731 C   0  0  0  0  0  0  0  0  0  0  0  0
   28.5860  -14.4102   42.8965 N   0  0  0  0  0  0  0  0  0  0  0  0
   29.2868  -14.4830   44.0945 C   0  0  0  0  0  0  0  0  0  0  0  0
   30.5287  -14.7844   43.9830 O   0  0  0  0  0  0  0  0  0  0  0  0
   27.5788  -14.1251   42.9134 H   0  0  0  0  0  0  0  0  0  0  0  0
   28.7785  -14.2601   45.4562 C   0  0  0  0  0  0  0  0  0  0  0  0
   28.0340  -13.0512   45.6603 N   0  0  0  0  0  0  0  0  0  0  0  0
   28.5317  -11.7660   45.9141 C   0  0  0  0  0  0  0  0  0  0  0  0
   27.6645  -10.5745   46.1464 C   0  0  0  0  0  0  0  0  0  0  0  0
   29.7674  -11.5630   45.9596 O   0  0  0  0  0  0  0  0  0  0  0  0
   26.9744  -13.1334   45.6140 H   0  0  0  0  0  0  0  0  0  0  0  0
   28.2125  -15.3956   46.1956 C   0  0  0  0  0  0  0  0  0  0  0  0
   26.7016  -15.4489   46.3191 C   0  0  0  0  0  0  0  0  0  0  0  0
   28.8635  -15.5711   47.5641 C   0  0  0  0  0  0  0  0  0  0  0  0
   28.4989  -15.6863   40.7409 C   0  0  0  0  0  0  0  0  0  0  0  0
   28.2983  -17.0648   41.2628 C   0  0  0  0  0  0  0  0  0  0  0  0
   26.8920  -17.2276   41.7333 C   0  0  0  0  0  0  0  0  0  0  0  0
   26.0344  -18.0345   40.9545 N   0  0  0  0  0  0  0  0  0  0  0  0
   26.4810  -16.6853   42.7646 O   0  0  0  0  0  0  0  0  0  0  0  0
   26.0387  -19.0735   41.0696 H   0  0  0  0  0  0  0  0  0  0  0  0
   25.4012  -17.5456   40.2609 H   0  0  0  0  0  0  0  0  0  0  0  0
   28.6202  -10.2221   40.1811 C   0  0  0  0  0  0  0  0  0  0  0  0
   27.6556   -9.2256   39.5480 C   0  0  0  0  0  0  0  0  0  0  0  0
   26.7732   -8.6495   40.5801 C   0  0  0  0  0  0  0  0  0  0  0  0
   27.1687   -7.8048   41.6433 N   0  0  0  0  0  0  0  0  0  0  0  0
   25.5223   -8.9423   40.5177 O   0  0  0  0  0  0  0  0  0  0  0  0
   26.8322   -6.8110   41.6429 H   0  0  0  0  0  0  0  0  0  0  0  0
   27.7683   -8.1181   42.4143 H   0  0  0  0  0  0  0  0  0  0  0  0
   32.9090  -10.6810   37.8323 C   0  0  0  0  0  0  0  0  0  0  0  0
   31.6075   -8.5484   37.4217 C   0  0  0  0  0  0  0  0  0  0  0  0
   32.6753   -9.5023   36.9803 C   0  0  0  0  0  0  0  0  0  0  0  0
   33.9836   -8.7335   36.8194 C   0  0  0  0  0  0  0  0  0  0  0  0
   35.6871  -14.0720   35.8053 C   0  0  0  0  0  0  0  0  0  0  0  0
   36.2110  -13.3951   37.0067 C   0  0  0  0  0  0  0  0  0  0  0  0
   37.4337  -14.1374   37.4961 C   0  0  0  0  0  0  0  0  0  0  0  0
   37.6013  -15.5235   37.2691 N   0  0  0  0  0  0  0  0  0  0  0  0
   38.2955  -13.4656   38.1102 O   0  0  0  0  0  0  0  0  0  0  0  0
   38.5040  -15.9780   37.5235 H   0  0  0  0  0  0  0  0  0  0  0  0
   36.8201  -16.0884   36.8747 H   0  0  0  0  0  0  0  0  0  0  0  0
 90 91  1  0  0  0
 91 92  1  0  0  0
 91 89  1  0  0  0
 89 51  1  0  0  0
 51 52  1  0  0  0
 52 53  1  0  0  0
 53 54  2  0  0  0
 53 56  1  0  0  0
 56 82  1  0  0  0
 82 83  1  0  0  0
 83 84  1  0  0  0
 84 85  1  0  0  0
 84 86  2  0  0  0
 56 57  1  0  0  0
 57 58  1  0  0  0
 58 59  2  0  0  0
 58 61  1  0  0  0
 61 75  1  0  0  0
 75 76  1  0  0  0
 76 77  1  0  0  0
 77 78  1  0  0  0
 77 79  2  0  0  0
 61 62  1  0  0  0
 62 63  1  0  0  0
 63 64  2  0  0  0
 63 66  1  0  0  0
 66 67  1  0  0  0
 67 68  1  0  0  0
 68 69  1  0  0  0
 68 70  2  0  0  0
 66 72  1  0  0  0
 72 73  1  0  0  0
 72 74  1  0  0  0
 51 47  1  0  0  0
 47 48  2  0  0  0
 47 49  1  0  0  0
 49  1  1  0  0  0
  1 93  1  0  0  0
 93 94  1  0  0  0
 94 95  1  0  0  0
 95 96  1  0  0  0
 95 97  2  0  0  0
  1  2  1  0  0  0
  2  3  2  0  0  0
  2  4  1  0  0  0
  4  6  1  0  0  0
  6 40  1  0  0  0
 40 41  1  0  0  0
 41 42  1  0  0  0
 42 43  1  0  0  0
 42 44  2  0  0  0
  6  7  1  0  0  0
  7  8  2  0  0  0
  7  9  1  0  0  0
  9 11  1  0  0  0
 11 29  1  0  0  0
 29 30  1  0  0  0
 30 31  1  0  0  0
 31 32  1  0  0  0
 32 34  1  0  0  0
 34 35  1  0  0  0
 34 36  2  0  0  0
 11 12  1  0  0  0
 12 13  2  0  0  0
 12 14  1  0  0  0
 14 16  1  0  0  0
 16 17  1  0  0  0
 17 18  2  0  0  0
 18 19  1  0  0  0
 19 20  2  0  0  0
 20 21  1  0  0  0
 21 22  2  0  0  0
 20 23  1  0  0  0
 23 24  1  0  0  0
 23 25  2  0  0  0
 22 17  1  0  0  0
 52 55  1  0  0  0
 85 87  1  0  0  0
 85 88  1  0  0  0
 57 60  1  0  0  0
 78 80  1  0  0  0
 78 81  1  0  0  0
 62 65  1  0  0  0
 67 71  1  0  0  0
 49 50  1  0  0  0
 96 98  1  0  0  0
 96 99  1  0  0  0
  4  5  1  0  0  0
 43 45  1  0  0  0
 43 46  1  0  0  0
  9 10  1  0  0  0
 32 33  1  0  0  0
 35 37  1  0  0  0
 35 38  1  0  0  0
 36 39  1  0  0  0
 14 15  1  0  0  0
 24 26  1  0  0  0
 24 27  1  0  0  0
 25 28  1  0  0  0
M  END
> <minimizedAffinity>
-7.47505

> <CNNscore>
0.4362758100

> <CNNaffinity>
8.0449438095

> <CNN_VS>
3.5098142624

> <CNNaffinity_variance>
0.5304970145

$$$$
[H]N=C(c1c([H])c([H])c(C([H])([H])N([H])C(=O)[C@@]([H])(N([H])C(=O)[C@@]([H])(N([H])C(=O)[C@@]([H])(N([H])C(=O)[C@@]([H])(N([H])C(=O)[C@@]([H])(N([H])C(=O)[C@@]([H])(N([H])C(=O)[C@@]([H])(N([H])C(=O)C([H])([H])[H])C([H])(C([H])([H])[H])C([H])([H])[H])C([H])([H])C([H])([H])C(=O)N([H])[H])C([H])([H])C([H])([H])C(=O)N([H])[H])C([H])([H])C([H])(C([H])([H])[H])C([H])([H])[H])C([H])([H])C([H])([H])C(=O)N([H])[H])C([H])([H])C([H])([H])C(=O)N([H])[H])C([H])([H])C([H])([H])C([H])([H])N([H])C(=N[H])N([H])[H])c([H])c1[H])N([H])[H]


 99 99  0  0  0  0  0  0  0  0999 V2000
   34.1257  -14.6257   35.9418 C   0  0  0  0  0  0  0  0  0  0  0  0
   34.2880  -16.1062   36.1195 C   0  0  0  0  0  0  0  0  0  0  0  0
   35.1375  -16.5599   36.8955 O   0  0  0  0  0  0  0  0  0  0  0  0
   33.4224  -16.9005   35.3649 N   0  0  0  0  0  0  0  0  0  0  0  0
   32.7246  -16.3884   34.7194 H   0  0  0  0  0  0  0  0  0  0  0  0
   33.2844  -18.3297   35.2791 C   0  0  0  0  0  0  0  0  0  0  0  0
   34.6053  -19.0132   35.0829 C   0  0  0  0  0  0  0  0  0  0  0  0
   35.1748  -18.6822   33.9834 O   0  0  0  0  0  0  0  0  0  0  0  0
   35.1746  -19.9007   35.9925 N   0  0  0  0  0  0  0  0  0  0  0  0
   36.3142  -19.7994   35.1508 H   0  0  0  0  0  0  0  0  0  0  0  0
   35.9408  -20.7828   36.7186 C   0  0  0  0  0  0  0  0  0  0  0  0
   35.0512  -21.5133   37.7396 C   0  0  0  0  0  0  0  0  0  0  0  0
   34.5158  -22.5437   37.1511 O   0  0  0  0  0  0  0  0  0  0  0  0
   34.8111  -21.2129   39.0057 N   0  0  0  0  0  0  0  0  0  0  0  0
   33.9979  -22.3290   39.1055 H   0  0  0  0  0  0  0  0  0  0  0  0
   34.5094  -20.9583   40.3501 C   0  0  0  0  0  0  0  0  0  0  0  0
   35.6880  -20.9807   41.2517 C   0  0  0  0  0  0  0  0  0  0  0  0
   36.9154  -21.4959   40.8553 C   0  0  0  0  0  0  0  0  0  0  0  0
   37.9966  -21.4208   41.6575 C   0  0  0  0  0  0  0  0  0  0  0  0
   37.9079  -20.8123   42.9198 C   0  0  0  0  0  0  0  0  0  0  0  0
   36.6815  -20.3062   43.3058 C   0  0  0  0  0  0  0  0  0  0  0  0
   35.5669  -20.3775   42.4984 C   0  0  0  0  0  0  0  0  0  0  0  0
   39.1066  -20.7168   43.7191 C   0  0  0  0  0  0  0  0  0  0  0  0
   40.1413  -19.8282   43.3060 N   0  0  0  0  0  0  0  0  0  0  0  0
   39.2840  -21.3843   44.8123 N   0  0  0  0  0  0  0  0  0  0  0  0
   40.4711  -19.7889   42.3241 H   0  0  0  0  0  0  0  0  0  0  0  0
   40.5792  -19.2106   44.0119 H   0  0  0  0  0  0  0  0  0  0  0  0
   40.1782  -21.2746   45.3529 H   0  0  0  0  0  0  0  0  0  0  0  0
   36.8892  -19.8840   37.5292 C   0  0  0  0  0  0  0  0  0  0  0  0
   38.3238  -19.8916   37.2397 C   0  0  0  0  0  0  0  0  0  0  0  0
   38.7824  -19.2779   35.9737 C   0  0  0  0  0  0  0  0  0  0  0  0
   38.2265  -19.5860   34.7272 N   0  0  0  0  0  0  0  0  0  0  0  0
   37.3876  -20.2617   34.7065 H   0  0  0  0  0  0  0  0  0  0  0  0
   38.6198  -19.1328   33.4623 C   0  0  0  0  0  0  0  0  0  0  0  0
   38.0814  -17.9816   32.8363 N   0  0  0  0  0  0  0  0  0  0  0  0
   39.5221  -19.8092   32.8035 N   0  0  0  0  0  0  0  0  0  0  0  0
   38.6660  -17.4699   32.1506 H   0  0  0  0  0  0  0  0  0  0  0  0
   37.1249  -17.5966   33.0096 H   0  0  0  0  0  0  0  0  0  0  0  0
   39.9550  -20.6597   33.1780 H   0  0  0  0  0  0  0  0  0  0  0  0
   32.4227  -18.5990   34.0471 C   0  0  0  0  0  0  0  0  0  0  0  0
   31.2992  -19.5676   34.3097 C   0  0  0  0  0  0  0  0  0  0  0  0
   31.8008  -20.8720   34.8245 C   0  0  0  0  0  0  0  0  0  0  0  0
   32.5410  -21.7082   33.9076 N   0  0  0  0  0  0  0  0  0  0  0  0
   31.6475  -21.3122   35.9645 O   0  0  0  0  0  0  0  0  0  0  0  0
   33.1120  -21.2720   33.1724 H   0  0  0  0  0  0  0  0  0  0  0  0
   32.4533  -22.7350   34.0438 H   0  0  0  0  0  0  0  0  0  0  0  0
   32.9351  -13.1533   37.9620 C   0  0  0  0  0  0  0  0  0  0  0  0
   33.3752  -12.9403   39.0800 O   0  0  0  0  0  0  0  0  0  0  0  0
   33.4552  -13.8728   36.9004 N   0  0  0  0  0  0  0  0  0  0  0  0
   34.5636  -14.0900   37.7484 H   0  0  0  0  0  0  0  0  0  0  0  0
   31.5528  -12.4856   37.7185 C   0  0  0  0  0  0  0  0  0  0  0  0
   30.5056  -12.9279   38.5259 N   0  0  0  0  0  0  0  0  0  0  0  0
   30.2458  -13.0826   39.8925 C   0  0  0  0  0  0  0  0  0  0  0  0
   31.0753  -12.7519   40.7645 O   0  0  0  0  0  0  0  0  0  0  0  0
   29.6430  -13.2440   37.9084 H   0  0  0  0  0  0  0  0  0  0  0  0
   28.9522  -13.6678   40.3258 C   0  0  0  0  0  0  0  0  0  0  0  0
   27.8917  -12.7796   40.4090 N   0  0  0  0  0  0  0  0  0  0  0  0
   27.1566  -12.0621   39.4298 C   0  0  0  0  0  0  0  0  0  0  0  0
   27.4617  -12.2497   38.2188 O   0  0  0  0  0  0  0  0  0  0  0  0
   27.4518  -12.6443   41.4125 H   0  0  0  0  0  0  0  0  0  0  0  0
   26.0604  -11.1584   39.7841 C   0  0  0  0  0  0  0  0  0  0  0  0
   26.4605  -10.3387   40.9053 N   0  0  0  0  0  0  0  0  0  0  0  0
   26.1522  -10.5554   42.2431 C   0  0  0  0  0  0  0  0  0  0  0  0
   25.4571  -11.6072   42.4797 O   0  0  0  0  0  0  0  0  0  0  0  0
   27.0631   -9.5221   40.6484 H   0  0  0  0  0  0  0  0  0  0  0  0
   26.5226   -9.7309   43.4030 C   0  0  0  0  0  0  0  0  0  0  0  0
   25.8294   -8.4821   43.5348 N   0  0  0  0  0  0  0  0  0  0  0  0
   25.9738   -7.3302   42.7498 C   0  0  0  0  0  0  0  0  0  0  0  0
   25.2237   -6.0639   42.9938 C   0  0  0  0  0  0  0  0  0  0  0  0
   26.7684   -7.3197   41.7809 O   0  0  0  0  0  0  0  0  0  0  0  0
   25.1172   -8.4158   44.3222 H   0  0  0  0  0  0  0  0  0  0  0  0
   26.7402  -10.3876   44.6982 C   0  0  0  0  0  0  0  0  0  0  0  0
   25.7671  -10.0484   45.8113 C   0  0  0  0  0  0  0  0  0  0  0  0
   28.1778  -10.2343   45.1849 C   0  0  0  0  0  0  0  0  0  0  0  0
   25.2991  -10.5590   38.6950 C   0  0  0  0  0  0  0  0  0  0  0  0
   23.9674  -11.1005   38.3126 C   0  0  0  0  0  0  0  0  0  0  0  0
   22.9559  -10.0039   38.3155 C   0  0  0  0  0  0  0  0  0  0  0  0
   23.2227   -8.8702   37.5177 N   0  0  0  0  0  0  0  0  0  0  0  0
   21.9188  -10.0733   38.9834 O   0  0  0  0  0  0  0  0  0  0  0  0
   22.9965   -8.8781   36.4970 H   0  0  0  0  0  0  0  0  0  0  0  0
   23.6562   -8.0297   37.9937 H   0  0  0  0  0  0  0  0  0  0  0  0
   28.6654  -15.0513   39.8090 C   0  0  0  0  0  0  0  0  0  0  0  0
   28.3484  -15.9837   40.9729 C   0  0  0  0  0  0  0  0  0  0  0  0
   27.7015  -17.2125   40.4754 C   0  0  0  0  0  0  0  0  0  0  0  0
   27.2477  -18.2970   41.2617 N   0  0  0  0  0  0  0  0  0  0  0  0
   27.5344  -17.3187   39.2045 O   0  0  0  0  0  0  0  0  0  0  0  0
   26.2160  -18.4808   41.3105 H   0  0  0  0  0  0  0  0  0  0  0  0
   27.8796  -18.9119   41.7858 H   0  0  0  0  0  0  0  0  0  0  0  0
   31.8364  -11.0101   37.9906 C   0  0  0  0  0  0  0  0  0  0  0  0
   29.7181   -9.6513   38.2682 C   0  0  0  0  0  0  0  0  0  0  0  0
   30.9021  -10.0203   37.4274 C   0  0  0  0  0  0  0  0  0  0  0  0
   31.6703   -8.7491   37.0775 C   0  0  0  0  0  0  0  0  0  0  0  0
   35.5158  -14.0528   35.7069 C   0  0  0  0  0  0  0  0  0  0  0  0
   36.0566  -13.2017   36.7837 C   0  0  0  0  0  0  0  0  0  0  0  0
   37.3235  -13.8300   37.3183 C   0  0  0  0  0  0  0  0  0  0  0  0
   37.5844  -15.2128   37.1749 N   0  0  0  0  0  0  0  0  0  0  0  0
   38.1353  -13.0666   37.8921 O   0  0  0  0  0  0  0  0  0  0  0  0
   38.5141  -15.5899   37.4572 H   0  0  0  0  0  0  0  0  0  0  0  0
   36.8447  -15.8512   36.8139 H   0  0  0  0  0  0  0  0  0  0  0  0
 90 91  1  0  0  0
 91 92  1  0  0  0
 91 89  1  0  0  0
 89 51  1  0  0  0
 51 52  1  0  0  0
 52 53  1  0  0  0
 53 54  2  0  0  0
 53 56  1  0  0  0
 56 82  1  0  0  0
 82 83  1  0  0  0
 83 84  1  0  0  0
 84 85  1  0  0  0
 84 86  2  0  0  0
 56 57  1  0  0  0
 57 58  1  0  0  0
 58 59  2  0  0  0
 58 61  1  0  0  0
 61 75  1  0  0  0
 75 76  1  0  0  0
 76 77  1  0  0  0
 77 78  1  0  0  0
 77 79  2  0  0  0
 61 62  1  0  0  0
 62 63  1  0  0  0
 63 64  2  0  0  0
 63 66  1  0  0  0
 66 67  1  0  0  0
 67 68  1  0  0  0
 68 69  1  0  0  0
 68 70  2  0  0  0
 66 72  1  0  0  0
 72 73  1  0  0  0
 72 74  1  0  0  0
 51 47  1  0  0  0
 47 48  2  0  0  0
 47 49  1  0  0  0
 49  1  1  0  0  0
  1 93  1  0  0  0
 93 94  1  0  0  0
 94 95  1  0  0  0
 95 96  1  0  0  0
 95 97  2  0  0  0
  1  2  1  0  0  0
  2  3  2  0  0  0
  2  4  1  0  0  0
  4  6  1  0  0  0
  6 40  1  0  0  0
 40 41  1  0  0  0
 41 42  1  0  0  0
 42 43  1  0  0  0
 42 44  2  0  0  0
  6  7  1  0  0  0
  7  8  2  0  0  0
  7  9  1  0  0  0
  9 11  1  0  0  0
 11 29  1  0  0  0
 29 30  1  0  0  0
 30 31  1  0  0  0
 31 32  1  0  0  0
 32 34  1  0  0  0
 34 35  1  0  0  0
 34 36  2  0  0  0
 11 12  1  0  0  0
 12 13  2  0  0  0
 12 14  1  0  0  0
 14 16  1  0  0  0
 16 17  1  0  0  0
 17 18  2  0  0  0
 18 19  1  0  0  0
 19 20  2  0  0  0
 20 21  1  0  0  0
 21 22  2  0  0  0
 20 23  1  0  0  0
 23 24  1  0  0  0
 23 25  2  0  0  0
 22 17  1  0  0  0
 52 55  1  0  0  0
 85 87  1  0  0  0
 85 88  1  0  0  0
 57 60  1  0  0  0
 78 80  1  0  0  0
 78 81  1  0  0  0
 62 65  1  0  0  0
 67 71  1  0  0  0
 49 50  1  0  0  0
 96 98  1  0  0  0
 96 99  1  0  0  0
  4  5  1  0  0  0
 43 45  1  0  0  0
 43 46  1  0  0  0
  9 10  1  0  0  0
 32 33  1  0  0  0
 35 37  1  0  0  0
 35 38  1  0  0  0
 36 39  1  0  0  0
 14 15  1  0  0  0
 24 26  1  0  0  0
 24 27  1  0  0  0
 25 28  1  0  0  0
M  END
> <minimizedAffinity>
-7.71548

> <CNNscore>
0.4320357442

> <CNNaffinity>
8.3042678833

> <CNN_VS>
3.5877406597

> <CNNaffinity_variance>
0.3476040959

$$$$
[H]N=C(c1c([H])c([H])c(C([H])([H])N([H])C(=O)[C@@]([H])(N([H])C(=O)[C@@]([H])(N([H])C(=O)[C@@]([H])(N([H])C(=O)[C@@]([H])(N([H])C(=O)[C@@]([H])(N([H])C(=O)[C@@]([H])(N([H])C(=O)[C@@]([H])(N([H])C(=O)C([H])([H])[H])C([H])(C([H])([H])[H])C([H])([H])[H])C([H])([H])C([H])([H])C(=O)N([H])[H])C([H])([H])C([H])([H])C(=O)N([H])[H])C([H])([H])C([H])(C([H])([H])[H])C([H])([H])[H])C([H])([H])C([H])([H])C(=O)N([H])[H])C([H])([H])C([H])([H])C(=O)N([H])[H])C([H])([H])C([H])([H])C([H])([H])N([H])C(=N[H])N([H])[H])c([H])c1[H])N([H])[H]


 99 99  0  0  0  0  0  0  0  0999 V2000
   34.0921  -14.6012   35.8349 C   0  0  0  0  0  0  0  0  0  0  0  0
   33.9921  -16.0976   35.8618 C   0  0  0  0  0  0  0  0  0  0  0  0
   32.9613  -16.6549   36.2576 O   0  0  0  0  0  0  0  0  0  0  0  0
   35.1213  -16.7835   35.4101 N   0  0  0  0  0  0  0  0  0  0  0  0
   35.9628  -16.1864   35.0921 H   0  0  0  0  0  0  0  0  0  0  0  0
   35.3857  -18.1922   35.2894 C   0  0  0  0  0  0  0  0  0  0  0  0
   36.8534  -18.4976   35.3468 C   0  0  0  0  0  0  0  0  0  0  0  0
   37.4653  -17.8168   36.2439 O   0  0  0  0  0  0  0  0  0  0  0  0
   37.4957  -19.4280   34.5338 N   0  0  0  0  0  0  0  0  0  0  0  0
   38.6021  -19.1926   35.3928 H   0  0  0  0  0  0  0  0  0  0  0  0
   38.3472  -20.2822   33.8722 C   0  0  0  0  0  0  0  0  0  0  0  0
   38.9696  -21.2656   34.8788 C   0  0  0  0  0  0  0  0  0  0  0  0
   39.7189  -22.1029   34.2215 O   0  0  0  0  0  0  0  0  0  0  0  0
   38.8183  -21.3257   36.1920 N   0  0  0  0  0  0  0  0  0  0  0  0
   39.6841  -22.4055   36.2318 H   0  0  0  0  0  0  0  0  0  0  0  0
   38.7069  -21.4521   37.5830 C   0  0  0  0  0  0  0  0  0  0  0  0
   39.8590  -20.8987   38.3372 C   0  0  0  0  0  0  0  0  0  0  0  0
   40.7901  -20.0504   37.7520 C   0  0  0  0  0  0  0  0  0  0  0  0
   41.7748  -19.4854   38.4795 C   0  0  0  0  0  0  0  0  0  0  0  0
   41.8808  -19.7398   39.8564 C   0  0  0  0  0  0  0  0  0  0  0  0
   40.9516  -20.5879   40.4279 C   0  0  0  0  0  0  0  0  0  0  0  0
   39.9411  -21.1749   39.6973 C   0  0  0  0  0  0  0  0  0  0  0  0
   42.9253  -19.0725   40.5970 C   0  0  0  0  0  0  0  0  0  0  0  0
   44.2381  -19.0234   40.0446 N   0  0  0  0  0  0  0  0  0  0  0  0
   42.7266  -18.4920   41.7352 N   0  0  0  0  0  0  0  0  0  0  0  0
   44.6930  -19.8604   39.6362 H   0  0  0  0  0  0  0  0  0  0  0  0
   44.7522  -18.1251   40.0603 H   0  0  0  0  0  0  0  0  0  0  0  0
   43.5259  -18.0219   42.2293 H   0  0  0  0  0  0  0  0  0  0  0  0
   39.4892  -19.3763   33.3828 C   0  0  0  0  0  0  0  0  0  0  0  0
   40.3302  -18.6762   34.3545 C   0  0  0  0  0  0  0  0  0  0  0  0
   41.6915  -18.2745   33.9361 C   0  0  0  0  0  0  0  0  0  0  0  0
   42.3861  -17.2051   34.5120 N   0  0  0  0  0  0  0  0  0  0  0  0
   41.8314  -16.3077   34.7306 H   0  0  0  0  0  0  0  0  0  0  0  0
   43.7424  -17.1289   34.8505 C   0  0  0  0  0  0  0  0  0  0  0  0
   44.2515  -17.4394   36.1356 N   0  0  0  0  0  0  0  0  0  0  0  0
   44.5965  -16.7349   33.9444 N   0  0  0  0  0  0  0  0  0  0  0  0
   45.2301  -17.7705   36.2154 H   0  0  0  0  0  0  0  0  0  0  0  0
   43.7138  -17.3608   37.0289 H   0  0  0  0  0  0  0  0  0  0  0  0
   44.3117  -16.4803   32.9930 H   0  0  0  0  0  0  0  0  0  0  0  0
   34.8686  -18.6039   33.9124 C   0  0  0  0  0  0  0  0  0  0  0  0
   33.9420  -19.7909   33.9577 C   0  0  0  0  0  0  0  0  0  0  0  0
   32.8387  -19.5957   34.9388 C   0  0  0  0  0  0  0  0  0  0  0  0
   31.8062  -18.6441   34.5974 N   0  0  0  0  0  0  0  0  0  0  0  0
   32.7165  -20.1707   36.0210 O   0  0  0  0  0  0  0  0  0  0  0  0
   31.5532  -18.5032   33.6110 H   0  0  0  0  0  0  0  0  0  0  0  0
   31.3627  -18.1382   35.3898 H   0  0  0  0  0  0  0  0  0  0  0  0
   32.9178  -13.1281   37.8641 C   0  0  0  0  0  0  0  0  0  0  0  0
   33.2910  -13.0355   39.0222 O   0  0  0  0  0  0  0  0  0  0  0  0
   33.4363  -13.8364   36.7942 N   0  0  0  0  0  0  0  0  0  0  0  0
   34.4453  -14.2304   37.7004 H   0  0  0  0  0  0  0  0  0  0  0  0
   31.6400  -12.2929   37.5714 C   0  0  0  0  0  0  0  0  0  0  0  0
   30.5067  -12.6223   38.3139 N   0  0  0  0  0  0  0  0  0  0  0  0
   30.1705  -12.8184   39.6583 C   0  0  0  0  0  0  0  0  0  0  0  0
   31.0023  -12.6676   40.5764 O   0  0  0  0  0  0  0  0  0  0  0  0
   29.6337  -12.7691   37.6494 H   0  0  0  0  0  0  0  0  0  0  0  0
   28.7883  -13.2299   40.0102 C   0  0  0  0  0  0  0  0  0  0  0  0
   27.8373  -12.2223   39.9770 N   0  0  0  0  0  0  0  0  0  0  0  0
   27.0518  -11.6051   40.9849 C   0  0  0  0  0  0  0  0  0  0  0  0
   27.2294  -11.9848   42.1762 O   0  0  0  0  0  0  0  0  0  0  0  0
   27.6986  -11.7202   39.0035 H   0  0  0  0  0  0  0  0  0  0  0  0
   26.0897  -10.5434   40.6835 C   0  0  0  0  0  0  0  0  0  0  0  0
   26.2220   -9.4872   41.6613 N   0  0  0  0  0  0  0  0  0  0  0  0
   25.1971   -8.9067   42.3992 C   0  0  0  0  0  0  0  0  0  0  0  0
   24.0284   -9.3898   42.1842 O   0  0  0  0  0  0  0  0  0  0  0  0
   27.2066   -9.1696   41.8217 H   0  0  0  0  0  0  0  0  0  0  0  0
   25.2935   -7.8175   43.3824 C   0  0  0  0  0  0  0  0  0  0  0  0
   26.1832   -8.0417   44.4850 N   0  0  0  0  0  0  0  0  0  0  0  0
   25.9127   -8.7078   45.6879 C   0  0  0  0  0  0  0  0  0  0  0  0
   26.9053   -8.8575   46.7915 C   0  0  0  0  0  0  0  0  0  0  0  0
   24.7862   -9.2182   45.8896 O   0  0  0  0  0  0  0  0  0  0  0  0
   27.1703   -7.6585   44.3832 H   0  0  0  0  0  0  0  0  0  0  0  0
   25.3396   -6.4309   42.9012 C   0  0  0  0  0  0  0  0  0  0  0  0
   26.3917   -5.5267   43.5147 C   0  0  0  0  0  0  0  0  0  0  0  0
   23.9701   -5.7609   42.9497 C   0  0  0  0  0  0  0  0  0  0  0  0
   25.8787  -10.1994   39.2827 C   0  0  0  0  0  0  0  0  0  0  0  0
   24.5049  -10.1368   38.7156 C   0  0  0  0  0  0  0  0  0  0  0  0
   24.3395  -11.1916   37.6738 C   0  0  0  0  0  0  0  0  0  0  0  0
   25.0462  -12.4004   37.8534 N   0  0  0  0  0  0  0  0  0  0  0  0
   23.6127  -11.0282   36.6880 O   0  0  0  0  0  0  0  0  0  0  0  0
   24.6584  -13.1522   38.4677 H   0  0  0  0  0  0  0  0  0  0  0  0
   25.9704  -12.5051   37.3475 H   0  0  0  0  0  0  0  0  0  0  0  0
   28.3782  -14.5933   39.5243 C   0  0  0  0  0  0  0  0  0  0  0  0
   28.6586  -15.6338   40.6028 C   0  0  0  0  0  0  0  0  0  0  0  0
   27.7931  -15.3956   41.7733 C   0  0  0  0  0  0  0  0  0  0  0  0
   26.3975  -15.1676   41.7500 N   0  0  0  0  0  0  0  0  0  0  0  0
   28.3543  -15.3878   42.9306 O   0  0  0  0  0  0  0  0  0  0  0  0
   25.7665  -15.8912   42.1731 H   0  0  0  0  0  0  0  0  0  0  0  0
   25.9737  -14.3286   41.3395 H   0  0  0  0  0  0  0  0  0  0  0  0
   32.0839  -10.8688   37.8978 C   0  0  0  0  0  0  0  0  0  0  0  0
   30.1108   -9.3110   38.1995 C   0  0  0  0  0  0  0  0  0  0  0  0
   31.2711   -9.7616   37.3654 C   0  0  0  0  0  0  0  0  0  0  0  0
   32.1749   -8.5624   37.0940 C   0  0  0  0  0  0  0  0  0  0  0  0
   35.5743  -14.2567   35.8169 C   0  0  0  0  0  0  0  0  0  0  0  0
   36.0451  -13.3629   36.8918 C   0  0  0  0  0  0  0  0  0  0  0  0
   37.3611  -13.8835   37.4237 C   0  0  0  0  0  0  0  0  0  0  0  0
   37.6962  -15.2563   37.3614 N   0  0  0  0  0  0  0  0  0  0  0  0
   38.1444  -13.0401   37.9198 O   0  0  0  0  0  0  0  0  0  0  0  0
   38.6538  -15.5620   37.6366 H   0  0  0  0  0  0  0  0  0  0  0  0
   36.9840  -15.9571   37.0672 H   0  0  0  0  0  0  0  0  0  0  0  0
 90 91  1  0  0  0
 91 92  1  0  0  0
 91 89  1  0  0  0
 89 51  1  0  0  0
 51 52  1  0  0  0
 52 53  1  0  0  0
 53 54  2  0  0  0
 53 56  1  0  0  0
 56 82  1  0  0  0
 82 83  1  0  0  0
 83 84  1  0  0  0
 84 85  1  0  0  0
 84 86  2  0  0  0
 56 57  1  0  0  0
 57 58  1  0  0  0
 58 59  2  0  0  0
 58 61  1  0  0  0
 61 75  1  0  0  0
 75 76  1  0  0  0
 76 77  1  0  0  0
 77 78  1  0  0  0
 77 79  2  0  0  0
 61 62  1  0  0  0
 62 63  1  0  0  0
 63 64  2  0  0  0
 63 66  1  0  0  0
 66 67  1  0  0  0
 67 68  1  0  0  0
 68 69  1  0  0  0
 68 70  2  0  0  0
 66 72  1  0  0  0
 72 73  1  0  0  0
 72 74  1  0  0  0
 51 47  1  0  0  0
 47 48  2  0  0  0
 47 49  1  0  0  0
 49  1  1  0  0  0
  1 93  1  0  0  0
 93 94  1  0  0  0
 94 95  1  0  0  0
 95 96  1  0  0  0
 95 97  2  0  0  0
  1  2  1  0  0  0
  2  3  2  0  0  0
  2  4  1  0  0  0
  4  6  1  0  0  0
  6 40  1  0  0  0
 40 41  1  0  0  0
 41 42  1  0  0  0
 42 43  1  0  0  0
 42 44  2  0  0  0
  6  7  1  0  0  0
  7  8  2  0  0  0
  7  9  1  0  0  0
  9 11  1  0  0  0
 11 29  1  0  0  0
 29 30  1  0  0  0
 30 31  1  0  0  0
 31 32  1  0  0  0
 32 34  1  0  0  0
 34 35  1  0  0  0
 34 36  2  0  0  0
 11 12  1  0  0  0
 12 13  2  0  0  0
 12 14  1  0  0  0
 14 16  1  0  0  0
 16 17  1  0  0  0
 17 18  2  0  0  0
 18 19  1  0  0  0
 19 20  2  0  0  0
 20 21  1  0  0  0
 21 22  2  0  0  0
 20 23  1  0  0  0
 23 24  1  0  0  0
 23 25  2  0  0  0
 22 17  1  0  0  0
 52 55  1  0  0  0
 85 87  1  0  0  0
 85 88  1  0  0  0
 57 60  1  0  0  0
 78 80  1  0  0  0
 78 81  1  0  0  0
 62 65  1  0  0  0
 67 71  1  0  0  0
 49 50  1  0  0  0
 96 98  1  0  0  0
 96 99  1  0  0  0
  4  5  1  0  0  0
 43 45  1  0  0  0
 43 46  1  0  0  0
  9 10  1  0  0  0
 32 33  1  0  0  0
 35 37  1  0  0  0
 35 38  1  0  0  0
 36 39  1  0  0  0
 14 15  1  0  0  0
 24 26  1  0  0  0
 24 27  1  0  0  0
 25 28  1  0  0  0
M  END
> <minimizedAffinity>
-7.96375

> <CNNscore>
0.4163785875

> <CNNaffinity>
7.9935102463

> <CNN_VS>
3.3283264637

> <CNNaffinity_variance>
0.1976760924

$$$$
[H]N=C(c1c([H])c([H])c(C([H])([H])N([H])C(=O)[C@@]([H])(N([H])C(=O)[C@@]([H])(N([H])C(=O)[C@@]([H])(N([H])C(=O)[C@@]([H])(N([H])C(=O)[C@@]([H])(N([H])C(=O)[C@@]([H])(N([H])C(=O)[C@@]([H])(N([H])C(=O)C([H])([H])[H])C([H])(C([H])([H])[H])C([H])([H])[H])C([H])([H])C([H])([H])C(=O)N([H])[H])C([H])([H])C([H])([H])C(=O)N([H])[H])C([H])([H])C([H])(C([H])([H])[H])C([H])([H])[H])C([H])([H])C([H])([H])C(=O)N([H])[H])C([H])([H])C([H])([H])C(=O)N([H])[H])C([H])([H])C([H])([H])C([H])([H])N([H])C(=N[H])N([H])[H])c([H])c1[H])N([H])[H]


 99 99  0  0  0  0  0  0  0  0999 V2000
   34.0687  -14.3568   35.8864 C   0  0  0  0  0  0  0  0  0  0  0  0
   34.2811  -15.8416   35.8961 C   0  0  0  0  0  0  0  0  0  0  0  0
   35.0191  -16.3688   36.7371 O   0  0  0  0  0  0  0  0  0  0  0  0
   33.5918  -16.5537   34.9125 N   0  0  0  0  0  0  0  0  0  0  0  0
   32.9792  -15.9816   34.2319 H   0  0  0  0  0  0  0  0  0  0  0  0
   33.5474  -17.9616   34.6214 C   0  0  0  0  0  0  0  0  0  0  0  0
   32.5832  -18.6911   35.5095 C   0  0  0  0  0  0  0  0  0  0  0  0
   32.6786  -18.3384   36.7380 O   0  0  0  0  0  0  0  0  0  0  0  0
   31.6658  -19.6390   35.0635 N   0  0  0  0  0  0  0  0  0  0  0  0
   31.1565  -19.5504   36.3865 H   0  0  0  0  0  0  0  0  0  0  0  0
   30.6816  -20.5822   34.8784 C   0  0  0  0  0  0  0  0  0  0  0  0
   29.5681  -20.3709   35.9192 C   0  0  0  0  0  0  0  0  0  0  0  0
   29.1908  -19.1261   35.8665 O   0  0  0  0  0  0  0  0  0  0  0  0
   29.0352  -21.2408   36.7620 N   0  0  0  0  0  0  0  0  0  0  0  0
   28.1900  -20.2505   37.2333 H   0  0  0  0  0  0  0  0  0  0  0  0
   28.4241  -22.1036   37.6814 C   0  0  0  0  0  0  0  0  0  0  0  0
   27.0881  -21.6515   38.1431 C   0  0  0  0  0  0  0  0  0  0  0  0
   25.9976  -22.5090   38.2115 C   0  0  0  0  0  0  0  0  0  0  0  0
   24.8185  -22.1004   38.7221 C   0  0  0  0  0  0  0  0  0  0  0  0
   24.6649  -20.7905   39.2038 C   0  0  0  0  0  0  0  0  0  0  0  0
   25.7547  -19.9445   39.1278 C   0  0  0  0  0  0  0  0  0  0  0  0
   26.9655  -20.3465   38.6065 C   0  0  0  0  0  0  0  0  0  0  0  0
   23.3955  -20.4189   39.7831 C   0  0  0  0  0  0  0  0  0  0  0  0
   22.2994  -20.1360   38.9173 N   0  0  0  0  0  0  0  0  0  0  0  0
   23.1917  -20.3502   41.0581 N   0  0  0  0  0  0  0  0  0  0  0  0
   22.4013  -19.5276   38.0842 H   0  0  0  0  0  0  0  0  0  0  0  0
   21.3741  -20.5459   39.1342 H   0  0  0  0  0  0  0  0  0  0  0  0
   22.2459  -20.0735   41.4225 H   0  0  0  0  0  0  0  0  0  0  0  0
   31.3620  -21.9153   35.2305 C   0  0  0  0  0  0  0  0  0  0  0  0
   30.7139  -23.1789   34.8771 C   0  0  0  0  0  0  0  0  0  0  0  0
   31.5349  -24.2256   34.2290 C   0  0  0  0  0  0  0  0  0  0  0  0
   31.3224  -24.6637   32.9172 N   0  0  0  0  0  0  0  0  0  0  0  0
   30.8120  -23.9960   32.2431 H   0  0  0  0  0  0  0  0  0  0  0  0
   31.6840  -25.8858   32.3379 C   0  0  0  0  0  0  0  0  0  0  0  0
   32.8206  -26.6360   32.7279 N   0  0  0  0  0  0  0  0  0  0  0  0
   30.9496  -26.3658   31.3704 N   0  0  0  0  0  0  0  0  0  0  0  0
   32.8080  -27.6633   32.5929 H   0  0  0  0  0  0  0  0  0  0  0  0
   33.6895  -26.2338   33.1481 H   0  0  0  0  0  0  0  0  0  0  0  0
   30.1166  -25.8821   31.0194 H   0  0  0  0  0  0  0  0  0  0  0  0
   34.9501  -18.4968   34.9026 C   0  0  0  0  0  0  0  0  0  0  0  0
   35.8698  -18.4031   33.7131 C   0  0  0  0  0  0  0  0  0  0  0  0
   37.2480  -18.0002   34.1084 C   0  0  0  0  0  0  0  0  0  0  0  0
   37.4203  -17.4194   35.4202 N   0  0  0  0  0  0  0  0  0  0  0  0
   38.2649  -18.1153   33.4231 O   0  0  0  0  0  0  0  0  0  0  0  0
   36.8064  -17.7153   36.1899 H   0  0  0  0  0  0  0  0  0  0  0  0
   38.1766  -16.7129   35.5179 H   0  0  0  0  0  0  0  0  0  0  0  0
   32.7266  -13.1663   37.9955 C   0  0  0  0  0  0  0  0  0  0  0  0
   33.1344  -13.0029   39.1339 O   0  0  0  0  0  0  0  0  0  0  0  0
   33.3217  -13.7479   36.8898 N   0  0  0  0  0  0  0  0  0  0  0  0
   34.4377  -13.9281   37.7365 H   0  0  0  0  0  0  0  0  0  0  0  0
   31.2901  -12.6125   37.7819 C   0  0  0  0  0  0  0  0  0  0  0  0
   30.5486  -12.3648   38.9365 N   0  0  0  0  0  0  0  0  0  0  0  0
   29.2007  -12.3067   39.3090 C   0  0  0  0  0  0  0  0  0  0  0  0
   28.2807  -12.5454   38.5002 O   0  0  0  0  0  0  0  0  0  0  0  0
   31.2179  -12.1559   39.7931 H   0  0  0  0  0  0  0  0  0  0  0  0
   28.8461  -11.9392   40.7029 C   0  0  0  0  0  0  0  0  0  0  0  0
   27.5280  -11.5623   40.9053 N   0  0  0  0  0  0  0  0  0  0  0  0
   26.9179  -10.3185   41.2131 C   0  0  0  0  0  0  0  0  0  0  0  0
   27.6694   -9.3077   41.3049 O   0  0  0  0  0  0  0  0  0  0  0  0
   26.7679  -12.3401   40.7153 H   0  0  0  0  0  0  0  0  0  0  0  0
   25.4708  -10.1816   41.3892 C   0  0  0  0  0  0  0  0  0  0  0  0
   25.1904   -8.9582   42.1059 N   0  0  0  0  0  0  0  0  0  0  0  0
   24.2415   -8.7815   43.1060 C   0  0  0  0  0  0  0  0  0  0  0  0
   23.5747   -9.8322   43.4176 O   0  0  0  0  0  0  0  0  0  0  0  0
   25.7998   -8.1512   41.8353 H   0  0  0  0  0  0  0  0  0  0  0  0
   23.9154   -7.5483   43.8376 C   0  0  0  0  0  0  0  0  0  0  0  0
   24.5099   -7.4105   45.1357 N   0  0  0  0  0  0  0  0  0  0  0  0
   25.8685   -7.4805   45.4723 C   0  0  0  0  0  0  0  0  0  0  0  0
   26.3821   -7.3564   46.8675 C   0  0  0  0  0  0  0  0  0  0  0  0
   26.7329   -7.6590   44.5828 O   0  0  0  0  0  0  0  0  0  0  0  0
   23.8437   -7.2329   45.9458 H   0  0  0  0  0  0  0  0  0  0  0  0
   23.8790   -6.2775   43.1027 C   0  0  0  0  0  0  0  0  0  0  0  0
   23.8369   -5.0074   43.9310 C   0  0  0  0  0  0  0  0  0  0  0  0
   22.7805   -6.2579   42.0445 C   0  0  0  0  0  0  0  0  0  0  0  0
   24.6141  -10.5712   40.2759 C   0  0  0  0  0  0  0  0  0  0  0  0
   24.9641  -10.1923   38.8807 C   0  0  0  0  0  0  0  0  0  0  0  0
   24.6464  -11.3190   37.9560 C   0  0  0  0  0  0  0  0  0  0  0  0
   25.3377  -12.5346   38.1495 N   0  0  0  0  0  0  0  0  0  0  0  0
   23.8104  -11.2075   37.0530 O   0  0  0  0  0  0  0  0  0  0  0  0
   25.0074  -13.2215   38.8651 H   0  0  0  0  0  0  0  0  0  0  0  0
   26.1909  -12.7117   37.5481 H   0  0  0  0  0  0  0  0  0  0  0  0
   29.5101  -12.7601   41.7746 C   0  0  0  0  0  0  0  0  0  0  0  0
   29.3354  -14.2444   41.4734 C   0  0  0  0  0  0  0  0  0  0  0  0
   28.0703  -14.7332   42.0534 C   0  0  0  0  0  0  0  0  0  0  0  0
   26.9912  -15.3093   41.3433 N   0  0  0  0  0  0  0  0  0  0  0  0
   27.9236  -14.6245   43.3265 O   0  0  0  0  0  0  0  0  0  0  0  0
   26.7703  -16.3219   41.5063 H   0  0  0  0  0  0  0  0  0  0  0  0
   26.4148  -14.7838   40.6772 H   0  0  0  0  0  0  0  0  0  0  0  0
   31.5385  -11.3073   37.0293 C   0  0  0  0  0  0  0  0  0  0  0  0
   33.5140   -9.8184   37.5687 C   0  0  0  0  0  0  0  0  0  0  0  0
   32.0751  -10.1691   37.7952 C   0  0  0  0  0  0  0  0  0  0  0  0
   31.2206   -8.9346   37.5224 C   0  0  0  0  0  0  0  0  0  0  0  0
   35.4448  -13.7132   35.7969 C   0  0  0  0  0  0  0  0  0  0  0  0
   35.9330  -13.0538   37.0228 C   0  0  0  0  0  0  0  0  0  0  0  0
   37.2592  -13.6644   37.4153 C   0  0  0  0  0  0  0  0  0  0  0  0
   38.4883  -13.0963   37.0064 N   0  0  0  0  0  0  0  0  0  0  0  0
   37.2190  -14.6972   38.1244 O   0  0  0  0  0  0  0  0  0  0  0  0
   39.3802  -13.4794   37.3856 H   0  0  0  0  0  0  0  0  0  0  0  0
   38.5017  -12.3188   36.3133 H   0  0  0  0  0  0  0  0  0  0  0  0
 90 91  1  0  0  0
 91 92  1  0  0  0
 91 89  1  0  0  0
 89 51  1  0  0  0
 51 52  1  0  0  0
 52 53  1  0  0  0
 53 54  2  0  0  0
 53 56  1  0  0  0
 56 82  1  0  0  0
 82 83  1  0  0  0
 83 84  1  0  0  0
 84 85  1  0  0  0
 84 86  2  0  0  0
 56 57  1  0  0  0
 57 58  1  0  0  0
 58 59  2  0  0  0
 58 61  1  0  0  0
 61 75  1  0  0  0
 75 76  1  0  0  0
 76 77  1  0  0  0
 77 78  1  0  0  0
 77 79  2  0  0  0
 61 62  1  0  0  0
 62 63  1  0  0  0
 63 64  2  0  0  0
 63 66  1  0  0  0
 66 67  1  0  0  0
 67 68  1  0  0  0
 68 69  1  0  0  0
 68 70  2  0  0  0
 66 72  1  0  0  0
 72 73  1  0  0  0
 72 74  1  0  0  0
 51 47  1  0  0  0
 47 48  2  0  0  0
 47 49  1  0  0  0
 49  1  1  0  0  0
  1 93  1  0  0  0
 93 94  1  0  0  0
 94 95  1  0  0  0
 95 96  1  0  0  0
 95 97  2  0  0  0
  1  2  1  0  0  0
  2  3  2  0  0  0
  2  4  1  0  0  0
  4  6  1  0  0  0
  6 40  1  0  0  0
 40 41  1  0  0  0
 41 42  1  0  0  0
 42 43  1  0  0  0
 42 44  2  0  0  0
  6  7  1  0  0  0
  7  8  2  0  0  0
  7  9  1  0  0  0
  9 11  1  0  0  0
 11 29  1  0  0  0
 29 30  1  0  0  0
 30 31  1  0  0  0
 31 32  1  0  0  0
 32 34  1  0  0  0
 34 35  1  0  0  0
 34 36  2  0  0  0
 11 12  1  0  0  0
 12 13  2  0  0  0
 12 14  1  0  0  0
 14 16  1  0  0  0
 16 17  1  0  0  0
 17 18  2  0  0  0
 18 19  1  0  0  0
 19 20  2  0  0  0
 20 21  1  0  0  0
 21 22  2  0  0  0
 20 23  1  0  0  0
 23 24  1  0  0  0
 23 25  2  0  0  0
 22 17  1  0  0  0
 52 55  1  0  0  0
 85 87  1  0  0  0
 85 88  1  0  0  0
 57 60  1  0  0  0
 78 80  1  0  0  0
 78 81  1  0  0  0
 62 65  1  0  0  0
 67 71  1  0  0  0
 49 50  1  0  0  0
 96 98  1  0  0  0
 96 99  1  0  0  0
  4  5  1  0  0  0
 43 45  1  0  0  0
 43 46  1  0  0  0
  9 10  1  0  0  0
 32 33  1  0  0  0
 35 37  1  0  0  0
 35 38  1  0  0  0
 36 39  1  0  0  0
 14 15  1  0  0  0
 24 26  1  0  0  0
 24 27  1  0  0  0
 25 28  1  0  0  0
M  END
> <minimizedAffinity>
-8.02497

> <CNNscore>
0.4131068289

> <CNNaffinity>
7.9931168556

> <CNN_VS>
3.3020112514

> <CNNaffinity_variance>
0.8671416044

$$$$
[H]c1nc(N2C([H])([H])[C@@]3([H])N(C([H])([H])[H])C([H])([H])[C@]2([H])C3([H])[H])c([H])nc1-c1sc(Cl)c([H])c1[H]


 20 23  0  0  0  0  0  0  0  0999 V2000
   38.1560  -23.2679   39.3754 C   0  0  0  0  0  0  0  0  0  0  0  0
   37.1531  -22.4143   39.7893 C   0  0  0  0  0  0  0  0  0  0  0  0
   35.9466  -22.3873   39.1632 N   0  0  0  0  0  0  0  0  0  0  0  0
   35.6831  -23.1855   38.1223 C   0  0  0  0  0  0  0  0  0  0  0  0
   36.6780  -24.0365   37.7068 C   0  0  0  0  0  0  0  0  0  0  0  0
   37.8767  -24.0637   38.3285 N   0  0  0  0  0  0  0  0  0  0  0  0
   42.2069  -25.2696   42.2756 C   0  0  0  0  0  0  0  0  0  0  0  0
   41.1351  -24.6734   41.5485 N   0  0  0  0  0  0  0  0  0  0  0  0
   41.1757  -24.9480   40.1233 C   0  0  0  0  0  0  0  0  0  0  0  0
   40.7153  -23.6268   39.5425 C   0  0  0  0  0  0  0  0  0  0  0  0
   41.5958  -22.7207   40.4281 C   0  0  0  0  0  0  0  0  0  0  0  0
   40.9857  -23.2639   41.7341 C   0  0  0  0  0  0  0  0  0  0  0  0
   39.5423  -22.9084   41.4637 C   0  0  0  0  0  0  0  0  0  0  0  0
   39.4125  -23.2815   40.0439 N   0  0  0  0  0  0  0  0  0  0  0  0
   34.3713  -23.1574   37.4400 C   0  0  0  0  0  0  0  0  0  0  0  0
   33.7816  -22.1364   36.7631 C   0  0  0  0  0  0  0  0  0  0  0  0
   32.5756  -22.3627   36.2285 C   0  0  0  0  0  0  0  0  0  0  0  0
   32.0320  -23.6075   36.4072 C   0  0  0  0  0  0  0  0  0  0  0  0
   30.4814  -24.2358   35.8438 Cl  0  0  0  0  0  0  0  0  0  0  0  0
   33.2257  -24.4165   37.3157 S   0  0  0  0  0  0  0  0  0  0  0  0
  7  8  1  0  0  0
  8  9  1  0  0  0
  9 10  1  0  0  0
 10 11  1  0  0  0
 11 12  1  0  0  0
 12 13  1  0  0  0
 13 14  1  0  0  0
 14  1  1  0  0  0
  1  2  2  0  0  0
  2  3  1  0  0  0
  3  4  2  0  0  0
  4  5  1  0  0  0
  5  6  2  0  0  0
  4 15  1  0  0  0
 15 16  2  0  0  0
 16 17  1  0  0  0
 17 18  2  0  0  0
 18 19  1  0  0  0
 18 20  1  0  0  0
 12  8  1  0  0  0
  6  1  1  0  0  0
 20 15  1  0  0  0
 14 10  1  0  0  0
M  END
> <minimizedAffinity>
-1.18431

> <CNNscore>
0.6776682138

> <CNNaffinity>
4.2434153557

> <CNN_VS>
2.8756277561

> <CNNaffinity_variance>
0.0554534383

$$$$
[H]c1nc(N2C([H])([H])[C@@]3([H])N(C([H])([H])[H])C([H])([H])[C@]2([H])C3([H])[H])c([H])nc1-c1sc(Cl)c([H])c1[H]


 20 23  0  0  0  0  0  0  0  0999 V2000
   33.1213  -19.6682   35.8452 C   0  0  0  0  0  0  0  0  0  0  0  0
   32.6667  -18.4535   35.3722 C   0  0  0  0  0  0  0  0  0  0  0  0
   33.3813  -17.3119   35.5581 N   0  0  0  0  0  0  0  0  0  0  0  0
   34.5519  -17.3196   36.2059 C   0  0  0  0  0  0  0  0  0  0  0  0
   35.0083  -18.5259   36.6783 C   0  0  0  0  0  0  0  0  0  0  0  0
   34.2987  -19.6603   36.4938 N   0  0  0  0  0  0  0  0  0  0  0  0
   32.0682  -24.9323   35.7526 C   0  0  0  0  0  0  0  0  0  0  0  0
   32.3148  -23.5287   35.7070 N   0  0  0  0  0  0  0  0  0  0  0  0
   32.1144  -22.8615   36.9809 C   0  0  0  0  0  0  0  0  0  0  0  0
   31.4886  -21.5520   36.5469 C   0  0  0  0  0  0  0  0  0  0  0  0
   30.4807  -22.1536   35.5455 C   0  0  0  0  0  0  0  0  0  0  0  0
   31.5872  -22.8167   34.7034 C   0  0  0  0  0  0  0  0  0  0  0  0
   32.3698  -21.5723   34.3546 C   0  0  0  0  0  0  0  0  0  0  0  0
   32.3587  -20.8524   35.6405 N   0  0  0  0  0  0  0  0  0  0  0  0
   35.3305  -16.0788   36.4090 C   0  0  0  0  0  0  0  0  0  0  0  0
   35.0480  -14.8151   35.9948 C   0  0  0  0  0  0  0  0  0  0  0  0
   35.9219  -13.8508   36.3078 C   0  0  0  0  0  0  0  0  0  0  0  0
   37.0326  -14.2164   37.0217 C   0  0  0  0  0  0  0  0  0  0  0  0
   38.3679  -13.2129   37.5932 Cl  0  0  0  0  0  0  0  0  0  0  0  0
   36.8156  -15.8940   37.2296 S   0  0  0  0  0  0  0  0  0  0  0  0
  7  8  1  0  0  0
  8  9  1  0  0  0
  9 10  1  0  0  0
 10 11  1  0  0  0
 11 12  1  0  0  0
 12 13  1  0  0  0
 13 14  1  0  0  0
 14  1  1  0  0  0
  1  2  2  0  0  0
  2  3  1  0  0  0
  3  4  2  0  0  0
  4  5  1  0  0  0
  5  6  2  0  0  0
  4 15  1  0  0  0
 15 16  2  0  0  0
 16 17  1  0  0  0
 17 18  2  0  0  0
 18 19  1  0  0  0
 18 20  1  0  0  0
 12  8  1  0  0  0
  6  1  1  0  0  0
 20 15  1  0  0  0
 14 10  1  0  0  0
M  END
> <minimizedAffinity>
-5.92346

> <CNNscore>
0.6319026947

> <CNNaffinity>
4.6160306931

> <CNN_VS>
2.9168822765

> <CNNaffinity_variance>
0.5461556315

$$$$
[H]c1nc(N2C([H])([H])[C@@]3([H])N(C([H])([H])[H])C([H])([H])[C@]2([H])C3([H])[H])c([H])nc1-c1sc(Cl)c([H])c1[H]


 20 23  0  0  0  0  0  0  0  0999 V2000
   37.6637  -21.4737   39.0001 C   0  0  0  0  0  0  0  0  0  0  0  0
   36.5087  -21.3229   39.7411 C   0  0  0  0  0  0  0  0  0  0  0  0
   35.3091  -21.1022   39.1406 N   0  0  0  0  0  0  0  0  0  0  0  0
   35.1997  -21.0223   37.8096 C   0  0  0  0  0  0  0  0  0  0  0  0
   36.3462  -21.1717   37.0681 C   0  0  0  0  0  0  0  0  0  0  0  0
   37.5382  -21.3910   37.6642 N   0  0  0  0  0  0  0  0  0  0  0  0
   42.8746  -22.6935   39.4312 C   0  0  0  0  0  0  0  0  0  0  0  0
   41.4770  -22.4164   39.3774 N   0  0  0  0  0  0  0  0  0  0  0  0
   41.1706  -21.0300   39.0739 C   0  0  0  0  0  0  0  0  0  0  0  0
   39.9671  -20.7803   39.9594 C   0  0  0  0  0  0  0  0  0  0  0  0
   40.5366  -21.4397   41.2327 C   0  0  0  0  0  0  0  0  0  0  0  0
   40.7368  -22.8002   40.5385 C   0  0  0  0  0  0  0  0  0  0  0  0
   39.3056  -23.0430   40.1198 C   0  0  0  0  0  0  0  0  0  0  0  0
   38.9102  -21.7043   39.6472 N   0  0  0  0  0  0  0  0  0  0  0  0
   33.8955  -20.7822   37.1547 C   0  0  0  0  0  0  0  0  0  0  0  0
   32.7508  -21.5108   37.2372 C   0  0  0  0  0  0  0  0  0  0  0  0
   31.6915  -21.0810   36.5409 C   0  0  0  0  0  0  0  0  0  0  0  0
   31.8474  -19.9392   35.7999 C   0  0  0  0  0  0  0  0  0  0  0  0
   30.6724  -19.1068   34.7786 Cl  0  0  0  0  0  0  0  0  0  0  0  0
   33.4680  -19.5077   36.1029 S   0  0  0  0  0  0  0  0  0  0  0  0
  7  8  1  0  0  0
  8  9  1  0  0  0
  9 10  1  0  0  0
 10 11  1  0  0  0
 11 12  1  0  0  0
 12 13  1  0  0  0
 13 14  1  0  0  0
 14  1  1  0  0  0
  1  2  2  0  0  0
  2  3  1  0  0  0
  3  4  2  0  0  0
  4  5  1  0  0  0
  5  6  2  0  0  0
  4 15  1  0  0  0
 15 16  2  0  0  0
 16 17  1  0  0  0
 17 18  2  0  0  0
 18 19  1  0  0  0
 18 20  1  0  0  0
 12  8  1  0  0  0
  6  1  1  0  0  0
 20 15  1  0  0  0
 14 10  1  0  0  0
M  END
> <minimizedAffinity>
-2.84486

> <CNNscore>
0.4705195129

> <CNNaffinity>
4.1486086845

> <CNN_VS>
1.9520013332

> <CNNaffinity_variance>
0.1015446335

$$$$
[H]c1nc(N2C([H])([H])[C@@]3([H])N(C([H])([H])[H])C([H])([H])[C@]2([H])C3([H])[H])c([H])nc1-c1sc(Cl)c([H])c1[H]


 20 23  0  0  0  0  0  0  0  0999 V2000
   35.0835  -20.6163   37.1030 C   0  0  0  0  0  0  0  0  0  0  0  0
   35.6902  -19.9249   38.1324 C   0  0  0  0  0  0  0  0  0  0  0  0
   35.9050  -18.5849   38.0518 N   0  0  0  0  0  0  0  0  0  0  0  0
   35.5378  -17.8833   36.9733 C   0  0  0  0  0  0  0  0  0  0  0  0
   34.9338  -18.5671   35.9465 C   0  0  0  0  0  0  0  0  0  0  0  0
   34.7202  -19.8983   36.0262 N   0  0  0  0  0  0  0  0  0  0  0  0
   34.3933  -25.3612   39.5191 C   0  0  0  0  0  0  0  0  0  0  0  0
   34.6259  -24.1359   38.8282 N   0  0  0  0  0  0  0  0  0  0  0  0
   33.4331  -23.3237   38.6674 C   0  0  0  0  0  0  0  0  0  0  0  0
   33.6336  -22.7550   37.2777 C   0  0  0  0  0  0  0  0  0  0  0  0
   34.0642  -24.0730   36.6008 C   0  0  0  0  0  0  0  0  0  0  0  0
   35.2589  -24.2683   37.5534 C   0  0  0  0  0  0  0  0  0  0  0  0
   35.9859  -22.9773   37.2575 C   0  0  0  0  0  0  0  0  0  0  0  0
   34.8672  -22.0193   37.2063 N   0  0  0  0  0  0  0  0  0  0  0  0
   35.7708  -16.4256   36.8839 C   0  0  0  0  0  0  0  0  0  0  0  0
   36.8634  -15.7100   37.2611 C   0  0  0  0  0  0  0  0  0  0  0  0
   36.8306  -14.3850   37.0746 C   0  0  0  0  0  0  0  0  0  0  0  0
   35.6960  -13.8563   36.5177 C   0  0  0  0  0  0  0  0  0  0  0  0
   35.3232  -12.1729   36.1384 Cl  0  0  0  0  0  0  0  0  0  0  0  0
   34.7164  -15.2296   36.2747 S   0  0  0  0  0  0  0  0  0  0  0  0
  7  8  1  0  0  0
  8  9  1  0  0  0
  9 10  1  0  0  0
 10 11  1  0  0  0
 11 12  1  0  0  0
 12 13  1  0  0  0
 13 14  1  0  0  0
 14  1  1  0  0  0
  1  2  2  0  0  0
  2  3  1  0  0  0
  3  4  2  0  0  0
  4  5  1  0  0  0
  5  6  2  0  0  0
  4 15  1  0  0  0
 15 16  2  0  0  0
 16 17  1  0  0  0
 17 18  2  0  0  0
 18 19  1  0  0  0
 18 20  1  0  0  0
 12  8  1  0  0  0
  6  1  1  0  0  0
 20 15  1  0  0  0
 14 10  1  0  0  0
M  END
> <minimizedAffinity>
-4.61719

> <CNNscore>
0.4469091296

> <CNNaffinity>
4.2979292870

> <CNN_VS>
1.9207838774

> <CNNaffinity_variance>
0.3493161500

$$$$
[H]c1nc(N2C([H])([H])[C@@]3([H])N(C([H])([H])[H])C([H])([H])[C@]2([H])C3([H])[H])c([H])nc1-c1sc(Cl)c([H])c1[H]


 20 23  0  0  0  0  0  0  0  0999 V2000
   38.4524  -19.1033   35.1975 C   0  0  0  0  0  0  0  0  0  0  0  0
   37.8504  -18.7140   34.0177 C   0  0  0  0  0  0  0  0  0  0  0  0
   36.5028  -18.7908   33.8545 N   0  0  0  0  0  0  0  0  0  0  0  0
   35.7072  -19.2463   34.8290 C   0  0  0  0  0  0  0  0  0  0  0  0
   36.3018  -19.6349   36.0046 C   0  0  0  0  0  0  0  0  0  0  0  0
   37.6404  -19.5586   36.1672 N   0  0  0  0  0  0  0  0  0  0  0  0
   43.4956  -20.8542   35.7704 C   0  0  0  0  0  0  0  0  0  0  0  0
   42.1704  -20.3371   35.6743 N   0  0  0  0  0  0  0  0  0  0  0  0
   41.6758  -20.2549   34.3116 C   0  0  0  0  0  0  0  0  0  0  0  0
   40.8939  -18.9579   34.3462 C   0  0  0  0  0  0  0  0  0  0  0  0
   41.9553  -18.1241   35.0938 C   0  0  0  0  0  0  0  0  0  0  0  0
   41.9648  -19.0723   36.3078 C   0  0  0  0  0  0  0  0  0  0  0  0
   40.5033  -18.9676   36.6765 C   0  0  0  0  0  0  0  0  0  0  0  0
   39.8649  -19.0152   35.3491 N   0  0  0  0  0  0  0  0  0  0  0  0
   34.2412  -19.3306   34.6531 C   0  0  0  0  0  0  0  0  0  0  0  0
   33.5312  -19.9949   33.7029 C   0  0  0  0  0  0  0  0  0  0  0  0
   32.1962  -19.9157   33.7590 C   0  0  0  0  0  0  0  0  0  0  0  0
   31.6525  -19.1701   34.7716 C   0  0  0  0  0  0  0  0  0  0  0  0
   29.9532  -18.8588   35.1351 Cl  0  0  0  0  0  0  0  0  0  0  0  0
   33.0261  -18.6067   35.6085 S   0  0  0  0  0  0  0  0  0  0  0  0
  7  8  1  0  0  0
  8  9  1  0  0  0
  9 10  1  0  0  0
 10 11  1  0  0  0
 11 12  1  0  0  0
 12 13  1  0  0  0
 13 14  1  0  0  0
 14  1  1  0  0  0
  1  2  2  0  0  0
  2  3  1  0  0  0
  3  4  2  0  0  0
  4  5  1  0  0  0
  5  6  2  0  0  0
  4 15  1  0  0  0
 15 16  2  0  0  0
 16 17  1  0  0  0
 17 18  2  0  0  0
 18 19  1  0  0  0
 18 20  1  0  0  0
 12  8  1  0  0  0
  6  1  1  0  0  0
 20 15  1  0  0  0
 14 10  1  0  0  0
M  END
> <minimizedAffinity>
-5.06804

> <CNNscore>
0.4414366782

> <CNNaffinity>
4.4159679413

> <CNN_VS>
1.9493702650

> <CNNaffinity_variance>
0.5241509080

$$$$
[H]c1nc(N2C([H])([H])[C@@]3([H])N(C([H])([H])[H])C([H])([H])[C@]2([H])C3([H])[H])c([H])nc1-c1sc(Cl)c([H])c1[H]


 20 23  0  0  0  0  0  0  0  0999 V2000
   36.1632  -21.1982   37.7837 C   0  0  0  0  0  0  0  0  0  0  0  0
   36.8822  -20.5940   36.7719 C   0  0  0  0  0  0  0  0  0  0  0  0
   38.1956  -20.2803   36.9300 N   0  0  0  0  0  0  0  0  0  0  0  0
   38.8431  -20.5439   38.0707 C   0  0  0  0  0  0  0  0  0  0  0  0
   38.1318  -21.1450   39.0804 C   0  0  0  0  0  0  0  0  0  0  0  0
   36.8270  -21.4569   38.9237 N   0  0  0  0  0  0  0  0  0  0  0  0
   31.7775  -22.9215   35.2100 C   0  0  0  0  0  0  0  0  0  0  0  0
   32.9006  -22.4033   35.9192 N   0  0  0  0  0  0  0  0  0  0  0  0
   33.7070  -23.4272   36.5590 C   0  0  0  0  0  0  0  0  0  0  0  0
   34.0905  -22.7491   37.8582 C   0  0  0  0  0  0  0  0  0  0  0  0
   32.6896  -22.1993   38.1984 C   0  0  0  0  0  0  0  0  0  0  0  0
   32.5957  -21.3964   36.8870 C   0  0  0  0  0  0  0  0  0  0  0  0
   33.8252  -20.5376   37.0696 C   0  0  0  0  0  0  0  0  0  0  0  0
   34.7889  -21.5190   37.5988 N   0  0  0  0  0  0  0  0  0  0  0  0
   40.2717  -20.2032   38.2445 C   0  0  0  0  0  0  0  0  0  0  0  0
   41.0575  -19.3985   37.4808 C   0  0  0  0  0  0  0  0  0  0  0  0
   42.3350  -19.2483   37.8510 C   0  0  0  0  0  0  0  0  0  0  0  0
   42.7479  -19.9193   38.9718 C   0  0  0  0  0  0  0  0  0  0  0  0
   44.3423  -19.9442   39.7293 Cl  0  0  0  0  0  0  0  0  0  0  0  0
   41.3364  -20.7355   39.4677 S   0  0  0  0  0  0  0  0  0  0  0  0
  7  8  1  0  0  0
  8  9  1  0  0  0
  9 10  1  0  0  0
 10 11  1  0  0  0
 11 12  1  0  0  0
 12 13  1  0  0  0
 13 14  1  0  0  0
 14  1  1  0  0  0
  1  2  2  0  0  0
  2  3  1  0  0  0
  3  4  2  0  0  0
  4  5  1  0  0  0
  5  6  2  0  0  0
  4 15  1  0  0  0
 15 16  2  0  0  0
 16 17  1  0  0  0
 17 18  2  0  0  0
 18 19  1  0  0  0
 18 20  1  0  0  0
 12  8  1  0  0  0
  6  1  1  0  0  0
 20 15  1  0  0  0
 14 10  1  0  0  0
M  END
> <minimizedAffinity>
-3.20964

> <CNNscore>
0.4346156418

> <CNNaffinity>
4.1620674133

> <CNN_VS>
1.8088996410

> <CNNaffinity_variance>
0.1824608743

$$$$
[H]c1nc(N2C([H])([H])[C@@]3([H])N(C([H])([H])[H])C([H])([H])[C@]2([H])C3([H])[H])c([H])nc1-c1sc(Cl)c([H])c1[H]


 20 23  0  0  0  0  0  0  0  0999 V2000
   38.9340  -19.1227   35.0506 C   0  0  0  0  0  0  0  0  0  0  0  0
   38.0921  -19.0432   33.9594 C   0  0  0  0  0  0  0  0  0  0  0  0
   36.7429  -19.1311   34.1015 N   0  0  0  0  0  0  0  0  0  0  0  0
   36.1775  -19.2982   35.3025 C   0  0  0  0  0  0  0  0  0  0  0  0
   37.0112  -19.3780   36.3912 C   0  0  0  0  0  0  0  0  0  0  0  0
   38.3516  -19.2906   36.2506 N   0  0  0  0  0  0  0  0  0  0  0  0
   43.7928  -16.8390   35.1157 C   0  0  0  0  0  0  0  0  0  0  0  0
   42.5193  -17.4742   35.0280 N   0  0  0  0  0  0  0  0  0  0  0  0
   42.0717  -18.0546   36.2814 C   0  0  0  0  0  0  0  0  0  0  0  0
   41.4019  -19.3283   35.8083 C   0  0  0  0  0  0  0  0  0  0  0  0
   42.5087  -19.7632   34.8253 C   0  0  0  0  0  0  0  0  0  0  0  0
   42.4040  -18.4644   34.0036 C   0  0  0  0  0  0  0  0  0  0  0  0
   40.9470  -18.5686   33.6177 C   0  0  0  0  0  0  0  0  0  0  0  0
   40.3441  -19.0283   34.8815 N   0  0  0  0  0  0  0  0  0  0  0  0
   34.7100  -19.3941   35.4588 C   0  0  0  0  0  0  0  0  0  0  0  0
   33.9930  -20.0190   36.4302 C   0  0  0  0  0  0  0  0  0  0  0  0
   32.6583  -19.9618   36.3486 C   0  0  0  0  0  0  0  0  0  0  0  0
   32.1218  -19.2767   35.2904 C   0  0  0  0  0  0  0  0  0  0  0  0
   30.4249  -19.0086   34.8840 Cl  0  0  0  0  0  0  0  0  0  0  0  0
   33.5016  -18.7374   34.4480 S   0  0  0  0  0  0  0  0  0  0  0  0
  7  8  1  0  0  0
  8  9  1  0  0  0
  9 10  1  0  0  0
 10 11  1  0  0  0
 11 12  1  0  0  0
 12 13  1  0  0  0
 13 14  1  0  0  0
 14  1  1  0  0  0
  1  2  2  0  0  0
  2  3  1  0  0  0
  3  4  2  0  0  0
  4  5  1  0  0  0
  5  6  2  0  0  0
  4 15  1  0  0  0
 15 16  2  0  0  0
 16 17  1  0  0  0
 17 18  2  0  0  0
 18 19  1  0  0  0
 18 20  1  0  0  0
 12  8  1  0  0  0
  6  1  1  0  0  0
 20 15  1  0  0  0
 14 10  1  0  0  0
M  END
> <minimizedAffinity>
-5.19616

> <CNNscore>
0.4071739018

> <CNNaffinity>
4.3677520752

> <CNN_VS>
1.7784346342

> <CNNaffinity_variance>
0.4234363437

$$$$
[H]c1nc(N2C([H])([H])[C@@]3([H])N(C([H])([H])[H])C([H])([H])[C@]2([H])C3([H])[H])c([H])nc1-c1sc(Cl)c([H])c1[H]


 20 23  0  0  0  0  0  0  0  0999 V2000
   41.2105  -20.2867   36.5563 C   0  0  0  0  0  0  0  0  0  0  0  0
   40.6849  -19.0331   36.7970 C   0  0  0  0  0  0  0  0  0  0  0  0
   41.3325  -17.9075   36.3947 N   0  0  0  0  0  0  0  0  0  0  0  0
   42.5035  -17.9691   35.7505 C   0  0  0  0  0  0  0  0  0  0  0  0
   43.0305  -19.2143   35.5088 C   0  0  0  0  0  0  0  0  0  0  0  0
   42.3873  -20.3329   35.9082 N   0  0  0  0  0  0  0  0  0  0  0  0
   37.6678  -23.2052   39.3419 C   0  0  0  0  0  0  0  0  0  0  0  0
   38.6621  -22.4846   38.6174 N   0  0  0  0  0  0  0  0  0  0  0  0
   38.1615  -21.8634   37.4042 C   0  0  0  0  0  0  0  0  0  0  0  0
   39.3259  -22.0601   36.4553 C   0  0  0  0  0  0  0  0  0  0  0  0
   39.5971  -23.5388   36.8021 C   0  0  0  0  0  0  0  0  0  0  0  0
   39.8370  -23.2312   38.2924 C   0  0  0  0  0  0  0  0  0  0  0  0
   40.9796  -22.2559   38.1315 C   0  0  0  0  0  0  0  0  0  0  0  0
   40.5172  -21.4535   36.9852 N   0  0  0  0  0  0  0  0  0  0  0  0
   43.2094  -16.7457   35.3123 C   0  0  0  0  0  0  0  0  0  0  0  0
   44.1213  -15.9968   35.9875 C   0  0  0  0  0  0  0  0  0  0  0  0
   44.6216  -14.9218   35.3666 C   0  0  0  0  0  0  0  0  0  0  0  0
   44.1730  -14.6627   34.0983 C   0  0  0  0  0  0  0  0  0  0  0  0
   44.6172  -13.3470   33.0083 Cl  0  0  0  0  0  0  0  0  0  0  0  0
   43.0687  -15.9304   33.8194 S   0  0  0  0  0  0  0  0  0  0  0  0
  7  8  1  0  0  0
  8  9  1  0  0  0
  9 10  1  0  0  0
 10 11  1  0  0  0
 11 12  1  0  0  0
 12 13  1  0  0  0
 13 14  1  0  0  0
 14  1  1  0  0  0
  1  2  2  0  0  0
  2  3  1  0  0  0
  3  4  2  0  0  0
  4  5  1  0  0  0
  5  6  2  0  0  0
  4 15  1  0  0  0
 15 16  2  0  0  0
 16 17  1  0  0  0
 17 18  2  0  0  0
 18 19  1  0  0  0
 18 20  1  0  0  0
 12  8  1  0  0  0
  6  1  1  0  0  0
 20 15  1  0  0  0
 14 10  1  0  0  0
M  END
> <minimizedAffinity>
0.77968

> <CNNscore>
0.3928598166

> <CNNaffinity>
4.2446670532

> <CNN_VS>
1.6675591469

> <CNNaffinity_variance>
0.1132093668

$$$$
[H]c1nc(N2C([H])([H])[C@@]3([H])N(C([H])([H])[H])C([H])([H])[C@]2([H])C3([H])[H])c([H])nc1-c1sc(Cl)c([H])c1[H]


 20 23  0  0  0  0  0  0  0  0999 V2000
   38.7520  -20.5787   36.8236 C   0  0  0  0  0  0  0  0  0  0  0  0
   37.6552  -20.4321   37.6490 C   0  0  0  0  0  0  0  0  0  0  0  0
   36.8935  -19.3064   37.6168 N   0  0  0  0  0  0  0  0  0  0  0  0
   37.1757  -18.2970   36.7853 C   0  0  0  0  0  0  0  0  0  0  0  0
   38.2662  -18.4383   35.9621 C   0  0  0  0  0  0  0  0  0  0  0  0
   39.0231  -19.5565   35.9938 N   0  0  0  0  0  0  0  0  0  0  0  0
   39.7660  -25.8468   37.0394 C   0  0  0  0  0  0  0  0  0  0  0  0
   39.5512  -24.4373   37.0367 N   0  0  0  0  0  0  0  0  0  0  0  0
   39.3206  -23.8869   35.7130 C   0  0  0  0  0  0  0  0  0  0  0  0
   40.0573  -22.5659   35.7969 C   0  0  0  0  0  0  0  0  0  0  0  0
   41.3383  -23.1123   36.4609 C   0  0  0  0  0  0  0  0  0  0  0  0
   40.5710  -23.6665   37.6764 C   0  0  0  0  0  0  0  0  0  0  0  0
   39.9501  -22.3729   38.1494 C   0  0  0  0  0  0  0  0  0  0  0  0
   39.5370  -21.7650   36.8720 N   0  0  0  0  0  0  0  0  0  0  0  0
   36.3483  -17.0717   36.7490 C   0  0  0  0  0  0  0  0  0  0  0  0
   35.2041  -16.8334   36.0546 C   0  0  0  0  0  0  0  0  0  0  0  0
   34.6365  -15.6288   36.1907 C   0  0  0  0  0  0  0  0  0  0  0  0
   35.2562  -14.7319   37.0205 C   0  0  0  0  0  0  0  0  0  0  0  0
   34.7849  -13.0787   37.4223 Cl  0  0  0  0  0  0  0  0  0  0  0  0
   36.6091  -15.6040   37.5804 S   0  0  0  0  0  0  0  0  0  0  0  0
  7  8  1  0  0  0
  8  9  1  0  0  0
  9 10  1  0  0  0
 10 11  1  0  0  0
 11 12  1  0  0  0
 12 13  1  0  0  0
 13 14  1  0  0  0
 14  1  1  0  0  0
  1  2  2  0  0  0
  2  3  1  0  0  0
  3  4  2  0  0  0
  4  5  1  0  0  0
  5  6  2  0  0  0
  4 15  1  0  0  0
 15 16  2  0  0  0
 16 17  1  0  0  0
 17 18  2  0  0  0
 18 19  1  0  0  0
 18 20  1  0  0  0
 12  8  1  0  0  0
  6  1  1  0  0  0
 20 15  1  0  0  0
 14 10  1  0  0  0
M  END
> <minimizedAffinity>
-4.03263

> <CNNscore>
0.3832669854

> <CNNaffinity>
4.2857680321

> <CNN_VS>
1.6425933838

> <CNNaffinity_variance>
0.2718690038

$$$$
[H]c1nc([H])c(-c2c([H])c([H])c([H])c(C(=O)N([H])c3c([H])c(N([H])C(=O)c4c([H])c([H])c(C([H])([H])N5C([H])([H])C([H])([H])N(C([H])([H])[H])C([H])([H])C5([H])[H])c(C(F)(F)F)c4[H])c([H])c([H])c3C([H])([H])[H])c2[H])o1


 44 48  0  0  0  0  0  0  0  0999 V2000
   34.1235  -21.0041   42.3066 C   0  0  0  0  0  0  0  0  0  0  0  0
   33.8785  -21.5194   41.1945 O   0  0  0  0  0  0  0  0  0  0  0  0
   35.3783  -21.2223   42.9251 N   0  0  0  0  0  0  0  0  0  0  0  0
   35.5284  -20.7709   43.8829 H   0  0  0  0  0  0  0  0  0  0  0  0
   36.4485  -21.9836   42.3897 C   0  0  0  0  0  0  0  0  0  0  0  0
   36.4747  -23.3385   42.4960 C   0  0  0  0  0  0  0  0  0  0  0  0
   37.5737  -24.0426   41.9823 C   0  0  0  0  0  0  0  0  0  0  0  0
   38.6113  -23.3714   41.3781 C   0  0  0  0  0  0  0  0  0  0  0  0
   39.7867  -24.0992   40.8322 C   0  0  0  0  0  0  0  0  0  0  0  0
   38.6138  -21.9815   41.2533 C   0  0  0  0  0  0  0  0  0  0  0  0
   37.5296  -21.3238   41.7634 C   0  0  0  0  0  0  0  0  0  0  0  0
   39.6921  -21.3455   40.6480 N   0  0  0  0  0  0  0  0  0  0  0  0
   40.5337  -20.3304   41.1167 C   0  0  0  0  0  0  0  0  0  0  0  0
   40.3968  -19.8220   42.2361 O   0  0  0  0  0  0  0  0  0  0  0  0
   39.9485  -21.6653   39.6394 H   0  0  0  0  0  0  0  0  0  0  0  0
   41.6330  -19.8094   40.3010 C   0  0  0  0  0  0  0  0  0  0  0  0
   42.8615  -19.4999   40.8857 C   0  0  0  0  0  0  0  0  0  0  0  0
   43.9186  -19.0109   40.1500 C   0  0  0  0  0  0  0  0  0  0  0  0
   43.7446  -18.8253   38.7901 C   0  0  0  0  0  0  0  0  0  0  0  0
   42.5517  -19.1147   38.1585 C   0  0  0  0  0  0  0  0  0  0  0  0
   41.5182  -19.6055   38.9489 C   0  0  0  0  0  0  0  0  0  0  0  0
   42.3966  -18.9093   36.7310 C   0  0  0  0  0  0  0  0  0  0  0  0
   42.6154  -17.6773   36.1096 C   0  0  0  0  0  0  0  0  0  0  0  0
   42.3754  -17.8740   34.8004 N   0  0  0  0  0  0  0  0  0  0  0  0
   42.0278  -19.1510   34.6214 C   0  0  0  0  0  0  0  0  0  0  0  0
   42.0547  -19.7283   35.7999 O   0  0  0  0  0  0  0  0  0  0  0  0
   31.1134  -18.6568   44.1697 C   0  0  0  0  0  0  0  0  0  0  0  0
   32.3877  -18.1596   43.8874 C   0  0  0  0  0  0  0  0  0  0  0  0
   33.3777  -18.8986   43.2767 C   0  0  0  0  0  0  0  0  0  0  0  0
   33.0904  -20.1869   42.9305 C   0  0  0  0  0  0  0  0  0  0  0  0
   31.8467  -20.7143   43.1901 C   0  0  0  0  0  0  0  0  0  0  0  0
   30.8402  -19.9845   43.8041 C   0  0  0  0  0  0  0  0  0  0  0  0
   29.5226  -20.5734   44.0851 C   0  0  0  0  0  0  0  0  0  0  0  0
   28.4735  -20.0663   43.3911 F   0  0  0  0  0  0  0  0  0  0  0  0
   29.5936  -21.9258   43.6854 F   0  0  0  0  0  0  0  0  0  0  0  0
   29.2890  -20.6750   45.4632 F   0  0  0  0  0  0  0  0  0  0  0  0
   30.0413  -17.8914   44.7699 C   0  0  0  0  0  0  0  0  0  0  0  0
   27.2773  -14.3926   42.6369 C   0  0  0  0  0  0  0  0  0  0  0  0
   27.9034  -14.4120   43.9315 N   0  0  0  0  0  0  0  0  0  0  0  0
   27.5025  -15.5526   44.7276 C   0  0  0  0  0  0  0  0  0  0  0  0
   28.0608  -16.7851   44.1332 C   0  0  0  0  0  0  0  0  0  0  0  0
   29.5225  -16.7662   44.0210 N   0  0  0  0  0  0  0  0  0  0  0  0
   30.0099  -15.5024   44.5403 C   0  0  0  0  0  0  0  0  0  0  0  0
   29.3428  -14.3236   43.8948 C   0  0  0  0  0  0  0  0  0  0  0  0
 38 39  1  0  0  0
 39 40  1  0  0  0
 40 41  1  0  0  0
 41 42  1  0  0  0
 42 37  1  0  0  0
 37 27  1  0  0  0
 27 28  2  0  0  0
 28 29  1  0  0  0
 29 30  2  0  0  0
 30 31  1  0  0  0
 31 32  2  0  0  0
 32 33  1  0  0  0
 33 34  1  0  0  0
 33 35  1  0  0  0
 33 36  1  0  0  0
 30  1  1  0  0  0
  1  2  2  0  0  0
  1  3  1  0  0  0
  3  5  1  0  0  0
  5  6  2  0  0  0
  6  7  1  0  0  0
  7  8  2  0  0  0
  8  9  1  0  0  0
  8 10  1  0  0  0
 10 12  1  0  0  0
 12 13  1  0  0  0
 13 14  2  0  0  0
 13 16  1  0  0  0
 16 17  2  0  0  0
 17 18  1  0  0  0
 18 19  2  0  0  0
 19 20  1  0  0  0
 20 21  2  0  0  0
 20 22  1  0  0  0
 22 23  2  0  0  0
 23 24  1  0  0  0
 24 25  2  0  0  0
 25 26  1  0  0  0
 10 11  2  0  0  0
 42 43  1  0  0  0
 43 44  1  0  0  0
 44 39  1  0  0  0
 32 27  1  0  0  0
 11  5  1  0  0  0
 21 16  1  0  0  0
 26 22  1  0  0  0
  3  4  1  0  0  0
 12 15  1  0  0  0
M  END
> <minimizedAffinity>
-4.87383

> <CNNscore>
0.5217066407

> <CNNaffinity>
5.4666609764

> <CNN_VS>
2.8519933224

> <CNNaffinity_variance>
0.0506709889

$$$$
[H]c1nc([H])c(-c2c([H])c([H])c([H])c(C(=O)N([H])c3c([H])c(N([H])C(=O)c4c([H])c([H])c(C([H])([H])N5C([H])([H])C([H])([H])N(C([H])([H])[H])C([H])([H])C5([H])[H])c(C(F)(F)F)c4[H])c([H])c([H])c3C([H])([H])[H])c2[H])o1


 44 48  0  0  0  0  0  0  0  0999 V2000
   38.0472  -21.0115   37.5395 C   0  0  0  0  0  0  0  0  0  0  0  0
   37.2876  -20.1539   38.0393 O   0  0  0  0  0  0  0  0  0  0  0  0
   37.7146  -22.3851   37.6243 N   0  0  0  0  0  0  0  0  0  0  0  0
   38.4080  -23.0762   37.1938 H   0  0  0  0  0  0  0  0  0  0  0  0
   36.5492  -22.9231   38.2275 C   0  0  0  0  0  0  0  0  0  0  0  0
   36.4943  -23.1704   39.5630 C   0  0  0  0  0  0  0  0  0  0  0  0
   35.3315  -23.7374   40.1051 C   0  0  0  0  0  0  0  0  0  0  0  0
   34.2603  -24.0389   39.2967 C   0  0  0  0  0  0  0  0  0  0  0  0
   33.0217  -24.6447   39.8515 C   0  0  0  0  0  0  0  0  0  0  0  0
   34.2858  -23.7970   37.9225 C   0  0  0  0  0  0  0  0  0  0  0  0
   35.4321  -23.2440   37.4241 C   0  0  0  0  0  0  0  0  0  0  0  0
   33.1842  -24.1323   37.1429 N   0  0  0  0  0  0  0  0  0  0  0  0
   32.9666  -25.2204   36.2903 C   0  0  0  0  0  0  0  0  0  0  0  0
   33.8201  -26.0964   36.1048 O   0  0  0  0  0  0  0  0  0  0  0  0
   32.3334  -23.4539   37.1764 H   0  0  0  0  0  0  0  0  0  0  0  0
   31.7051  -25.3840   35.5641 C   0  0  0  0  0  0  0  0  0  0  0  0
   31.7048  -25.8089   34.2351 C   0  0  0  0  0  0  0  0  0  0  0  0
   30.5384  -25.9768   33.5216 C   0  0  0  0  0  0  0  0  0  0  0  0
   29.3362  -25.7127   34.1533 C   0  0  0  0  0  0  0  0  0  0  0  0
   29.2763  -25.2903   35.4662 C   0  0  0  0  0  0  0  0  0  0  0  0
   30.4837  -25.1374   36.1390 C   0  0  0  0  0  0  0  0  0  0  0  0
   28.0017  -25.0195   36.1034 C   0  0  0  0  0  0  0  0  0  0  0  0
   27.2892  -23.8335   35.9100 C   0  0  0  0  0  0  0  0  0  0  0  0
   26.1738  -23.9449   36.6543 N   0  0  0  0  0  0  0  0  0  0  0  0
   26.1945  -25.1287   37.2724 C   0  0  0  0  0  0  0  0  0  0  0  0
   27.3026  -25.7335   36.9134 O   0  0  0  0  0  0  0  0  0  0  0  0
   41.5691  -19.6275   35.6101 C   0  0  0  0  0  0  0  0  0  0  0  0
   41.5537  -20.0335   36.9464 C   0  0  0  0  0  0  0  0  0  0  0  0
   40.4262  -20.4937   37.5916 C   0  0  0  0  0  0  0  0  0  0  0  0
   39.2637  -20.5541   36.8796 C   0  0  0  0  0  0  0  0  0  0  0  0
   39.2368  -20.1645   35.5606 C   0  0  0  0  0  0  0  0  0  0  0  0
   40.3618  -19.6988   34.8972 C   0  0  0  0  0  0  0  0  0  0  0  0
   40.3066  -19.2739   33.4907 C   0  0  0  0  0  0  0  0  0  0  0  0
   40.9907  -20.0361   32.6016 F   0  0  0  0  0  0  0  0  0  0  0  0
   38.9570  -19.3846   33.0903 F   0  0  0  0  0  0  0  0  0  0  0  0
   40.5514  -17.9002   33.3594 F   0  0  0  0  0  0  0  0  0  0  0  0
   42.7460  -19.1815   34.8948 C   0  0  0  0  0  0  0  0  0  0  0  0
   45.9068  -15.5571   36.0368 C   0  0  0  0  0  0  0  0  0  0  0  0
   44.5017  -15.4951   35.7364 N   0  0  0  0  0  0  0  0  0  0  0  0
   44.1809  -16.0735   34.4488 C   0  0  0  0  0  0  0  0  0  0  0  0
   44.3865  -17.5359   34.5040 C   0  0  0  0  0  0  0  0  0  0  0  0
   43.5879  -18.1967   35.5410 N   0  0  0  0  0  0  0  0  0  0  0  0
   42.8060  -17.1904   36.2340 C   0  0  0  0  0  0  0  0  0  0  0  0
   43.6528  -16.0660   36.7535 C   0  0  0  0  0  0  0  0  0  0  0  0
 38 39  1  0  0  0
 39 40  1  0  0  0
 40 41  1  0  0  0
 41 42  1  0  0  0
 42 37  1  0  0  0
 37 27  1  0  0  0
 27 28  2  0  0  0
 28 29  1  0  0  0
 29 30  2  0  0  0
 30 31  1  0  0  0
 31 32  2  0  0  0
 32 33  1  0  0  0
 33 34  1  0  0  0
 33 35  1  0  0  0
 33 36  1  0  0  0
 30  1  1  0  0  0
  1  2  2  0  0  0
  1  3  1  0  0  0
  3  5  1  0  0  0
  5  6  2  0  0  0
  6  7  1  0  0  0
  7  8  2  0  0  0
  8  9  1  0  0  0
  8 10  1  0  0  0
 10 12  1  0  0  0
 12 13  1  0  0  0
 13 14  2  0  0  0
 13 16  1  0  0  0
 16 17  2  0  0  0
 17 18  1  0  0  0
 18 19  2  0  0  0
 19 20  1  0  0  0
 20 21  2  0  0  0
 20 22  1  0  0  0
 22 23  2  0  0  0
 23 24  1  0  0  0
 24 25  2  0  0  0
 25 26  1  0  0  0
 10 11  2  0  0  0
 42 43  1  0  0  0
 43 44  1  0  0  0
 44 39  1  0  0  0
 32 27  1  0  0  0
 11  5  1  0  0  0
 21 16  1  0  0  0
 26 22  1  0  0  0
  3  4  1  0  0  0
 12 15  1  0  0  0
M  END
> <minimizedAffinity>
-4.95479

> <CNNscore>
0.4462114871

> <CNNaffinity>
5.5582876205

> <CNN_VS>
2.4801716805

> <CNNaffinity_variance>
0.2406951189

$$$$
[H]c1nc([H])c(-c2c([H])c([H])c([H])c(C(=O)N([H])c3c([H])c(N([H])C(=O)c4c([H])c([H])c(C([H])([H])N5C([H])([H])C([H])([H])N(C([H])([H])[H])C([H])([H])C5([H])[H])c(C(F)(F)F)c4[H])c([H])c([H])c3C([H])([H])[H])c2[H])o1


 44 48  0  0  0  0  0  0  0  0999 V2000
   36.3555  -19.2838   36.2019 C   0  0  0  0  0  0  0  0  0  0  0  0
   36.1717  -18.0796   35.9218 O   0  0  0  0  0  0  0  0  0  0  0  0
   35.3009  -20.2150   36.0428 N   0  0  0  0  0  0  0  0  0  0  0  0
   35.5086  -21.2288   36.3124 H   0  0  0  0  0  0  0  0  0  0  0  0
   33.9994  -19.9233   35.5607 C   0  0  0  0  0  0  0  0  0  0  0  0
   33.8025  -19.0381   34.5481 C   0  0  0  0  0  0  0  0  0  0  0  0
   32.4927  -18.7565   34.1324 C   0  0  0  0  0  0  0  0  0  0  0  0
   31.4213  -19.3683   34.7405 C   0  0  0  0  0  0  0  0  0  0  0  0
   30.0260  -19.0793   34.3176 C   0  0  0  0  0  0  0  0  0  0  0  0
   31.5905  -20.2815   35.7821 C   0  0  0  0  0  0  0  0  0  0  0  0
   32.8780  -20.5350   36.1646 C   0  0  0  0  0  0  0  0  0  0  0  0
   30.4763  -20.8636   36.3764 N   0  0  0  0  0  0  0  0  0  0  0  0
   29.8115  -22.0618   36.0923 C   0  0  0  0  0  0  0  0  0  0  0  0
   30.1691  -22.8162   35.1794 O   0  0  0  0  0  0  0  0  0  0  0  0
   30.0190  -20.3202   37.2016 H   0  0  0  0  0  0  0  0  0  0  0  0
   28.6455  -22.4930   36.8669 C   0  0  0  0  0  0  0  0  0  0  0  0
   28.0074  -21.6070   37.7355 C   0  0  0  0  0  0  0  0  0  0  0  0
   26.9070  -21.9761   38.4777 C   0  0  0  0  0  0  0  0  0  0  0  0
   26.4291  -23.2680   38.3490 C   0  0  0  0  0  0  0  0  0  0  0  0
   27.0202  -24.1866   37.5048 C   0  0  0  0  0  0  0  0  0  0  0  0
   28.1277  -23.7608   36.7797 C   0  0  0  0  0  0  0  0  0  0  0  0
   26.4986  -25.5352   37.3903 C   0  0  0  0  0  0  0  0  0  0  0  0
   26.3973  -26.4084   38.4761 C   0  0  0  0  0  0  0  0  0  0  0  0
   25.8777  -27.5495   37.9878 N   0  0  0  0  0  0  0  0  0  0  0  0
   25.6703  -27.3929   36.6778 C   0  0  0  0  0  0  0  0  0  0  0  0
   26.0552  -26.1771   36.3675 O   0  0  0  0  0  0  0  0  0  0  0  0
   40.1685  -20.5090   37.6167 C   0  0  0  0  0  0  0  0  0  0  0  0
   39.9947  -19.8507   36.3973 C   0  0  0  0  0  0  0  0  0  0  0  0
   38.7697  -19.4363   35.9210 C   0  0  0  0  0  0  0  0  0  0  0  0
   37.6693  -19.6857   36.6885 C   0  0  0  0  0  0  0  0  0  0  0  0
   37.7977  -20.3307   37.8967 C   0  0  0  0  0  0  0  0  0  0  0  0
   39.0226  -20.7544   38.3897 C   0  0  0  0  0  0  0  0  0  0  0  0
   39.1345  -21.4552   39.6774 C   0  0  0  0  0  0  0  0  0  0  0  0
   39.8571  -20.8344   40.6427 F   0  0  0  0  0  0  0  0  0  0  0  0
   37.8277  -21.5346   40.2065 F   0  0  0  0  0  0  0  0  0  0  0  0
   39.4736  -22.8035   39.5004 F   0  0  0  0  0  0  0  0  0  0  0  0
   41.4461  -20.9166   38.1618 C   0  0  0  0  0  0  0  0  0  0  0  0
   45.9072  -19.9053   36.2890 C   0  0  0  0  0  0  0  0  0  0  0  0
   45.4220  -21.1023   36.9217 N   0  0  0  0  0  0  0  0  0  0  0  0
   44.8967  -20.8578   38.2483 C   0  0  0  0  0  0  0  0  0  0  0  0
   43.6472  -20.0757   38.1437 C   0  0  0  0  0  0  0  0  0  0  0  0
   42.6173  -20.7308   37.3313 N   0  0  0  0  0  0  0  0  0  0  0  0
   43.1425  -21.9944   36.8497 C   0  0  0  0  0  0  0  0  0  0  0  0
   44.4554  -21.8351   36.1409 C   0  0  0  0  0  0  0  0  0  0  0  0
 38 39  1  0  0  0
 39 40  1  0  0  0
 40 41  1  0  0  0
 41 42  1  0  0  0
 42 37  1  0  0  0
 37 27  1  0  0  0
 27 28  2  0  0  0
 28 29  1  0  0  0
 29 30  2  0  0  0
 30 31  1  0  0  0
 31 32  2  0  0  0
 32 33  1  0  0  0
 33 34  1  0  0  0
 33 35  1  0  0  0
 33 36  1  0  0  0
 30  1  1  0  0  0
  1  2  2  0  0  0
  1  3  1  0  0  0
  3  5  1  0  0  0
  5  6  2  0  0  0
  6  7  1  0  0  0
  7  8  2  0  0  0
  8  9  1  0  0  0
  8 10  1  0  0  0
 10 12  1  0  0  0
 12 13  1  0  0  0
 13 14  2  0  0  0
 13 16  1  0  0  0
 16 17  2  0  0  0
 17 18  1  0  0  0
 18 19  2  0  0  0
 19 20  1  0  0  0
 20 21  2  0  0  0
 20 22  1  0  0  0
 22 23  2  0  0  0
 23 24  1  0  0  0
 24 25  2  0  0  0
 25 26  1  0  0  0
 10 11  2  0  0  0
 42 43  1  0  0  0
 43 44  1  0  0  0
 44 39  1  0  0  0
 32 27  1  0  0  0
 11  5  1  0  0  0
 21 16  1  0  0  0
 26 22  1  0  0  0
  3  4  1  0  0  0
 12 15  1  0  0  0
M  END
> <minimizedAffinity>
-5.49133

> <CNNscore>
0.4446568191

> <CNNaffinity>
5.2958245277

> <CNN_VS>
2.3548245430

> <CNNaffinity_variance>
0.1652156711

$$$$
[H]c1nc([H])c(-c2c([H])c([H])c([H])c(C(=O)N([H])c3c([H])c(N([H])C(=O)c4c([H])c([H])c(C([H])([H])N5C([H])([H])C([H])([H])N(C([H])([H])[H])C([H])([H])C5([H])[H])c(C(F)(F)F)c4[H])c([H])c([H])c3C([H])([H])[H])c2[H])o1


 44 48  0  0  0  0  0  0  0  0999 V2000
   33.4770  -20.4005   42.4809 C   0  0  0  0  0  0  0  0  0  0  0  0
   32.9841  -20.9327   41.4630 O   0  0  0  0  0  0  0  0  0  0  0  0
   34.8022  -20.7126   42.8697 N   0  0  0  0  0  0  0  0  0  0  0  0
   35.1677  -20.2409   43.7572 H   0  0  0  0  0  0  0  0  0  0  0  0
   35.6832  -21.5919   42.1901 C   0  0  0  0  0  0  0  0  0  0  0  0
   35.9459  -22.8375   42.6669 C   0  0  0  0  0  0  0  0  0  0  0  0
   36.8532  -23.6553   41.9773 C   0  0  0  0  0  0  0  0  0  0  0  0
   37.4690  -23.2037   40.8333 C   0  0  0  0  0  0  0  0  0  0  0  0
   38.4370  -24.0533   40.0916 C   0  0  0  0  0  0  0  0  0  0  0  0
   37.2203  -21.9306   40.3185 C   0  0  0  0  0  0  0  0  0  0  0  0
   36.3319  -21.1576   41.0124 C   0  0  0  0  0  0  0  0  0  0  0  0
   37.8780  -21.5120   39.1670 N   0  0  0  0  0  0  0  0  0  0  0  0
   39.1556  -20.9686   38.9919 C   0  0  0  0  0  0  0  0  0  0  0  0
   39.9249  -20.7686   39.9398 O   0  0  0  0  0  0  0  0  0  0  0  0
   37.3342  -21.6063   38.2286 H   0  0  0  0  0  0  0  0  0  0  0  0
   39.6574  -20.6039   37.6650 C   0  0  0  0  0  0  0  0  0  0  0  0
   39.2186  -21.2882   36.5310 C   0  0  0  0  0  0  0  0  0  0  0  0
   39.6661  -20.9713   35.2673 C   0  0  0  0  0  0  0  0  0  0  0  0
   40.5787  -19.9404   35.1311 C   0  0  0  0  0  0  0  0  0  0  0  0
   41.0471  -19.2289   36.2175 C   0  0  0  0  0  0  0  0  0  0  0  0
   40.5623  -19.5910   37.4695 C   0  0  0  0  0  0  0  0  0  0  0  0
   42.0050  -18.1534   36.0456 C   0  0  0  0  0  0  0  0  0  0  0  0
   42.5145  -17.7777   34.8003 C   0  0  0  0  0  0  0  0  0  0  0  0
   43.3630  -16.7607   35.0376 N   0  0  0  0  0  0  0  0  0  0  0  0
   43.3788  -16.5213   36.3514 C   0  0  0  0  0  0  0  0  0  0  0  0
   42.5542  -17.3757   36.9106 O   0  0  0  0  0  0  0  0  0  0  0  0
   31.0702  -17.7153   44.7256 C   0  0  0  0  0  0  0  0  0  0  0  0
   32.4244  -17.4822   44.4756 C   0  0  0  0  0  0  0  0  0  0  0  0
   33.2234  -18.3337   43.7437 C   0  0  0  0  0  0  0  0  0  0  0  0
   32.6536  -19.4656   43.2375 C   0  0  0  0  0  0  0  0  0  0  0  0
   31.3225  -19.7317   43.4602 C   0  0  0  0  0  0  0  0  0  0  0  0
   30.5053  -18.8857   44.1946 C   0  0  0  0  0  0  0  0  0  0  0  0
   29.0883  -19.1975   44.4324 C   0  0  0  0  0  0  0  0  0  0  0  0
   28.1826  -18.4473   43.7568 F   0  0  0  0  0  0  0  0  0  0  0  0
   28.8821  -20.5131   43.9628 F   0  0  0  0  0  0  0  0  0  0  0  0
   28.8113  -19.3160   45.8012 F   0  0  0  0  0  0  0  0  0  0  0  0
   30.1972  -16.8185   45.4530 C   0  0  0  0  0  0  0  0  0  0  0  0
   29.2667  -13.0170   42.4342 C   0  0  0  0  0  0  0  0  0  0  0  0
   28.3641  -13.9677   43.0256 N   0  0  0  0  0  0  0  0  0  0  0  0
   28.7123  -15.3371   42.7112 C   0  0  0  0  0  0  0  0  0  0  0  0
   29.9730  -15.6914   43.3960 C   0  0  0  0  0  0  0  0  0  0  0  0
   29.9080  -15.5334   44.8522 N   0  0  0  0  0  0  0  0  0  0  0  0
   28.5842  -15.0580   45.2073 C   0  0  0  0  0  0  0  0  0  0  0  0
   28.1992  -13.8206   44.4511 C   0  0  0  0  0  0  0  0  0  0  0  0
 38 39  1  0  0  0
 39 40  1  0  0  0
 40 41  1  0  0  0
 41 42  1  0  0  0
 42 37  1  0  0  0
 37 27  1  0  0  0
 27 28  2  0  0  0
 28 29  1  0  0  0
 29 30  2  0  0  0
 30 31  1  0  0  0
 31 32  2  0  0  0
 32 33  1  0  0  0
 33 34  1  0  0  0
 33 35  1  0  0  0
 33 36  1  0  0  0
 30  1  1  0  0  0
  1  2  2  0  0  0
  1  3  1  0  0  0
  3  5  1  0  0  0
  5  6  2  0  0  0
  6  7  1  0  0  0
  7  8  2  0  0  0
  8  9  1  0  0  0
  8 10  1  0  0  0
 10 12  1  0  0  0
 12 13  1  0  0  0
 13 14  2  0  0  0
 13 16  1  0  0  0
 16 17  2  0  0  0
 17 18  1  0  0  0
 18 19  2  0  0  0
 19 20  1  0  0  0
 20 21  2  0  0  0
 20 22  1  0  0  0
 22 23  2  0  0  0
 23 24  1  0  0  0
 24 25  2  0  0  0
 25 26  1  0  0  0
 10 11  2  0  0  0
 42 43  1  0  0  0
 43 44  1  0  0  0
 44 39  1  0  0  0
 32 27  1  0  0  0
 11  5  1  0  0  0
 21 16  1  0  0  0
 26 22  1  0  0  0
  3  4  1  0  0  0
 12 15  1  0  0  0
M  END
> <minimizedAffinity>
-5.19903

> <CNNscore>
0.4067529738

> <CNNaffinity>
5.3995566368

> <CNN_VS>
2.1962857246

> <CNNaffinity_variance>
0.1016063839

$$$$
[H]c1nc([H])c(-c2c([H])c([H])c([H])c(C(=O)N([H])c3c([H])c(N([H])C(=O)c4c([H])c([H])c(C([H])([H])N5C([H])([H])C([H])([H])N(C([H])([H])[H])C([H])([H])C5([H])[H])c(C(F)(F)F)c4[H])c([H])c([H])c3C([H])([H])[H])c2[H])o1


 44 48  0  0  0  0  0  0  0  0999 V2000
   38.5572  -21.4667   37.9688 C   0  0  0  0  0  0  0  0  0  0  0  0
   37.9936  -20.7452   38.8197 O   0  0  0  0  0  0  0  0  0  0  0  0
   38.0280  -22.7440   37.6637 N   0  0  0  0  0  0  0  0  0  0  0  0
   38.5592  -23.3253   36.9400 H   0  0  0  0  0  0  0  0  0  0  0  0
   36.8619  -23.3184   38.2308 C   0  0  0  0  0  0  0  0  0  0  0  0
   36.9333  -24.1489   39.3045 C   0  0  0  0  0  0  0  0  0  0  0  0
   35.7543  -24.7205   39.8053 C   0  0  0  0  0  0  0  0  0  0  0  0
   34.5414  -24.4442   39.2183 C   0  0  0  0  0  0  0  0  0  0  0  0
   33.2819  -25.0440   39.7312 C   0  0  0  0  0  0  0  0  0  0  0  0
   34.4350  -23.5959   38.1154 C   0  0  0  0  0  0  0  0  0  0  0  0
   35.6009  -23.0545   37.6507 C   0  0  0  0  0  0  0  0  0  0  0  0
   33.1888  -23.3580   37.5462 N   0  0  0  0  0  0  0  0  0  0  0  0
   32.3970  -22.2042   37.5321 C   0  0  0  0  0  0  0  0  0  0  0  0
   32.7453  -21.1561   38.0892 O   0  0  0  0  0  0  0  0  0  0  0  0
   32.7225  -24.1886   37.0192 H   0  0  0  0  0  0  0  0  0  0  0  0
   31.1008  -22.1733   36.8506 C   0  0  0  0  0  0  0  0  0  0  0  0
   30.6310  -20.9902   36.2793 C   0  0  0  0  0  0  0  0  0  0  0  0
   29.4187  -20.9238   35.6283 C   0  0  0  0  0  0  0  0  0  0  0  0
   28.6525  -22.0727   35.5447 C   0  0  0  0  0  0  0  0  0  0  0  0
   29.0672  -23.2708   36.0908 C   0  0  0  0  0  0  0  0  0  0  0  0
   30.2987  -23.2808   36.7366 C   0  0  0  0  0  0  0  0  0  0  0  0
   28.2428  -24.4598   35.9893 C   0  0  0  0  0  0  0  0  0  0  0  0
   27.3032  -24.8213   36.9580 C   0  0  0  0  0  0  0  0  0  0  0  0
   26.7437  -25.9654   36.5238 N   0  0  0  0  0  0  0  0  0  0  0  0
   27.3037  -26.2936   35.3566 C   0  0  0  0  0  0  0  0  0  0  0  0
   28.1908  -25.3670   35.0788 O   0  0  0  0  0  0  0  0  0  0  0  0
   42.0219  -19.9260   36.0546 C   0  0  0  0  0  0  0  0  0  0  0  0
   41.9913  -20.2404   37.4150 C   0  0  0  0  0  0  0  0  0  0  0  0
   40.8826  -20.7489   38.0566 C   0  0  0  0  0  0  0  0  0  0  0  0
   39.7554  -20.9547   37.3156 C   0  0  0  0  0  0  0  0  0  0  0  0
   39.7444  -20.6589   35.9722 C   0  0  0  0  0  0  0  0  0  0  0  0
   40.8510  -20.1465   35.3121 C   0  0  0  0  0  0  0  0  0  0  0  0
   40.8121  -19.8239   33.8781 C   0  0  0  0  0  0  0  0  0  0  0  0
   41.7666  -20.3970   33.1035 F   0  0  0  0  0  0  0  0  0  0  0  0
   39.5945  -20.3400   33.3831 F   0  0  0  0  0  0  0  0  0  0  0  0
   40.6676  -18.4461   33.6656 F   0  0  0  0  0  0  0  0  0  0  0  0
   43.1835  -19.4324   35.3458 C   0  0  0  0  0  0  0  0  0  0  0  0
   45.3295  -15.1215   36.4604 C   0  0  0  0  0  0  0  0  0  0  0  0
   45.4694  -15.9464   35.2906 N   0  0  0  0  0  0  0  0  0  0  0  0
   45.8833  -17.2969   35.6072 C   0  0  0  0  0  0  0  0  0  0  0  0
   44.7842  -17.9947   36.3065 C   0  0  0  0  0  0  0  0  0  0  0  0
   43.5397  -18.0415   35.5327 N   0  0  0  0  0  0  0  0  0  0  0  0
   43.7561  -17.3658   34.2674 C   0  0  0  0  0  0  0  0  0  0  0  0
   44.3007  -15.9791   34.4456 C   0  0  0  0  0  0  0  0  0  0  0  0
 38 39  1  0  0  0
 39 40  1  0  0  0
 40 41  1  0  0  0
 41 42  1  0  0  0
 42 37  1  0  0  0
 37 27  1  0  0  0
 27 28  2  0  0  0
 28 29  1  0  0  0
 29 30  2  0  0  0
 30 31  1  0  0  0
 31 32  2  0  0  0
 32 33  1  0  0  0
 33 34  1  0  0  0
 33 35  1  0  0  0
 33 36  1  0  0  0
 30  1  1  0  0  0
  1  2  2  0  0  0
  1  3  1  0  0  0
  3  5  1  0  0  0
  5  6  2  0  0  0
  6  7  1  0  0  0
  7  8  2  0  0  0
  8  9  1  0  0  0
  8 10  1  0  0  0
 10 12  1  0  0  0
 12 13  1  0  0  0
 13 14  2  0  0  0
 13 16  1  0  0  0
 16 17  2  0  0  0
 17 18  1  0  0  0
 18 19  2  0  0  0
 19 20  1  0  0  0
 20 21  2  0  0  0
 20 22  1  0  0  0
 22 23  2  0  0  0
 23 24  1  0  0  0
 24 25  2  0  0  0
 25 26  1  0  0  0
 10 11  2  0  0  0
 42 43  1  0  0  0
 43 44  1  0  0  0
 44 39  1  0  0  0
 32 27  1  0  0  0
 11  5  1  0  0  0
 21 16  1  0  0  0
 26 22  1  0  0  0
  3  4  1  0  0  0
 12 15  1  0  0  0
M  END
> <minimizedAffinity>
-4.92032

> <CNNscore>
0.3841297328

> <CNNaffinity>
5.4773430824

> <CNN_VS>
2.1040103436

> <CNNaffinity_variance>
0.4102575779

$$$$
[H]c1nc([H])c(-c2c([H])c([H])c([H])c(C(=O)N([H])c3c([H])c(N([H])C(=O)c4c([H])c([H])c(C([H])([H])N5C([H])([H])C([H])([H])N(C([H])([H])[H])C([H])([H])C5([H])[H])c(C(F)(F)F)c4[H])c([H])c([H])c3C([H])([H])[H])c2[H])o1


 44 48  0  0  0  0  0  0  0  0999 V2000
   33.6502  -19.8006   43.8897 C   0  0  0  0  0  0  0  0  0  0  0  0
   33.6747  -20.7063   43.0286 O   0  0  0  0  0  0  0  0  0  0  0  0
   34.7480  -19.6306   44.7675 N   0  0  0  0  0  0  0  0  0  0  0  0
   34.6671  -18.8508   45.4948 H   0  0  0  0  0  0  0  0  0  0  0  0
   35.9395  -20.3999   44.7681 C   0  0  0  0  0  0  0  0  0  0  0  0
   36.0745  -21.4934   45.5642 C   0  0  0  0  0  0  0  0  0  0  0  0
   37.2867  -22.1991   45.5552 C   0  0  0  0  0  0  0  0  0  0  0  0
   38.3254  -21.7908   44.7511 C   0  0  0  0  0  0  0  0  0  0  0  0
   39.6191  -22.5223   44.7314 C   0  0  0  0  0  0  0  0  0  0  0  0
   38.2178  -20.6729   43.9228 C   0  0  0  0  0  0  0  0  0  0  0  0
   37.0249  -20.0064   43.9536 C   0  0  0  0  0  0  0  0  0  0  0  0
   39.3001  -20.2894   43.1384 N   0  0  0  0  0  0  0  0  0  0  0  0
   39.6355  -20.6208   41.8208 C   0  0  0  0  0  0  0  0  0  0  0  0
   38.9415  -21.3788   41.1323 O   0  0  0  0  0  0  0  0  0  0  0  0
   40.0281  -19.6227   43.5975 H   0  0  0  0  0  0  0  0  0  0  0  0
   40.8371  -20.0837   41.1782 C   0  0  0  0  0  0  0  0  0  0  0  0
   41.8136  -19.4356   41.9354 C   0  0  0  0  0  0  0  0  0  0  0  0
   42.9576  -18.9206   41.3663 C   0  0  0  0  0  0  0  0  0  0  0  0
   43.1323  -19.0565   40.0007 C   0  0  0  0  0  0  0  0  0  0  0  0
   42.1999  -19.6883   39.2025 C   0  0  0  0  0  0  0  0  0  0  0  0
   41.0640  -20.1893   39.8290 C   0  0  0  0  0  0  0  0  0  0  0  0
   42.4085  -19.8156   37.7727 C   0  0  0  0  0  0  0  0  0  0  0  0
   41.7424  -20.7584   36.9859 C   0  0  0  0  0  0  0  0  0  0  0  0
   42.1899  -20.5767   35.7300 N   0  0  0  0  0  0  0  0  0  0  0  0
   43.0806  -19.5815   35.7385 C   0  0  0  0  0  0  0  0  0  0  0  0
   43.1776  -19.1594   36.9774 O   0  0  0  0  0  0  0  0  0  0  0  0
   30.1974  -17.3375   44.1185 C   0  0  0  0  0  0  0  0  0  0  0  0
   31.4602  -16.9021   44.5264 C   0  0  0  0  0  0  0  0  0  0  0  0
   32.5960  -17.6793   44.4543 C   0  0  0  0  0  0  0  0  0  0  0  0
   32.4733  -18.9434   43.9552 C   0  0  0  0  0  0  0  0  0  0  0  0
   31.2472  -19.4101   43.5414 C   0  0  0  0  0  0  0  0  0  0  0  0
   30.0951  -18.6412   43.6078 C   0  0  0  0  0  0  0  0  0  0  0  0
   28.7922  -19.1658   43.1733 C   0  0  0  0  0  0  0  0  0  0  0  0
   27.7373  -18.9148   43.9880 F   0  0  0  0  0  0  0  0  0  0  0  0
   28.4752  -18.5049   41.9664 F   0  0  0  0  0  0  0  0  0  0  0  0
   28.8862  -20.5052   42.7713 F   0  0  0  0  0  0  0  0  0  0  0  0
   28.9965  -16.5294   44.1419 C   0  0  0  0  0  0  0  0  0  0  0  0
   29.2482  -12.4511   41.3607 C   0  0  0  0  0  0  0  0  0  0  0  0
   28.0994  -13.1567   41.8616 N   0  0  0  0  0  0  0  0  0  0  0  0
   28.0840  -14.5489   41.4656 C   0  0  0  0  0  0  0  0  0  0  0  0
   29.1729  -15.2675   42.1599 C   0  0  0  0  0  0  0  0  0  0  0  0
   29.0873  -15.1816   43.6210 N   0  0  0  0  0  0  0  0  0  0  0  0
   27.9234  -14.3893   43.9703 C   0  0  0  0  0  0  0  0  0  0  0  0
   27.9161  -13.0526   43.2887 C   0  0  0  0  0  0  0  0  0  0  0  0
 38 39  1  0  0  0
 39 40  1  0  0  0
 40 41  1  0  0  0
 41 42  1  0  0  0
 42 37  1  0  0  0
 37 27  1  0  0  0
 27 28  2  0  0  0
 28 29  1  0  0  0
 29 30  2  0  0  0
 30 31  1  0  0  0
 31 32  2  0  0  0
 32 33  1  0  0  0
 33 34  1  0  0  0
 33 35  1  0  0  0
 33 36  1  0  0  0
 30  1  1  0  0  0
  1  2  2  0  0  0
  1  3  1  0  0  0
  3  5  1  0  0  0
  5  6  2  0  0  0
  6  7  1  0  0  0
  7  8  2  0  0  0
  8  9  1  0  0  0
  8 10  1  0  0  0
 10 12  1  0  0  0
 12 13  1  0  0  0
 13 14  2  0  0  0
 13 16  1  0  0  0
 16 17  2  0  0  0
 17 18  1  0  0  0
 18 19  2  0  0  0
 19 20  1  0  0  0
 20 21  2  0  0  0
 20 22  1  0  0  0
 22 23  2  0  0  0
 23 24  1  0  0  0
 24 25  2  0  0  0
 25 26  1  0  0  0
 10 11  2  0  0  0
 42 43  1  0  0  0
 43 44  1  0  0  0
 44 39  1  0  0  0
 32 27  1  0  0  0
 11  5  1  0  0  0
 21 16  1  0  0  0
 26 22  1  0  0  0
  3  4  1  0  0  0
 12 15  1  0  0  0
M  END
> <minimizedAffinity>
-5.45188

> <CNNscore>
0.3677814007

> <CNNaffinity>
5.2249660492

> <CNN_VS>
1.9216452837

> <CNNaffinity_variance>
0.0735066533

$$$$
[H]c1nc([H])c(-c2c([H])c([H])c([H])c(C(=O)N([H])c3c([H])c(N([H])C(=O)c4c([H])c([H])c(C([H])([H])N5C([H])([H])C([H])([H])N(C([H])([H])[H])C([H])([H])C5([H])[H])c(C(F)(F)F)c4[H])c([H])c([H])c3C([H])([H])[H])c2[H])o1


 44 48  0  0  0  0  0  0  0  0999 V2000
   35.1862  -18.2444   36.9487 C   0  0  0  0  0  0  0  0  0  0  0  0
   36.1578  -17.9742   37.6871 O   0  0  0  0  0  0  0  0  0  0  0  0
   34.5357  -17.2117   36.2311 N   0  0  0  0  0  0  0  0  0  0  0  0
   33.7005  -17.4970   35.6271 H   0  0  0  0  0  0  0  0  0  0  0  0
   34.8914  -15.8388   36.2430 C   0  0  0  0  0  0  0  0  0  0  0  0
   36.1393  -15.4288   35.8933 C   0  0  0  0  0  0  0  0  0  0  0  0
   36.4521  -14.0629   35.9572 C   0  0  0  0  0  0  0  0  0  0  0  0
   35.5088  -13.1498   36.3675 C   0  0  0  0  0  0  0  0  0  0  0  0
   35.8226  -11.6992   36.4465 C   0  0  0  0  0  0  0  0  0  0  0  0
   34.2194  -13.5391   36.7327 C   0  0  0  0  0  0  0  0  0  0  0  0
   33.9450  -14.8762   36.6601 C   0  0  0  0  0  0  0  0  0  0  0  0
   33.3039  -12.5817   37.1554 N   0  0  0  0  0  0  0  0  0  0  0  0
   32.0240  -12.2710   36.6826 C   0  0  0  0  0  0  0  0  0  0  0  0
   31.5082  -12.8674   35.7295 O   0  0  0  0  0  0  0  0  0  0  0  0
   33.6036  -11.9495   37.9896 H   0  0  0  0  0  0  0  0  0  0  0  0
   31.2169  -11.2134   37.2955 C   0  0  0  0  0  0  0  0  0  0  0  0
   31.6807   -9.8978   37.3246 C   0  0  0  0  0  0  0  0  0  0  0  0
   30.9484   -8.8769   37.8896 C   0  0  0  0  0  0  0  0  0  0  0  0
   29.7163   -9.1779   38.4420 C   0  0  0  0  0  0  0  0  0  0  0  0
   29.2073  -10.4612   38.4413 C   0  0  0  0  0  0  0  0  0  0  0  0
   29.9884  -11.4529   37.8580 C   0  0  0  0  0  0  0  0  0  0  0  0
   27.9127  -10.7486   39.0288 C   0  0  0  0  0  0  0  0  0  0  0  0
   27.6555  -10.6405   40.3976 C   0  0  0  0  0  0  0  0  0  0  0  0
   26.3649  -10.9840   40.5613 N   0  0  0  0  0  0  0  0  0  0  0  0
   25.8534  -11.2876   39.3655 C   0  0  0  0  0  0  0  0  0  0  0  0
   26.8128  -11.1326   38.4834 O   0  0  0  0  0  0  0  0  0  0  0  0
   33.9251  -22.2947   36.7336 C   0  0  0  0  0  0  0  0  0  0  0  0
   33.2259  -21.2555   36.1157 C   0  0  0  0  0  0  0  0  0  0  0  0
   33.6194  -19.9356   36.1643 C   0  0  0  0  0  0  0  0  0  0  0  0
   34.7565  -19.6340   36.8557 C   0  0  0  0  0  0  0  0  0  0  0  0
   35.4748  -20.6288   37.4778 C   0  0  0  0  0  0  0  0  0  0  0  0
   35.0922  -21.9610   37.4388 C   0  0  0  0  0  0  0  0  0  0  0  0
   35.8675  -23.0060   38.1235 C   0  0  0  0  0  0  0  0  0  0  0  0
   36.4030  -23.9736   37.3384 F   0  0  0  0  0  0  0  0  0  0  0  0
   36.9817  -22.3630   38.7059 F   0  0  0  0  0  0  0  0  0  0  0  0
   35.1840  -23.5030   39.2416 F   0  0  0  0  0  0  0  0  0  0  0  0
   33.5599  -23.6937   36.6631 C   0  0  0  0  0  0  0  0  0  0  0  0
   29.2370  -25.6772   35.3179 C   0  0  0  0  0  0  0  0  0  0  0  0
   30.0343  -25.9119   36.4917 N   0  0  0  0  0  0  0  0  0  0  0  0
   31.3838  -26.3287   36.1747 C   0  0  0  0  0  0  0  0  0  0  0  0
   32.1154  -25.1979   35.5664 C   0  0  0  0  0  0  0  0  0  0  0  0
   32.1674  -24.0101   36.4244 N   0  0  0  0  0  0  0  0  0  0  0  0
   31.4612  -24.2993   37.6580 C   0  0  0  0  0  0  0  0  0  0  0  0
   30.0693  -24.8043   37.4152 C   0  0  0  0  0  0  0  0  0  0  0  0
 38 39  1  0  0  0
 39 40  1  0  0  0
 40 41  1  0  0  0
 41 42  1  0  0  0
 42 37  1  0  0  0
 37 27  1  0  0  0
 27 28  2  0  0  0
 28 29  1  0  0  0
 29 30  2  0  0  0
 30 31  1  0  0  0
 31 32  2  0  0  0
 32 33  1  0  0  0
 33 34  1  0  0  0
 33 35  1  0  0  0
 33 36  1  0  0  0
 30  1  1  0  0  0
  1  2  2  0  0  0
  1  3  1  0  0  0
  3  5  1  0  0  0
  5  6  2  0  0  0
  6  7  1  0  0  0
  7  8  2  0  0  0
  8  9  1  0  0  0
  8 10  1  0  0  0
 10 12  1  0  0  0
 12 13  1  0  0  0
 13 14  2  0  0  0
 13 16  1  0  0  0
 16 17  2  0  0  0
 17 18  1  0  0  0
 18 19  2  0  0  0
 19 20  1  0  0  0
 20 21  2  0  0  0
 20 22  1  0  0  0
 22 23  2  0  0  0
 23 24  1  0  0  0
 24 25  2  0  0  0
 25 26  1  0  0  0
 10 11  2  0  0  0
 42 43  1  0  0  0
 43 44  1  0  0  0
 44 39  1  0  0  0
 32 27  1  0  0  0
 11  5  1  0  0  0
 21 16  1  0  0  0
 26 22  1  0  0  0
  3  4  1  0  0  0
 12 15  1  0  0  0
M  END
> <minimizedAffinity>
-6.97118

> <CNNscore>
0.3659105301

> <CNNaffinity>
6.3447618484

> <CNN_VS>
2.3216152191

> <CNNaffinity_variance>
0.2915606499

$$$$
[H]c1nc([H])c(-c2c([H])c([H])c([H])c(C(=O)N([H])c3c([H])c(N([H])C(=O)c4c([H])c([H])c(C([H])([H])N5C([H])([H])C([H])([H])N(C([H])([H])[H])C([H])([H])C5([H])[H])c(C(F)(F)F)c4[H])c([H])c([H])c3C([H])([H])[H])c2[H])o1


 44 48  0  0  0  0  0  0  0  0999 V2000
   35.5977  -20.8695   37.2020 C   0  0  0  0  0  0  0  0  0  0  0  0
   36.7958  -20.9449   37.5501 O   0  0  0  0  0  0  0  0  0  0  0  0
   35.0369  -19.6132   36.8677 N   0  0  0  0  0  0  0  0  0  0  0  0
   34.0036  -19.6047   36.5924 H   0  0  0  0  0  0  0  0  0  0  0  0
   35.7209  -18.3707   36.8666 C   0  0  0  0  0  0  0  0  0  0  0  0
   37.0671  -18.3050   36.6903 C   0  0  0  0  0  0  0  0  0  0  0  0
   37.7013  -17.0546   36.7343 C   0  0  0  0  0  0  0  0  0  0  0  0
   36.9710  -15.9095   36.9523 C   0  0  0  0  0  0  0  0  0  0  0  0
   37.6253  -14.5762   37.0074 C   0  0  0  0  0  0  0  0  0  0  0  0
   35.5881  -15.9439   37.1367 C   0  0  0  0  0  0  0  0  0  0  0  0
   34.9992  -17.1765   37.0884 C   0  0  0  0  0  0  0  0  0  0  0  0
   34.8939  -14.7616   37.3690 N   0  0  0  0  0  0  0  0  0  0  0  0
   33.9436  -14.0928   36.5894 C   0  0  0  0  0  0  0  0  0  0  0  0
   33.5792  -14.5141   35.4849 O   0  0  0  0  0  0  0  0  0  0  0  0
   35.1045  -14.2434   38.3030 H   0  0  0  0  0  0  0  0  0  0  0  0
   33.3219  -12.8461   37.0420 C   0  0  0  0  0  0  0  0  0  0  0  0
   34.0929  -11.6974   37.2233 C   0  0  0  0  0  0  0  0  0  0  0  0
   33.5428  -10.5069   37.6449 C   0  0  0  0  0  0  0  0  0  0  0  0
   32.1825  -10.4613   37.8929 C   0  0  0  0  0  0  0  0  0  0  0  0
   31.3711  -11.5663   37.7301 C   0  0  0  0  0  0  0  0  0  0  0  0
   31.9788  -12.7419   37.3028 C   0  0  0  0  0  0  0  0  0  0  0  0
   29.9477  -11.4904   37.9986 C   0  0  0  0  0  0  0  0  0  0  0  0
   29.3719  -11.9346   39.1914 C   0  0  0  0  0  0  0  0  0  0  0  0
   28.0513  -11.7052   39.0742 N   0  0  0  0  0  0  0  0  0  0  0  0
   27.8225  -11.1526   37.8800 C   0  0  0  0  0  0  0  0  0  0  0  0
   28.9823  -11.0443   37.2751 O   0  0  0  0  0  0  0  0  0  0  0  0
   33.3399  -24.4662   37.1112 C   0  0  0  0  0  0  0  0  0  0  0  0
   32.7444  -23.2067   37.2099 C   0  0  0  0  0  0  0  0  0  0  0  0
   33.4547  -22.0259   37.2328 C   0  0  0  0  0  0  0  0  0  0  0  0
   34.8151  -22.0982   37.1539 C   0  0  0  0  0  0  0  0  0  0  0  0
   35.4405  -23.3194   37.0545 C   0  0  0  0  0  0  0  0  0  0  0  0
   34.7406  -24.5162   37.0306 C   0  0  0  0  0  0  0  0  0  0  0  0
   35.4309  -25.8111   36.9385 C   0  0  0  0  0  0  0  0  0  0  0  0
   36.7865  -25.7763   36.9594 F   0  0  0  0  0  0  0  0  0  0  0  0
   35.0755  -26.5391   38.0951 F   0  0  0  0  0  0  0  0  0  0  0  0
   34.9043  -26.6014   35.9077 F   0  0  0  0  0  0  0  0  0  0  0  0
   32.6181  -25.7190   37.0410 C   0  0  0  0  0  0  0  0  0  0  0  0
   28.9915  -26.5529   33.7877 C   0  0  0  0  0  0  0  0  0  0  0  0
   29.4983  -25.3107   34.3060 N   0  0  0  0  0  0  0  0  0  0  0  0
   29.4505  -25.2489   35.7515 C   0  0  0  0  0  0  0  0  0  0  0  0
   30.4292  -26.2022   36.3149 C   0  0  0  0  0  0  0  0  0  0  0  0
   31.8038  -25.9568   35.8678 N   0  0  0  0  0  0  0  0  0  0  0  0
   31.8021  -24.8154   34.9725 C   0  0  0  0  0  0  0  0  0  0  0  0
   30.8234  -24.9735   33.8462 C   0  0  0  0  0  0  0  0  0  0  0  0
 38 39  1  0  0  0
 39 40  1  0  0  0
 40 41  1  0  0  0
 41 42  1  0  0  0
 42 37  1  0  0  0
 37 27  1  0  0  0
 27 28  2  0  0  0
 28 29  1  0  0  0
 29 30  2  0  0  0
 30 31  1  0  0  0
 31 32  2  0  0  0
 32 33  1  0  0  0
 33 34  1  0  0  0
 33 35  1  0  0  0
 33 36  1  0  0  0
 30  1  1  0  0  0
  1  2  2  0  0  0
  1  3  1  0  0  0
  3  5  1  0  0  0
  5  6  2  0  0  0
  6  7  1  0  0  0
  7  8  2  0  0  0
  8  9  1  0  0  0
  8 10  1  0  0  0
 10 12  1  0  0  0
 12 13  1  0  0  0
 13 14  2  0  0  0
 13 16  1  0  0  0
 16 17  2  0  0  0
 17 18  1  0  0  0
 18 19  2  0  0  0
 19 20  1  0  0  0
 20 21  2  0  0  0
 20 22  1  0  0  0
 22 23  2  0  0  0
 23 24  1  0  0  0
 24 25  2  0  0  0
 25 26  1  0  0  0
 10 11  2  0  0  0
 42 43  1  0  0  0
 43 44  1  0  0  0
 44 39  1  0  0  0
 32 27  1  0  0  0
 11  5  1  0  0  0
 21 16  1  0  0  0
 26 22  1  0  0  0
  3  4  1  0  0  0
 12 15  1  0  0  0
M  END
> <minimizedAffinity>
-6.21144

> <CNNscore>
0.3520120382

> <CNNaffinity>
5.8961677551

> <CNN_VS>
2.0755219460

> <CNNaffinity_variance>
0.4890767932

$$$$
[H]c1nc([H])c(-c2c([H])c([H])c([H])c(C(=O)N([H])c3c([H])c(N([H])C(=O)c4c([H])c([H])c(C([H])([H])N5C([H])([H])C([H])([H])N(C([H])([H])[H])C([H])([H])C5([H])[H])c(C(F)(F)F)c4[H])c([H])c([H])c3C([H])([H])[H])c2[H])o1


 44 48  0  0  0  0  0  0  0  0999 V2000
   36.4212  -19.1500   36.3765 C   0  0  0  0  0  0  0  0  0  0  0  0
   36.1161  -17.9409   36.4620 O   0  0  0  0  0  0  0  0  0  0  0  0
   35.4607  -20.0913   35.9337 N   0  0  0  0  0  0  0  0  0  0  0  0
   35.7708  -21.1141   35.8948 H   0  0  0  0  0  0  0  0  0  0  0  0
   34.1299  -19.7993   35.5400 C   0  0  0  0  0  0  0  0  0  0  0  0
   33.8222  -18.6469   34.8881 C   0  0  0  0  0  0  0  0  0  0  0  0
   32.4850  -18.3881   34.5529 C   0  0  0  0  0  0  0  0  0  0  0  0
   31.4975  -19.2885   34.8788 C   0  0  0  0  0  0  0  0  0  0  0  0
   30.0744  -19.0299   34.5367 C   0  0  0  0  0  0  0  0  0  0  0  0
   31.7812  -20.4801   35.5474 C   0  0  0  0  0  0  0  0  0  0  0  0
   33.0928  -20.7038   35.8603 C   0  0  0  0  0  0  0  0  0  0  0  0
   30.7477  -21.3530   35.8692 N   0  0  0  0  0  0  0  0  0  0  0  0
   30.5004  -22.0841   37.0365 C   0  0  0  0  0  0  0  0  0  0  0  0
   31.2548  -22.0414   38.0159 O   0  0  0  0  0  0  0  0  0  0  0  0
   29.9896  -21.5198   35.1058 H   0  0  0  0  0  0  0  0  0  0  0  0
   29.3241  -22.9475   37.1647 C   0  0  0  0  0  0  0  0  0  0  0  0
   28.5529  -23.2616   36.0451 C   0  0  0  0  0  0  0  0  0  0  0  0
   27.4421  -24.0723   36.1267 C   0  0  0  0  0  0  0  0  0  0  0  0
   27.0906  -24.5851   37.3627 C   0  0  0  0  0  0  0  0  0  0  0  0
   27.8167  -24.3082   38.5037 C   0  0  0  0  0  0  0  0  0  0  0  0
   28.9282  -23.4844   38.3638 C   0  0  0  0  0  0  0  0  0  0  0  0
   27.4244  -24.8586   39.7871 C   0  0  0  0  0  0  0  0  0  0  0  0
   26.5223  -25.9170   39.9194 C   0  0  0  0  0  0  0  0  0  0  0  0
   26.4082  -26.1448   41.2406 N   0  0  0  0  0  0  0  0  0  0  0  0
   27.1921  -25.2788   41.8881 C   0  0  0  0  0  0  0  0  0  0  0  0
   27.7775  -24.5331   40.9804 O   0  0  0  0  0  0  0  0  0  0  0  0
   40.3776  -20.2536   37.4584 C   0  0  0  0  0  0  0  0  0  0  0  0
   39.2505  -20.7674   38.1035 C   0  0  0  0  0  0  0  0  0  0  0  0
   37.9575  -20.4312   37.7654 C   0  0  0  0  0  0  0  0  0  0  0  0
   37.7752  -19.5469   36.7422 C   0  0  0  0  0  0  0  0  0  0  0  0
   38.8591  -19.0185   36.0802 C   0  0  0  0  0  0  0  0  0  0  0  0
   40.1659  -19.3461   36.4085 C   0  0  0  0  0  0  0  0  0  0  0  0
   41.3101  -18.7577   35.6967 C   0  0  0  0  0  0  0  0  0  0  0  0
   41.0474  -18.1953   34.4908 F   0  0  0  0  0  0  0  0  0  0  0  0
   41.7732  -17.6888   36.4948 F   0  0  0  0  0  0  0  0  0  0  0  0
   42.4093  -19.6271   35.6845 F   0  0  0  0  0  0  0  0  0  0  0  0
   41.7442  -20.6214   37.7629 C   0  0  0  0  0  0  0  0  0  0  0  0
   44.0325  -20.7486   42.1422 C   0  0  0  0  0  0  0  0  0  0  0  0
   44.3768  -20.0351   40.9419 N   0  0  0  0  0  0  0  0  0  0  0  0
   44.5194  -20.9081   39.7960 C   0  0  0  0  0  0  0  0  0  0  0  0
   43.1952  -21.4490   39.4247 C   0  0  0  0  0  0  0  0  0  0  0  0
   42.2076  -20.4096   39.1181 N   0  0  0  0  0  0  0  0  0  0  0  0
   42.8373  -19.1123   39.2759 C   0  0  0  0  0  0  0  0  0  0  0  0
   43.4825  -18.9498   40.6207 C   0  0  0  0  0  0  0  0  0  0  0  0
 38 39  1  0  0  0
 39 40  1  0  0  0
 40 41  1  0  0  0
 41 42  1  0  0  0
 42 37  1  0  0  0
 37 27  1  0  0  0
 27 28  2  0  0  0
 28 29  1  0  0  0
 29 30  2  0  0  0
 30 31  1  0  0  0
 31 32  2  0  0  0
 32 33  1  0  0  0
 33 34  1  0  0  0
 33 35  1  0  0  0
 33 36  1  0  0  0
 30  1  1  0  0  0
  1  2  2  0  0  0
  1  3  1  0  0  0
  3  5  1  0  0  0
  5  6  2  0  0  0
  6  7  1  0  0  0
  7  8  2  0  0  0
  8  9  1  0  0  0
  8 10  1  0  0  0
 10 12  1  0  0  0
 12 13  1  0  0  0
 13 14  2  0  0  0
 13 16  1  0  0  0
 16 17  2  0  0  0
 17 18  1  0  0  0
 18 19  2  0  0  0
 19 20  1  0  0  0
 20 21  2  0  0  0
 20 22  1  0  0  0
 22 23  2  0  0  0
 23 24  1  0  0  0
 24 25  2  0  0  0
 25 26  1  0  0  0
 10 11  2  0  0  0
 42 43  1  0  0  0
 43 44  1  0  0  0
 44 39  1  0  0  0
 32 27  1  0  0  0
 11  5  1  0  0  0
 21 16  1  0  0  0
 26 22  1  0  0  0
  3  4  1  0  0  0
 12 15  1  0  0  0
M  END
> <minimizedAffinity>
-6.12031

> <CNNscore>
0.3471197188

> <CNNaffinity>
5.3702154160

> <CNN_VS>
1.8641076088

> <CNNaffinity_variance>
0.0304891057

$$$$
[H]O[C@]1([H])[C@]([H])(n2c([H])nc3c(N([H])[H])nc([H])nc32)O[C@]([H])(C([H])([H])OP(=O)(O[H])OP(=O)(O[H])OP(=O)(O[H])O[H])[C@]1([H])O[H]


 39 41  0  0  0  0  0  0  0  0999 V2000
   33.4739  -17.9175   34.8514 C   0  0  0  0  0  0  0  0  0  0  0  0
   32.7703  -18.4636   35.8909 O   0  0  0  0  0  0  0  0  0  0  0  0
   32.1554  -19.6174   35.4678 C   0  0  0  0  0  0  0  0  0  0  0  0
   32.6226  -19.9379   34.0890 C   0  0  0  0  0  0  0  0  0  0  0  0
   32.8308  -21.2647   33.8380 O   0  0  0  0  0  0  0  0  0  0  0  0
   33.9240  -19.1271   34.0210 C   0  0  0  0  0  0  0  0  0  0  0  0
   34.9388  -19.7622   34.7278 O   0  0  0  0  0  0  0  0  0  0  0  0
   33.1851  -21.3666   32.9346 H   0  0  0  0  0  0  0  0  0  0  0  0
   35.1881  -19.2589   35.5428 H   0  0  0  0  0  0  0  0  0  0  0  0
   37.5451  -13.9265   36.8463 N   0  0  0  0  0  0  0  0  0  0  0  0
   36.1829  -14.2860   36.6316 C   0  0  0  0  0  0  0  0  0  0  0  0
   35.1693  -13.4860   36.9668 N   0  0  0  0  0  0  0  0  0  0  0  0
   33.8994  -13.8678   36.7449 C   0  0  0  0  0  0  0  0  0  0  0  0
   33.6261  -15.0687   36.1782 N   0  0  0  0  0  0  0  0  0  0  0  0
   34.5959  -15.9059   35.8241 C   0  0  0  0  0  0  0  0  0  0  0  0
   34.5908  -17.1234   35.2591 N   0  0  0  0  0  0  0  0  0  0  0  0
   35.8763  -17.4975   35.1310 C   0  0  0  0  0  0  0  0  0  0  0  0
   36.6815  -16.5142   35.6156 N   0  0  0  0  0  0  0  0  0  0  0  0
   35.8990  -15.5222   36.0481 C   0  0  0  0  0  0  0  0  0  0  0  0
   38.1594  -14.5064   37.4683 H   0  0  0  0  0  0  0  0  0  0  0  0
   37.8840  -13.0698   36.3567 H   0  0  0  0  0  0  0  0  0  0  0  0
   32.4501  -20.7029   36.4716 C   0  0  0  0  0  0  0  0  0  0  0  0
   33.2897  -20.3193   37.4817 O   0  0  0  0  0  0  0  0  0  0  0  0
   34.3649  -21.5620   37.8114 P   0  0  0  0  0  0  0  0  0  0  0  0
   33.6974  -23.0829   37.4389 O   0  0  0  0  0  0  0  0  0  0  0  0
   35.6126  -21.4300   36.9340 O   0  0  0  0  0  0  0  0  0  0  0  0
   32.7844  -23.0004   37.0809 H   0  0  0  0  0  0  0  0  0  0  0  0
   34.8787  -21.6038   39.3985 O   0  0  0  0  0  0  0  0  0  0  0  0
   33.6930  -22.0524   40.4833 P   0  0  0  0  0  0  0  0  0  0  0  0
   33.3307  -20.6794   41.4379 O   0  0  0  0  0  0  0  0  0  0  0  0
   32.3926  -22.4454   39.8122 O   0  0  0  0  0  0  0  0  0  0  0  0
   34.0016  -19.9698   41.3226 H   0  0  0  0  0  0  0  0  0  0  0  0
   34.2155  -23.2515   41.5591 O   0  0  0  0  0  0  0  0  0  0  0  0
   33.3467  -24.6677   41.1622 P   0  0  0  0  0  0  0  0  0  0  0  0
   31.7124  -24.5045   41.5650 O   0  0  0  0  0  0  0  0  0  0  0  0
   33.4607  -25.0423   39.5411 O   0  0  0  0  0  0  0  0  0  0  0  0
   33.8835  -25.8498   41.9584 O   0  0  0  0  0  0  0  0  0  0  0  0
   31.6826  -24.0170   42.4300 H   0  0  0  0  0  0  0  0  0  0  0  0
   34.3234  -25.4216   39.2634 H   0  0  0  0  0  0  0  0  0  0  0  0
 10 11  1  0  0  0
 11 12  2  0  0  0
 12 13  1  0  0  0
 13 14  2  0  0  0
 14 15  1  0  0  0
 15 16  1  0  0  0
 16 17  1  0  0  0
 17 18  2  0  0  0
 18 19  1  0  0  0
 16  1  1  0  0  0
  1  2  1  0  0  0
  2  3  1  0  0  0
  3 22  1  0  0  0
 22 23  1  0  0  0
 23 24  1  0  0  0
 24 25  1  0  0  0
 24 26  2  0  0  0
 24 28  1  0  0  0
 28 29  1  0  0  0
 29 30  1  0  0  0
 29 31  2  0  0  0
 29 33  1  0  0  0
 33 34  1  0  0  0
 34 35  1  0  0  0
 34 36  1  0  0  0
 34 37  2  0  0  0
  3  4  1  0  0  0
  4  5  1  0  0  0
  4  6  1  0  0  0
  6  7  1  0  0  0
 19 11  1  0  0  0
  6  1  1  0  0  0
 19 15  2  0  0  0
 10 20  1  0  0  0
 10 21  1  0  0  0
 25 27  1  0  0  0
 30 32  1  0  0  0
 35 38  1  0  0  0
 36 39  1  0  0  0
  5  8  1  0  0  0
  7  9  1  0  0  0
M  END
> <minimizedAffinity>
-6.12802

> <CNNscore>
0.3789635301

> <CNNaffinity>
4.5304389000

> <CNN_VS>
1.7168711424

> <CNNaffinity_variance>
0.3220432997

$$$$
[H]O[C@]1([H])[C@]([H])(n2c([H])nc3c(N([H])[H])nc([H])nc32)O[C@]([H])(C([H])([H])OP(=O)(O[H])OP(=O)(O[H])OP(=O)(O[H])O[H])[C@]1([H])O[H]


 39 41  0  0  0  0  0  0  0  0999 V2000
   35.4637  -14.3385   35.9488 C   0  0  0  0  0  0  0  0  0  0  0  0
   34.7475  -15.4614   35.6325 O   0  0  0  0  0  0  0  0  0  0  0  0
   35.5842  -16.5515   35.6385 C   0  0  0  0  0  0  0  0  0  0  0  0
   36.9188  -16.1351   36.1558 C   0  0  0  0  0  0  0  0  0  0  0  0
   37.5363  -17.0410   36.9712 O   0  0  0  0  0  0  0  0  0  0  0  0
   36.5583  -14.8418   36.8995 C   0  0  0  0  0  0  0  0  0  0  0  0
   35.9522  -15.1258   38.1180 O   0  0  0  0  0  0  0  0  0  0  0  0
   38.3709  -16.6572   37.3000 H   0  0  0  0  0  0  0  0  0  0  0  0
   34.9960  -14.8699   38.1200 H   0  0  0  0  0  0  0  0  0  0  0  0
   32.7351   -9.3703   38.0353 N   0  0  0  0  0  0  0  0  0  0  0  0
   33.7456   -9.9670   37.2268 C   0  0  0  0  0  0  0  0  0  0  0  0
   34.6045   -9.2453   36.5046 N   0  0  0  0  0  0  0  0  0  0  0  0
   35.5419   -9.8526   35.7562 C   0  0  0  0  0  0  0  0  0  0  0  0
   35.6318  -11.2049   35.7216 N   0  0  0  0  0  0  0  0  0  0  0  0
   34.8029  -11.9737   36.4208 C   0  0  0  0  0  0  0  0  0  0  0  0
   34.6851  -13.3040   36.5552 N   0  0  0  0  0  0  0  0  0  0  0  0
   33.6601  -13.5198   37.3987 C   0  0  0  0  0  0  0  0  0  0  0  0
   33.1397  -12.3254   37.7894 N   0  0  0  0  0  0  0  0  0  0  0  0
   33.8402  -11.3595   37.1896 C   0  0  0  0  0  0  0  0  0  0  0  0
   31.7204   -9.5632   37.8516 H   0  0  0  0  0  0  0  0  0  0  0  0
   33.0617   -8.7441   38.8033 H   0  0  0  0  0  0  0  0  0  0  0  0
   34.9340  -17.6392   36.4551 C   0  0  0  0  0  0  0  0  0  0  0  0
   35.0636  -18.8931   35.9228 O   0  0  0  0  0  0  0  0  0  0  0  0
   35.2173  -20.0093   37.1636 P   0  0  0  0  0  0  0  0  0  0  0  0
   35.9643  -21.4420   36.6280 O   0  0  0  0  0  0  0  0  0  0  0  0
   36.1243  -19.4550   38.2656 O   0  0  0  0  0  0  0  0  0  0  0  0
   36.1977  -21.3942   35.6732 H   0  0  0  0  0  0  0  0  0  0  0  0
   33.7678  -20.4246   37.8784 O   0  0  0  0  0  0  0  0  0  0  0  0
   33.8261  -21.8432   38.7548 P   0  0  0  0  0  0  0  0  0  0  0  0
   35.3500  -21.8999   39.5307 O   0  0  0  0  0  0  0  0  0  0  0  0
   32.7944  -21.8989   39.8631 O   0  0  0  0  0  0  0  0  0  0  0  0
   35.9666  -21.2243   39.1696 H   0  0  0  0  0  0  0  0  0  0  0  0
   33.7452  -23.2194   37.7711 O   0  0  0  0  0  0  0  0  0  0  0  0
   32.5318  -22.9112   36.6089 P   0  0  0  0  0  0  0  0  0  0  0  0
   31.3644  -21.8530   37.2231 O   0  0  0  0  0  0  0  0  0  0  0  0
   33.1552  -22.2601   35.2059 O   0  0  0  0  0  0  0  0  0  0  0  0
   31.8124  -24.2046   36.2498 O   0  0  0  0  0  0  0  0  0  0  0  0
   31.2211  -22.1112   38.1716 H   0  0  0  0  0  0  0  0  0  0  0  0
   33.6301  -22.8978   34.6288 H   0  0  0  0  0  0  0  0  0  0  0  0
 10 11  1  0  0  0
 11 12  2  0  0  0
 12 13  1  0  0  0
 13 14  2  0  0  0
 14 15  1  0  0  0
 15 16  1  0  0  0
 16 17  1  0  0  0
 17 18  2  0  0  0
 18 19  1  0  0  0
 16  1  1  0  0  0
  1  2  1  0  0  0
  2  3  1  0  0  0
  3 22  1  0  0  0
 22 23  1  0  0  0
 23 24  1  0  0  0
 24 25  1  0  0  0
 24 26  2  0  0  0
 24 28  1  0  0  0
 28 29  1  0  0  0
 29 30  1  0  0  0
 29 31  2  0  0  0
 29 33  1  0  0  0
 33 34  1  0  0  0
 34 35  1  0  0  0
 34 36  1  0  0  0
 34 37  2  0  0  0
  3  4  1  0  0  0
  4  5  1  0  0  0
  4  6  1  0  0  0
  6  7  1  0  0  0
 19 11  1  0  0  0
  6  1  1  0  0  0
 19 15  2  0  0  0
 10 20  1  0  0  0
 10 21  1  0  0  0
 25 27  1  0  0  0
 30 32  1  0  0  0
 35 38  1  0  0  0
 36 39  1  0  0  0
  5  8  1  0  0  0
  7  9  1  0  0  0
M  END
> <minimizedAffinity>
-5.81920

> <CNNscore>
0.2665938437

> <CNNaffinity>
4.7638959885

> <CNN_VS>
1.2700253725

> <CNNaffinity_variance>
0.1680610925

$$$$
[H]O[C@]1([H])[C@]([H])(n2c([H])nc3c(N([H])[H])nc([H])nc32)O[C@]([H])(C([H])([H])OP(=O)(O[H])OP(=O)(O[H])OP(=O)(O[H])O[H])[C@]1([H])O[H]


 39 41  0  0  0  0  0  0  0  0999 V2000
   35.2892  -17.9113   35.7706 C   0  0  0  0  0  0  0  0  0  0  0  0
   36.2769  -18.3102   36.6303 O   0  0  0  0  0  0  0  0  0  0  0  0
   36.9814  -19.3457   36.0648 C   0  0  0  0  0  0  0  0  0  0  0  0
   36.5226  -19.5334   34.6590 C   0  0  0  0  0  0  0  0  0  0  0  0
   37.5072  -19.8293   33.7592 O   0  0  0  0  0  0  0  0  0  0  0  0
   35.8724  -18.1723   34.3752 C   0  0  0  0  0  0  0  0  0  0  0  0
   36.8402  -17.2021   34.1410 O   0  0  0  0  0  0  0  0  0  0  0  0
   37.1185  -19.8781   32.8656 H   0  0  0  0  0  0  0  0  0  0  0  0
   36.8752  -16.5356   34.8719 H   0  0  0  0  0  0  0  0  0  0  0  0
   34.5293  -12.0022   36.7644 N   0  0  0  0  0  0  0  0  0  0  0  0
   35.3608  -13.1583   36.8191 C   0  0  0  0  0  0  0  0  0  0  0  0
   36.6109  -13.1205   37.2836 N   0  0  0  0  0  0  0  0  0  0  0  0
   37.3584  -14.2376   37.3161 C   0  0  0  0  0  0  0  0  0  0  0  0
   36.8576  -15.4192   36.8792 N   0  0  0  0  0  0  0  0  0  0  0  0
   35.6190  -15.5157   36.4064 C   0  0  0  0  0  0  0  0  0  0  0  0
   34.9027  -16.5433   35.9239 N   0  0  0  0  0  0  0  0  0  0  0  0
   33.6963  -16.0524   35.5891 C   0  0  0  0  0  0  0  0  0  0  0  0
   33.6607  -14.7205   35.8626 N   0  0  0  0  0  0  0  0  0  0  0  0
   34.8472  -14.3764   36.3697 C   0  0  0  0  0  0  0  0  0  0  0  0
   34.1572  -11.6543   35.8474 H   0  0  0  0  0  0  0  0  0  0  0  0
   34.3196  -11.5353   37.6736 H   0  0  0  0  0  0  0  0  0  0  0  0
   38.4517  -19.0340   36.1824 C   0  0  0  0  0  0  0  0  0  0  0  0
   39.2742  -20.0556   35.7923 O   0  0  0  0  0  0  0  0  0  0  0  0
   39.8926  -20.8192   37.1502 P   0  0  0  0  0  0  0  0  0  0  0  0
   40.1976  -22.4679   36.8570 O   0  0  0  0  0  0  0  0  0  0  0  0
   41.2435  -20.2085   37.5325 O   0  0  0  0  0  0  0  0  0  0  0  0
   39.9704  -22.7202   35.9333 H   0  0  0  0  0  0  0  0  0  0  0  0
   38.9045  -20.7124   38.4907 O   0  0  0  0  0  0  0  0  0  0  0  0
   37.9216  -22.0417   38.7160 P   0  0  0  0  0  0  0  0  0  0  0  0
   38.9120  -23.3168   39.2825 O   0  0  0  0  0  0  0  0  0  0  0  0
   36.8697  -21.8275   39.7854 O   0  0  0  0  0  0  0  0  0  0  0  0
   39.8673  -23.1091   39.1762 H   0  0  0  0  0  0  0  0  0  0  0  0
   37.2264  -22.5890   37.2720 O   0  0  0  0  0  0  0  0  0  0  0  0
   37.0513  -24.2808   37.4316 P   0  0  0  0  0  0  0  0  0  0  0  0
   38.5234  -25.0670   37.1587 O   0  0  0  0  0  0  0  0  0  0  0  0
   36.4870  -24.7154   38.9395 O   0  0  0  0  0  0  0  0  0  0  0  0
   36.0697  -24.8044   36.3916 O   0  0  0  0  0  0  0  0  0  0  0  0
   38.9642  -24.5877   36.4086 H   0  0  0  0  0  0  0  0  0  0  0  0
   35.5317  -24.5420   39.0900 H   0  0  0  0  0  0  0  0  0  0  0  0
 10 11  1  0  0  0
 11 12  2  0  0  0
 12 13  1  0  0  0
 13 14  2  0  0  0
 14 15  1  0  0  0
 15 16  1  0  0  0
 16 17  1  0  0  0
 17 18  2  0  0  0
 18 19  1  0  0  0
 16  1  1  0  0  0
  1  2  1  0  0  0
  2  3  1  0  0  0
  3 22  1  0  0  0
 22 23  1  0  0  0
 23 24  1  0  0  0
 24 25  1  0  0  0
 24 26  2  0  0  0
 24 28  1  0  0  0
 28 29  1  0  0  0
 29 30  1  0  0  0
 29 31  2  0  0  0
 29 33  1  0  0  0
 33 34  1  0  0  0
 34 35  1  0  0  0
 34 36  1  0  0  0
 34 37  2  0  0  0
  3  4  1  0  0  0
  4  5  1  0  0  0
  4  6  1  0  0  0
  6  7  1  0  0  0
 19 11  1  0  0  0
  6  1  1  0  0  0
 19 15  2  0  0  0
 10 20  1  0  0  0
 10 21  1  0  0  0
 25 27  1  0  0  0
 30 32  1  0  0  0
 35 38  1  0  0  0
 36 39  1  0  0  0
  5  8  1  0  0  0
  7  9  1  0  0  0
M  END
> <minimizedAffinity>
-5.24023

> <CNNscore>
0.2558935285

> <CNNaffinity>
4.5252962112

> <CNN_VS>
1.1579940319

> <CNNaffinity_variance>
0.0880734324

$$$$
[H]O[C@]1([H])[C@]([H])(n2c([H])nc3c(N([H])[H])nc([H])nc32)O[C@]([H])(C([H])([H])OP(=O)(O[H])OP(=O)(O[H])OP(=O)(O[H])O[H])[C@]1([H])O[H]


 39 41  0  0  0  0  0  0  0  0999 V2000
   33.7272  -18.0282   35.4405 C   0  0  0  0  0  0  0  0  0  0  0  0
   33.2987  -19.0284   36.2711 O   0  0  0  0  0  0  0  0  0  0  0  0
   32.6939  -20.0114   35.5252 C   0  0  0  0  0  0  0  0  0  0  0  0
   32.8835  -19.7076   34.0782 C   0  0  0  0  0  0  0  0  0  0  0  0
   33.1300  -20.7907   33.2827 O   0  0  0  0  0  0  0  0  0  0  0  0
   34.0796  -18.7471   34.1312 C   0  0  0  0  0  0  0  0  0  0  0  0
   35.2632  -19.4442   34.3451 O   0  0  0  0  0  0  0  0  0  0  0  0
   33.2934  -20.4859   32.3704 H   0  0  0  0  0  0  0  0  0  0  0  0
   35.6408  -19.2588   35.2411 H   0  0  0  0  0  0  0  0  0  0  0  0
   37.8984  -14.1542   37.4593 N   0  0  0  0  0  0  0  0  0  0  0  0
   36.5912  -14.3902   36.9431 C   0  0  0  0  0  0  0  0  0  0  0  0
   35.7153  -13.4060   36.7332 N   0  0  0  0  0  0  0  0  0  0  0  0
   34.4924  -13.6768   36.2444 C   0  0  0  0  0  0  0  0  0  0  0  0
   34.1278  -14.9505   35.9565 N   0  0  0  0  0  0  0  0  0  0  0  0
   34.9595  -15.9701   36.1456 C   0  0  0  0  0  0  0  0  0  0  0  0
   34.8444  -17.2923   35.9452 N   0  0  0  0  0  0  0  0  0  0  0  0
   36.0132  -17.8445   36.3159 C   0  0  0  0  0  0  0  0  0  0  0  0
   36.8558  -16.8675   36.7469 N   0  0  0  0  0  0  0  0  0  0  0  0
   36.2135  -15.7011   36.6459 C   0  0  0  0  0  0  0  0  0  0  0  0
   38.2002  -14.5839   38.3674 H   0  0  0  0  0  0  0  0  0  0  0  0
   38.5211  -13.5410   36.8893 H   0  0  0  0  0  0  0  0  0  0  0  0
   33.2702  -21.3404   35.9425 C   0  0  0  0  0  0  0  0  0  0  0  0
   32.6300  -21.9206   37.0037 O   0  0  0  0  0  0  0  0  0  0  0  0
   33.5282  -23.2273   37.5465 P   0  0  0  0  0  0  0  0  0  0  0  0
   34.5679  -23.8189   36.3355 O   0  0  0  0  0  0  0  0  0  0  0  0
   34.4372  -22.8018   38.7028 O   0  0  0  0  0  0  0  0  0  0  0  0
   34.4878  -23.2997   35.5034 H   0  0  0  0  0  0  0  0  0  0  0  0
   32.5996  -24.5024   38.0910 O   0  0  0  0  0  0  0  0  0  0  0  0
   30.9889  -24.1243   38.3069 P   0  0  0  0  0  0  0  0  0  0  0  0
   30.2520  -25.4601   39.0817 O   0  0  0  0  0  0  0  0  0  0  0  0
   30.7755  -22.9409   39.2289 O   0  0  0  0  0  0  0  0  0  0  0  0
   30.8334  -26.2530   39.0692 H   0  0  0  0  0  0  0  0  0  0  0  0
   30.1673  -23.9162   36.8407 O   0  0  0  0  0  0  0  0  0  0  0  0
   28.9829  -22.7167   37.1173 P   0  0  0  0  0  0  0  0  0  0  0  0
   28.0756  -23.0736   38.4992 O   0  0  0  0  0  0  0  0  0  0  0  0
   29.6530  -21.2003   37.2973 O   0  0  0  0  0  0  0  0  0  0  0  0
   28.0083  -22.6661   35.9482 O   0  0  0  0  0  0  0  0  0  0  0  0
   27.9305  -24.0562   38.4951 H   0  0  0  0  0  0  0  0  0  0  0  0
   29.9659  -20.7843   36.4640 H   0  0  0  0  0  0  0  0  0  0  0  0
 10 11  1  0  0  0
 11 12  2  0  0  0
 12 13  1  0  0  0
 13 14  2  0  0  0
 14 15  1  0  0  0
 15 16  1  0  0  0
 16 17  1  0  0  0
 17 18  2  0  0  0
 18 19  1  0  0  0
 16  1  1  0  0  0
  1  2  1  0  0  0
  2  3  1  0  0  0
  3 22  1  0  0  0
 22 23  1  0  0  0
 23 24  1  0  0  0
 24 25  1  0  0  0
 24 26  2  0  0  0
 24 28  1  0  0  0
 28 29  1  0  0  0
 29 30  1  0  0  0
 29 31  2  0  0  0
 29 33  1  0  0  0
 33 34  1  0  0  0
 34 35  1  0  0  0
 34 36  1  0  0  0
 34 37  2  0  0  0
  3  4  1  0  0  0
  4  5  1  0  0  0
  4  6  1  0  0  0
  6  7  1  0  0  0
 19 11  1  0  0  0
  6  1  1  0  0  0
 19 15  2  0  0  0
 10 20  1  0  0  0
 10 21  1  0  0  0
 25 27  1  0  0  0
 30 32  1  0  0  0
 35 38  1  0  0  0
 36 39  1  0  0  0
  5  8  1  0  0  0
  7  9  1  0  0  0
M  END
> <minimizedAffinity>
-6.32130

> <CNNscore>
0.2383213639

> <CNNaffinity>
4.3908681870

> <CNN_VS>
1.0464377403

> <CNNaffinity_variance>
0.2425282001

$$$$
[H]O[C@]1([H])[C@]([H])(n2c([H])nc3c(N([H])[H])nc([H])nc32)O[C@]([H])(C([H])([H])OP(=O)(O[H])OP(=O)(O[H])OP(=O)(O[H])O[H])[C@]1([H])O[H]


 39 41  0  0  0  0  0  0  0  0999 V2000
   33.8345  -18.1835   34.3934 C   0  0  0  0  0  0  0  0  0  0  0  0
   32.5045  -17.9877   34.6513 O   0  0  0  0  0  0  0  0  0  0  0  0
   31.7832  -19.0439   34.1488 C   0  0  0  0  0  0  0  0  0  0  0  0
   32.7287  -20.0904   33.6661 C   0  0  0  0  0  0  0  0  0  0  0  0
   32.3492  -21.3788   33.9162 O   0  0  0  0  0  0  0  0  0  0  0  0
   34.0068  -19.7082   34.4253 C   0  0  0  0  0  0  0  0  0  0  0  0
   33.9293  -20.1077   35.7547 O   0  0  0  0  0  0  0  0  0  0  0  0
   33.0533  -21.9831   33.6145 H   0  0  0  0  0  0  0  0  0  0  0  0
   33.8637  -19.3327   36.3668 H   0  0  0  0  0  0  0  0  0  0  0  0
   36.9107  -14.7566   38.3019 N   0  0  0  0  0  0  0  0  0  0  0  0
   35.7856  -14.9311   37.4447 C   0  0  0  0  0  0  0  0  0  0  0  0
   34.8438  -13.9974   37.2995 N   0  0  0  0  0  0  0  0  0  0  0  0
   33.7996  -14.2065   36.4788 C   0  0  0  0  0  0  0  0  0  0  0  0
   33.6847  -15.3660   35.7857 N   0  0  0  0  0  0  0  0  0  0  0  0
   34.5929  -16.3308   35.8914 C   0  0  0  0  0  0  0  0  0  0  0  0
   34.7080  -17.5431   35.3268 N   0  0  0  0  0  0  0  0  0  0  0  0
   35.8396  -18.0891   35.8065 C   0  0  0  0  0  0  0  0  0  0  0  0
   36.4290  -17.2181   36.6691 N   0  0  0  0  0  0  0  0  0  0  0  0
   35.6651  -16.1243   36.7299 C   0  0  0  0  0  0  0  0  0  0  0  0
   37.0739  -15.4068   39.1087 H   0  0  0  0  0  0  0  0  0  0  0  0
   37.5464  -13.9594   38.0805 H   0  0  0  0  0  0  0  0  0  0  0  0
   30.8464  -19.5287   35.2258 C   0  0  0  0  0  0  0  0  0  0  0  0
   31.4494  -20.2827   36.1955 O   0  0  0  0  0  0  0  0  0  0  0  0
   30.4984  -21.6220   36.5284 P   0  0  0  0  0  0  0  0  0  0  0  0
   29.4191  -21.3208   37.8097 O   0  0  0  0  0  0  0  0  0  0  0  0
   29.6229  -21.9639   35.3198 O   0  0  0  0  0  0  0  0  0  0  0  0
   29.5136  -20.4043   38.1556 H   0  0  0  0  0  0  0  0  0  0  0  0
   31.3736  -22.9911   36.9081 O   0  0  0  0  0  0  0  0  0  0  0  0
   32.2226  -22.8775   38.3399 P   0  0  0  0  0  0  0  0  0  0  0  0
   33.0475  -21.3784   38.3249 O   0  0  0  0  0  0  0  0  0  0  0  0
   31.3257  -22.8448   39.5607 O   0  0  0  0  0  0  0  0  0  0  0  0
   33.0422  -20.9701   37.4304 H   0  0  0  0  0  0  0  0  0  0  0  0
   33.4149  -24.0714   38.4858 O   0  0  0  0  0  0  0  0  0  0  0  0
   34.2211  -24.1347   36.9811 P   0  0  0  0  0  0  0  0  0  0  0  0
   33.7683  -25.5134   36.1128 O   0  0  0  0  0  0  0  0  0  0  0  0
   33.9118  -22.7901   36.0445 O   0  0  0  0  0  0  0  0  0  0  0  0
   35.7259  -24.2222   37.1985 O   0  0  0  0  0  0  0  0  0  0  0  0
   33.6940  -26.2511   36.7738 H   0  0  0  0  0  0  0  0  0  0  0  0
   34.3773  -21.9724   36.3273 H   0  0  0  0  0  0  0  0  0  0  0  0
 10 11  1  0  0  0
 11 12  2  0  0  0
 12 13  1  0  0  0
 13 14  2  0  0  0
 14 15  1  0  0  0
 15 16  1  0  0  0
 16 17  1  0  0  0
 17 18  2  0  0  0
 18 19  1  0  0  0
 16  1  1  0  0  0
  1  2  1  0  0  0
  2  3  1  0  0  0
  3 22  1  0  0  0
 22 23  1  0  0  0
 23 24  1  0  0  0
 24 25  1  0  0  0
 24 26  2  0  0  0
 24 28  1  0  0  0
 28 29  1  0  0  0
 29 30  1  0  0  0
 29 31  2  0  0  0
 29 33  1  0  0  0
 33 34  1  0  0  0
 34 35  1  0  0  0
 34 36  1  0  0  0
 34 37  2  0  0  0
  3  4  1  0  0  0
  4  5  1  0  0  0
  4  6  1  0  0  0
  6  7  1  0  0  0
 19 11  1  0  0  0
  6  1  1  0  0  0
 19 15  2  0  0  0
 10 20  1  0  0  0
 10 21  1  0  0  0
 25 27  1  0  0  0
 30 32  1  0  0  0
 35 38  1  0  0  0
 36 39  1  0  0  0
  5  8  1  0  0  0
  7  9  1  0  0  0
M  END
> <minimizedAffinity>
-6.70666

> <CNNscore>
0.1989246309

> <CNNaffinity>
4.3438458443

> <CNN_VS>
0.8640979528

> <CNNaffinity_variance>
0.4552837014

$$$$
[H]O[C@]1([H])[C@]([H])(n2c([H])nc3c(N([H])[H])nc([H])nc32)O[C@]([H])(C([H])([H])OP(=O)(O[H])OP(=O)(O[H])OP(=O)(O[H])O[H])[C@]1([H])O[H]


 39 41  0  0  0  0  0  0  0  0999 V2000
   33.6391  -18.3266   34.2175 C   0  0  0  0  0  0  0  0  0  0  0  0
   32.2757  -18.2662   34.1122 O   0  0  0  0  0  0  0  0  0  0  0  0
   31.7914  -19.5029   33.7593 C   0  0  0  0  0  0  0  0  0  0  0  0
   32.9090  -20.4887   33.7930 C   0  0  0  0  0  0  0  0  0  0  0  0
   32.5840  -21.7216   34.2839 O   0  0  0  0  0  0  0  0  0  0  0  0
   33.9203  -19.7599   34.6885 C   0  0  0  0  0  0  0  0  0  0  0  0
   33.5439  -19.8398   36.0245 O   0  0  0  0  0  0  0  0  0  0  0  0
   33.3878  -22.2738   34.3169 H   0  0  0  0  0  0  0  0  0  0  0  0
   33.2644  -18.9592   36.3796 H   0  0  0  0  0  0  0  0  0  0  0  0
   36.7333  -14.8538   38.0708 N   0  0  0  0  0  0  0  0  0  0  0  0
   36.6464  -16.0419   37.2887 C   0  0  0  0  0  0  0  0  0  0  0  0
   37.6189  -16.9548   37.2618 N   0  0  0  0  0  0  0  0  0  0  0  0
   37.4924  -18.0612   36.5084 C   0  0  0  0  0  0  0  0  0  0  0  0
   36.3781  -18.2693   35.7648 N   0  0  0  0  0  0  0  0  0  0  0  0
   35.3778  -17.3940   35.7534 C   0  0  0  0  0  0  0  0  0  0  0  0
   34.1956  -17.3658   35.1183 N   0  0  0  0  0  0  0  0  0  0  0  0
   33.5847  -16.2253   35.4855 C   0  0  0  0  0  0  0  0  0  0  0  0
   34.3851  -15.5436   36.3484 N   0  0  0  0  0  0  0  0  0  0  0  0
   35.4997  -16.2584   36.5221 C   0  0  0  0  0  0  0  0  0  0  0  0
   36.7039  -13.9099   37.6141 H   0  0  0  0  0  0  0  0  0  0  0  0
   36.8260  -14.9803   39.1023 H   0  0  0  0  0  0  0  0  0  0  0  0
   30.6563  -19.8467   34.6900 C   0  0  0  0  0  0  0  0  0  0  0  0
   31.0558  -20.3020   35.9170 O   0  0  0  0  0  0  0  0  0  0  0  0
   30.0752  -21.5796   36.3809 P   0  0  0  0  0  0  0  0  0  0  0  0
   29.3335  -21.2857   37.8845 O   0  0  0  0  0  0  0  0  0  0  0  0
   28.9298  -21.7587   35.3808 O   0  0  0  0  0  0  0  0  0  0  0  0
   29.5885  -20.4080   38.2493 H   0  0  0  0  0  0  0  0  0  0  0  0
   30.8760  -23.0401   36.4824 O   0  0  0  0  0  0  0  0  0  0  0  0
   31.1130  -23.5761   38.0445 P   0  0  0  0  0  0  0  0  0  0  0  0
   29.5750  -23.9561   38.6911 O   0  0  0  0  0  0  0  0  0  0  0  0
   31.9206  -24.8561   38.1166 O   0  0  0  0  0  0  0  0  0  0  0  0
   28.8482  -23.6074   38.1279 H   0  0  0  0  0  0  0  0  0  0  0  0
   31.7662  -22.3806   39.0506 O   0  0  0  0  0  0  0  0  0  0  0  0
   33.4078  -22.2200   38.6061 P   0  0  0  0  0  0  0  0  0  0  0  0
   34.3871  -23.2310   39.5435 O   0  0  0  0  0  0  0  0  0  0  0  0
   33.6617  -22.5756   36.9968 O   0  0  0  0  0  0  0  0  0  0  0  0
   33.8784  -20.7930   38.8539 O   0  0  0  0  0  0  0  0  0  0  0  0
   34.0201  -23.2026   40.4661 H   0  0  0  0  0  0  0  0  0  0  0  0
   33.3614  -21.8835   36.3674 H   0  0  0  0  0  0  0  0  0  0  0  0
 10 11  1  0  0  0
 11 12  2  0  0  0
 12 13  1  0  0  0
 13 14  2  0  0  0
 14 15  1  0  0  0
 15 16  1  0  0  0
 16 17  1  0  0  0
 17 18  2  0  0  0
 18 19  1  0  0  0
 16  1  1  0  0  0
  1  2  1  0  0  0
  2  3  1  0  0  0
  3 22  1  0  0  0
 22 23  1  0  0  0
 23 24  1  0  0  0
 24 25  1  0  0  0
 24 26  2  0  0  0
 24 28  1  0  0  0
 28 29  1  0  0  0
 29 30  1  0  0  0
 29 31  2  0  0  0
 29 33  1  0  0  0
 33 34  1  0  0  0
 34 35  1  0  0  0
 34 36  1  0  0  0
 34 37  2  0  0  0
  3  4  1  0  0  0
  4  5  1  0  0  0
  4  6  1  0  0  0
  6  7  1  0  0  0
 19 11  1  0  0  0
  6  1  1  0  0  0
 19 15  2  0  0  0
 10 20  1  0  0  0
 10 21  1  0  0  0
 25 27  1  0  0  0
 30 32  1  0  0  0
 35 38  1  0  0  0
 36 39  1  0  0  0
  5  8  1  0  0  0
  7  9  1  0  0  0
M  END
> <minimizedAffinity>
-5.75348

> <CNNscore>
0.1965073794

> <CNNaffinity>
4.3304014206

> <CNN_VS>
0.8509558439

> <CNNaffinity_variance>
0.2346379757

$$$$
[H]O[C@]1([H])[C@]([H])(n2c([H])nc3c(N([H])[H])nc([H])nc32)O[C@]([H])(C([H])([H])OP(=O)(O[H])OP(=O)(O[H])OP(=O)(O[H])O[H])[C@]1([H])O[H]


 39 41  0  0  0  0  0  0  0  0999 V2000
   33.9127  -18.0288   34.4104 C   0  0  0  0  0  0  0  0  0  0  0  0
   32.6148  -18.0711   34.8433 O   0  0  0  0  0  0  0  0  0  0  0  0
   31.9797  -19.1478   34.2727 C   0  0  0  0  0  0  0  0  0  0  0  0
   32.9829  -19.9670   33.5347 C   0  0  0  0  0  0  0  0  0  0  0  0
   32.8145  -21.3195   33.6298 O   0  0  0  0  0  0  0  0  0  0  0  0
   34.2885  -19.5008   34.1933 C   0  0  0  0  0  0  0  0  0  0  0  0
   34.4426  -20.0799   35.4478 O   0  0  0  0  0  0  0  0  0  0  0  0
   33.5461  -21.7656   33.1633 H   0  0  0  0  0  0  0  0  0  0  0  0
   34.3569  -19.4115   36.1729 H   0  0  0  0  0  0  0  0  0  0  0  0
   37.0558  -14.6540   38.3109 N   0  0  0  0  0  0  0  0  0  0  0  0
   35.8909  -14.8404   37.5114 C   0  0  0  0  0  0  0  0  0  0  0  0
   34.9003  -13.9477   37.4695 N   0  0  0  0  0  0  0  0  0  0  0  0
   33.8197  -14.1667   36.6999 C   0  0  0  0  0  0  0  0  0  0  0  0
   33.7170  -15.2946   35.9547 N   0  0  0  0  0  0  0  0  0  0  0  0
   34.6732  -16.2179   35.9577 C   0  0  0  0  0  0  0  0  0  0  0  0
   34.8100  -17.3935   35.3246 N   0  0  0  0  0  0  0  0  0  0  0  0
   35.9919  -17.9067   35.7095 C   0  0  0  0  0  0  0  0  0  0  0  0
   36.5911  -17.0519   36.5815 N   0  0  0  0  0  0  0  0  0  0  0  0
   35.7829  -16.0011   36.7431 C   0  0  0  0  0  0  0  0  0  0  0  0
   37.2965  -15.3346   39.0718 H   0  0  0  0  0  0  0  0  0  0  0  0
   37.6399  -13.8166   38.0956 H   0  0  0  0  0  0  0  0  0  0  0  0
   31.2674  -19.9063   35.3636 C   0  0  0  0  0  0  0  0  0  0  0  0
   32.0777  -20.7349   36.0911 O   0  0  0  0  0  0  0  0  0  0  0  0
   31.1328  -21.8146   36.9573 P   0  0  0  0  0  0  0  0  0  0  0  0
   31.8258  -22.1810   38.4682 O   0  0  0  0  0  0  0  0  0  0  0  0
   29.7674  -21.1944   37.2662 O   0  0  0  0  0  0  0  0  0  0  0  0
   32.6724  -21.6983   38.6055 H   0  0  0  0  0  0  0  0  0  0  0  0
   30.8532  -23.2538   36.1604 O   0  0  0  0  0  0  0  0  0  0  0  0
   32.1259  -24.3300   36.2381 P   0  0  0  0  0  0  0  0  0  0  0  0
   33.5254  -23.5025   35.7050 O   0  0  0  0  0  0  0  0  0  0  0  0
   32.4288  -24.7899   37.6497 O   0  0  0  0  0  0  0  0  0  0  0  0
   33.2995  -22.6498   35.2705 H   0  0  0  0  0  0  0  0  0  0  0  0
   31.9287  -25.6474   35.1922 O   0  0  0  0  0  0  0  0  0  0  0  0
   31.1670  -25.0398   33.7891 P   0  0  0  0  0  0  0  0  0  0  0  0
   29.4840  -25.1208   33.9344 O   0  0  0  0  0  0  0  0  0  0  0  0
   31.5986  -23.4603   33.4727 O   0  0  0  0  0  0  0  0  0  0  0  0
   31.5487  -25.8843   32.5807 O   0  0  0  0  0  0  0  0  0  0  0  0
   29.2816  -25.9795   34.3908 H   0  0  0  0  0  0  0  0  0  0  0  0
   32.5024  -23.3437   33.1053 H   0  0  0  0  0  0  0  0  0  0  0  0
 10 11  1  0  0  0
 11 12  2  0  0  0
 12 13  1  0  0  0
 13 14  2  0  0  0
 14 15  1  0  0  0
 15 16  1  0  0  0
 16 17  1  0  0  0
 17 18  2  0  0  0
 18 19  1  0  0  0
 16  1  1  0  0  0
  1  2  1  0  0  0
  2  3  1  0  0  0
  3 22  1  0  0  0
 22 23  1  0  0  0
 23 24  1  0  0  0
 24 25  1  0  0  0
 24 26  2  0  0  0
 24 28  1  0  0  0
 28 29  1  0  0  0
 29 30  1  0  0  0
 29 31  2  0  0  0
 29 33  1  0  0  0
 33 34  1  0  0  0
 34 35  1  0  0  0
 34 36  1  0  0  0
 34 37  2  0  0  0
  3  4  1  0  0  0
  4  5  1  0  0  0
  4  6  1  0  0  0
  6  7  1  0  0  0
 19 11  1  0  0  0
  6  1  1  0  0  0
 19 15  2  0  0  0
 10 20  1  0  0  0
 10 21  1  0  0  0
 25 27  1  0  0  0
 30 32  1  0  0  0
 35 38  1  0  0  0
 36 39  1  0  0  0
  5  8  1  0  0  0
  7  9  1  0  0  0
M  END
> <minimizedAffinity>
-7.01206

> <CNNscore>
0.1855864376

> <CNNaffinity>
4.2254633904

> <CNN_VS>
0.7841886878

> <CNNaffinity_variance>
0.4336146712

$$$$
[H]O[C@]1([H])[C@]([H])(n2c([H])nc3c(N([H])[H])nc([H])nc32)O[C@]([H])(C([H])([H])OP(=O)(O[H])OP(=O)(O[H])OP(=O)(O[H])O[H])[C@]1([H])O[H]


 39 41  0  0  0  0  0  0  0  0999 V2000
   33.7515  -17.8694   34.5765 C   0  0  0  0  0  0  0  0  0  0  0  0
   32.6237  -18.1577   35.2967 O   0  0  0  0  0  0  0  0  0  0  0  0
   32.0024  -19.2546   34.7495 C   0  0  0  0  0  0  0  0  0  0  0  0
   32.8767  -19.8263   33.6861 C   0  0  0  0  0  0  0  0  0  0  0  0
   32.9078  -21.1910   33.6285 O   0  0  0  0  0  0  0  0  0  0  0  0
   34.2391  -19.2343   34.0722 C   0  0  0  0  0  0  0  0  0  0  0  0
   34.7805  -19.9102   35.1599 O   0  0  0  0  0  0  0  0  0  0  0  0
   33.5449  -21.4669   32.9429 H   0  0  0  0  0  0  0  0  0  0  0  0
   34.8011  -19.3427   35.9705 H   0  0  0  0  0  0  0  0  0  0  0  0
   37.3820  -14.3859   37.9182 N   0  0  0  0  0  0  0  0  0  0  0  0
   36.1043  -14.6181   37.3315 C   0  0  0  0  0  0  0  0  0  0  0  0
   35.0846  -13.7700   37.4759 N   0  0  0  0  0  0  0  0  0  0  0  0
   33.8964  -14.0312   36.9034 C   0  0  0  0  0  0  0  0  0  0  0  0
   33.7129  -15.1573   36.1711 N   0  0  0  0  0  0  0  0  0  0  0  0
   34.6932  -16.0374   35.9938 C   0  0  0  0  0  0  0  0  0  0  0  0
   34.7669  -17.2014   35.3295 N   0  0  0  0  0  0  0  0  0  0  0  0
   36.0187  -17.6644   35.4950 C   0  0  0  0  0  0  0  0  0  0  0  0
   36.7243  -16.7899   36.2615 N   0  0  0  0  0  0  0  0  0  0  0  0
   35.9129  -15.7772   36.5768 C   0  0  0  0  0  0  0  0  0  0  0  0
   37.7807  -15.0606   38.6156 H   0  0  0  0  0  0  0  0  0  0  0  0
   37.8835  -13.5220   37.6167 H   0  0  0  0  0  0  0  0  0  0  0  0
   31.6937  -20.2242   35.8618 C   0  0  0  0  0  0  0  0  0  0  0  0
   32.5270  -20.1213   36.9423 O   0  0  0  0  0  0  0  0  0  0  0  0
   33.0533  -21.6499   37.3846 P   0  0  0  0  0  0  0  0  0  0  0  0
   32.3233  -22.1690   38.8320 O   0  0  0  0  0  0  0  0  0  0  0  0
   32.6487  -22.6771   36.3238 O   0  0  0  0  0  0  0  0  0  0  0  0
   31.6989  -21.4954   39.1852 H   0  0  0  0  0  0  0  0  0  0  0  0
   34.7070  -21.7626   37.5767 O   0  0  0  0  0  0  0  0  0  0  0  0
   35.2370  -21.3987   39.1164 P   0  0  0  0  0  0  0  0  0  0  0  0
   34.8028  -22.7093   40.1271 O   0  0  0  0  0  0  0  0  0  0  0  0
   36.7446  -21.2825   39.2131 O   0  0  0  0  0  0  0  0  0  0  0  0
   34.1654  -23.3134   39.6846 H   0  0  0  0  0  0  0  0  0  0  0  0
   34.4732  -20.0316   39.7612 O   0  0  0  0  0  0  0  0  0  0  0  0
   34.3062  -20.3175   41.4370 P   0  0  0  0  0  0  0  0  0  0  0  0
   35.6930  -21.0556   42.0632 O   0  0  0  0  0  0  0  0  0  0  0  0
   34.0195  -18.9131   42.2894 O   0  0  0  0  0  0  0  0  0  0  0  0
   33.1446  -21.2690   41.6910 O   0  0  0  0  0  0  0  0  0  0  0  0
   35.9966  -21.7101   41.3804 H   0  0  0  0  0  0  0  0  0  0  0  0
   33.1101  -18.5524   42.1994 H   0  0  0  0  0  0  0  0  0  0  0  0
 10 11  1  0  0  0
 11 12  2  0  0  0
 12 13  1  0  0  0
 13 14  2  0  0  0
 14 15  1  0  0  0
 15 16  1  0  0  0
 16 17  1  0  0  0
 17 18  2  0  0  0
 18 19  1  0  0  0
 16  1  1  0  0  0
  1  2  1  0  0  0
  2  3  1  0  0  0
  3 22  1  0  0  0
 22 23  1  0  0  0
 23 24  1  0  0  0
 24 25  1  0  0  0
 24 26  2  0  0  0
 24 28  1  0  0  0
 28 29  1  0  0  0
 29 30  1  0  0  0
 29 31  2  0  0  0
 29 33  1  0  0  0
 33 34  1  0  0  0
 34 35  1  0  0  0
 34 36  1  0  0  0
 34 37  2  0  0  0
  3  4  1  0  0  0
  4  5  1  0  0  0
  4  6  1  0  0  0
  6  7  1  0  0  0
 19 11  1  0  0  0
  6  1  1  0  0  0
 19 15  2  0  0  0
 10 20  1  0  0  0
 10 21  1  0  0  0
 25 27  1  0  0  0
 30 32  1  0  0  0
 35 38  1  0  0  0
 36 39  1  0  0  0
  5  8  1  0  0  0
  7  9  1  0  0  0
M  END
> <minimizedAffinity>
-6.82883

> <CNNscore>
0.1723588854

> <CNNaffinity>
4.3626713753

> <CNN_VS>
0.7519451976

> <CNNaffinity_variance>
0.5157852769

$$$$
[H]O[C@]1([H])[C@]([H])(n2c([H])nc3c(N([H])[H])nc([H])nc32)O[C@]([H])(C([H])([H])OP(=O)(O[H])OP(=O)(O[H])OP(=O)(O[H])O[H])[C@]1([H])O[H]


 39 41  0  0  0  0  0  0  0  0999 V2000
   35.6549  -13.2594   36.3723 C   0  0  0  0  0  0  0  0  0  0  0  0
   35.0811  -14.2395   35.6083 O   0  0  0  0  0  0  0  0  0  0  0  0
   35.7804  -15.4113   35.7711 C   0  0  0  0  0  0  0  0  0  0  0  0
   36.7935  -15.2252   36.8487 C   0  0  0  0  0  0  0  0  0  0  0  0
   36.9634  -16.2961   37.6800 O   0  0  0  0  0  0  0  0  0  0  0  0
   36.2209  -14.0075   37.5869 C   0  0  0  0  0  0  0  0  0  0  0  0
   35.1450  -14.3760   38.3866 O   0  0  0  0  0  0  0  0  0  0  0  0
   37.6011  -16.0590   38.3794 H   0  0  0  0  0  0  0  0  0  0  0  0
   34.2912  -14.0127   38.0421 H   0  0  0  0  0  0  0  0  0  0  0  0
   32.3681   -8.3308   37.5507 N   0  0  0  0  0  0  0  0  0  0  0  0
   33.4850   -8.9344   36.9034 C   0  0  0  0  0  0  0  0  0  0  0  0
   34.3351   -8.2400   36.1451 N   0  0  0  0  0  0  0  0  0  0  0  0
   35.3755   -8.8527   35.5538 C   0  0  0  0  0  0  0  0  0  0  0  0
   35.5797  -10.1831   35.7165 N   0  0  0  0  0  0  0  0  0  0  0  0
   34.7652  -10.9244   36.4608 C   0  0  0  0  0  0  0  0  0  0  0  0
   34.7479  -12.2295   36.7737 N   0  0  0  0  0  0  0  0  0  0  0  0
   33.6813  -12.4240   37.5693 C   0  0  0  0  0  0  0  0  0  0  0  0
   33.0345  -11.2415   37.7521 N   0  0  0  0  0  0  0  0  0  0  0  0
   33.6974  -10.3043   37.0696 C   0  0  0  0  0  0  0  0  0  0  0  0
   31.3905   -8.6402   37.3293 H   0  0  0  0  0  0  0  0  0  0  0  0
   32.5803   -7.5792   38.2425 H   0  0  0  0  0  0  0  0  0  0  0  0
   34.7921  -16.5132   36.0569 C   0  0  0  0  0  0  0  0  0  0  0  0
   34.2955  -17.1248   34.9380 O   0  0  0  0  0  0  0  0  0  0  0  0
   35.1083  -18.5691   34.6883 P   0  0  0  0  0  0  0  0  0  0  0  0
   36.2770  -18.4255   33.4592 O   0  0  0  0  0  0  0  0  0  0  0  0
   35.8790  -18.9684   35.9496 O   0  0  0  0  0  0  0  0  0  0  0  0
   36.3017  -17.5149   33.0868 H   0  0  0  0  0  0  0  0  0  0  0  0
   34.1073  -19.8452   34.2958 O   0  0  0  0  0  0  0  0  0  0  0  0
   32.5974  -19.7643   35.0012 P   0  0  0  0  0  0  0  0  0  0  0  0
   31.8656  -18.3110   34.4720 O   0  0  0  0  0  0  0  0  0  0  0  0
   31.6736  -20.8797   34.5555 O   0  0  0  0  0  0  0  0  0  0  0  0
   32.5160  -17.7138   34.0391 H   0  0  0  0  0  0  0  0  0  0  0  0
   32.6728  -19.6677   36.6903 O   0  0  0  0  0  0  0  0  0  0  0  0
   33.1475  -21.2133   37.2414 P   0  0  0  0  0  0  0  0  0  0  0  0
   31.9553  -22.3648   36.9056 O   0  0  0  0  0  0  0  0  0  0  0  0
   34.5809  -21.7144   36.5519 O   0  0  0  0  0  0  0  0  0  0  0  0
   33.3323  -21.1945   38.7529 O   0  0  0  0  0  0  0  0  0  0  0  0
   31.0815  -21.9222   37.0707 H   0  0  0  0  0  0  0  0  0  0  0  0
   35.3859  -21.2753   36.9048 H   0  0  0  0  0  0  0  0  0  0  0  0
 10 11  1  0  0  0
 11 12  2  0  0  0
 12 13  1  0  0  0
 13 14  2  0  0  0
 14 15  1  0  0  0
 15 16  1  0  0  0
 16 17  1  0  0  0
 17 18  2  0  0  0
 18 19  1  0  0  0
 16  1  1  0  0  0
  1  2  1  0  0  0
  2  3  1  0  0  0
  3 22  1  0  0  0
 22 23  1  0  0  0
 23 24  1  0  0  0
 24 25  1  0  0  0
 24 26  2  0  0  0
 24 28  1  0  0  0
 28 29  1  0  0  0
 29 30  1  0  0  0
 29 31  2  0  0  0
 29 33  1  0  0  0
 33 34  1  0  0  0
 34 35  1  0  0  0
 34 36  1  0  0  0
 34 37  2  0  0  0
  3  4  1  0  0  0
  4  5  1  0  0  0
  4  6  1  0  0  0
  6  7  1  0  0  0
 19 11  1  0  0  0
  6  1  1  0  0  0
 19 15  2  0  0  0
 10 20  1  0  0  0
 10 21  1  0  0  0
 25 27  1  0  0  0
 30 32  1  0  0  0
 35 38  1  0  0  0
 36 39  1  0  0  0
  5  8  1  0  0  0
  7  9  1  0  0  0
M  END
> <minimizedAffinity>
-6.56977

> <CNNscore>
0.1564357728

> <CNNaffinity>
4.8386182785

> <CNN_VS>
0.7569329739

> <CNNaffinity_variance>
0.1871736348

$$$$
[H]c1c([H])c([H])c(N2C([H])([H])C([H])([H])N(c3nc4c([H])c([H])c([H])c([H])c4c(=O)n3[H])C([H])([H])C2([H])[H])c(OC([H])([H])[H])c1[H]


 26 29  0  0  0  0  0  0  0  0999 V2000
   32.2757  -20.8796   35.3254 N   0  0  0  0  0  0  0  0  0  0  0  0
   33.5612  -20.8794   35.9467 C   0  0  0  0  0  0  0  0  0  0  0  0
   33.7985  -19.5419   36.6521 C   0  0  0  0  0  0  0  0  0  0  0  0
   33.5911  -18.4434   35.7295 N   0  0  0  0  0  0  0  0  0  0  0  0
   32.8472  -18.7062   34.5141 C   0  0  0  0  0  0  0  0  0  0  0  0
   31.7036  -19.6194   34.8385 C   0  0  0  0  0  0  0  0  0  0  0  0
   34.0876  -17.1339   35.9744 C   0  0  0  0  0  0  0  0  0  0  0  0
   35.3005  -16.9352   36.5214 N   0  0  0  0  0  0  0  0  0  0  0  0
   35.8131  -15.7176   36.7719 C   0  0  0  0  0  0  0  0  0  0  0  0
   37.0505  -15.5281   37.3298 C   0  0  0  0  0  0  0  0  0  0  0  0
   37.5415  -14.2528   37.5720 C   0  0  0  0  0  0  0  0  0  0  0  0
   36.8101  -13.1402   37.2632 C   0  0  0  0  0  0  0  0  0  0  0  0
   35.5580  -13.3276   36.6986 C   0  0  0  0  0  0  0  0  0  0  0  0
   35.0511  -14.5884   36.4497 C   0  0  0  0  0  0  0  0  0  0  0  0
   33.8109  -14.7919   35.8904 C   0  0  0  0  0  0  0  0  0  0  0  0
   33.0999  -13.8050   35.5887 O   0  0  0  0  0  0  0  0  0  0  0  0
   33.3555  -16.0335   35.6652 N   0  0  0  0  0  0  0  0  0  0  0  0
   32.3966  -16.1933   35.2325 H   0  0  0  0  0  0  0  0  0  0  0  0
   30.2958  -22.1298   35.8367 C   0  0  0  0  0  0  0  0  0  0  0  0
   29.4773  -23.2415   35.6822 C   0  0  0  0  0  0  0  0  0  0  0  0
   29.7985  -24.2763   34.8296 C   0  0  0  0  0  0  0  0  0  0  0  0
   30.9784  -24.1696   34.1240 C   0  0  0  0  0  0  0  0  0  0  0  0
   31.7988  -23.0606   34.2759 C   0  0  0  0  0  0  0  0  0  0  0  0
   31.4714  -22.0289   35.1306 C   0  0  0  0  0  0  0  0  0  0  0  0
   28.5725  -20.7938   36.8305 C   0  0  0  0  0  0  0  0  0  0  0  0
   29.9423  -21.1099   36.6999 O   0  0  0  0  0  0  0  0  0  0  0  0
 25 26  1  0  0  0
 26 19  1  0  0  0
 19 20  2  0  0  0
 20 21  1  0  0  0
 21 22  2  0  0  0
 22 23  1  0  0  0
 23 24  2  0  0  0
 24  1  1  0  0  0
  1  2  1  0  0  0
  2  3  1  0  0  0
  3  4  1  0  0  0
  4  5  1  0  0  0
  5  6  1  0  0  0
  4  7  1  0  0  0
  7  8  2  0  0  0
  8  9  1  0  0  0
  9 10  2  0  0  0
 10 11  1  0  0  0
 11 12  2  0  0  0
 12 13  1  0  0  0
 13 14  2  0  0  0
 14 15  1  0  0  0
 15 16  2  0  0  0
 15 17  1  0  0  0
 24 19  1  0  0  0
  6  1  1  0  0  0
 17  7  1  0  0  0
 14  9  1  0  0  0
 17 18  1  0  0  0
M  END
> <minimizedAffinity>
-7.60781

> <CNNscore>
0.6758111715

> <CNNaffinity>
5.0775403976

> <CNN_VS>
3.4314584732

> <CNNaffinity_variance>
0.3319250643

$$$$
[H]c1c([H])c([H])c(N2C([H])([H])C([H])([H])N(c3nc4c([H])c([H])c([H])c([H])c4c(=O)n3[H])C([H])([H])C2([H])[H])c(OC([H])([H])[H])c1[H]


 26 29  0  0  0  0  0  0  0  0999 V2000
   31.8141  -21.5039   35.0125 N   0  0  0  0  0  0  0  0  0  0  0  0
   31.3483  -20.2628   34.4822 C   0  0  0  0  0  0  0  0  0  0  0  0
   32.5187  -19.2877   34.3340 C   0  0  0  0  0  0  0  0  0  0  0  0
   33.2290  -19.1603   35.5910 N   0  0  0  0  0  0  0  0  0  0  0  0
   33.0273  -20.1864   36.5940 C   0  0  0  0  0  0  0  0  0  0  0  0
   32.9726  -21.5205   35.9126 C   0  0  0  0  0  0  0  0  0  0  0  0
   34.1051  -18.0757   35.8686 C   0  0  0  0  0  0  0  0  0  0  0  0
   33.6750  -16.8014   35.8371 N   0  0  0  0  0  0  0  0  0  0  0  0
   34.4644  -15.7432   36.0920 C   0  0  0  0  0  0  0  0  0  0  0  0
   34.0141  -14.4493   36.0566 C   0  0  0  0  0  0  0  0  0  0  0  0
   34.8637  -13.3855   36.3263 C   0  0  0  0  0  0  0  0  0  0  0  0
   36.1791  -13.5889   36.6369 C   0  0  0  0  0  0  0  0  0  0  0  0
   36.6384  -14.8963   36.6740 C   0  0  0  0  0  0  0  0  0  0  0  0
   35.8092  -15.9689   36.4086 C   0  0  0  0  0  0  0  0  0  0  0  0
   36.2488  -17.2719   36.4408 C   0  0  0  0  0  0  0  0  0  0  0  0
   37.4464  -17.5130   36.7204 O   0  0  0  0  0  0  0  0  0  0  0  0
   35.4105  -18.2853   36.1764 N   0  0  0  0  0  0  0  0  0  0  0  0
   35.7484  -19.2940   36.2010 H   0  0  0  0  0  0  0  0  0  0  0  0
   30.1930  -23.1942   35.5217 C   0  0  0  0  0  0  0  0  0  0  0  0
   29.6008  -24.4297   35.2922 C   0  0  0  0  0  0  0  0  0  0  0  0
   30.0253  -25.2711   34.2859 C   0  0  0  0  0  0  0  0  0  0  0  0
   31.0742  -24.8388   33.5021 C   0  0  0  0  0  0  0  0  0  0  0  0
   31.6684  -23.6052   33.7285 C   0  0  0  0  0  0  0  0  0  0  0  0
   31.2389  -22.7684   34.7370 C   0  0  0  0  0  0  0  0  0  0  0  0
   28.4690  -21.7793   36.3985 C   0  0  0  0  0  0  0  0  0  0  0  0
   29.7413  -22.3752   36.5393 O   0  0  0  0  0  0  0  0  0  0  0  0
 25 26  1  0  0  0
 26 19  1  0  0  0
 19 20  2  0  0  0
 20 21  1  0  0  0
 21 22  2  0  0  0
 22 23  1  0  0  0
 23 24  2  0  0  0
 24  1  1  0  0  0
  1  2  1  0  0  0
  2  3  1  0  0  0
  3  4  1  0  0  0
  4  5  1  0  0  0
  5  6  1  0  0  0
  4  7  1  0  0  0
  7  8  2  0  0  0
  8  9  1  0  0  0
  9 10  2  0  0  0
 10 11  1  0  0  0
 11 12  2  0  0  0
 12 13  1  0  0  0
 13 14  2  0  0  0
 14 15  1  0  0  0
 15 16  2  0  0  0
 15 17  1  0  0  0
 24 19  1  0  0  0
  6  1  1  0  0  0
 17  7  1  0  0  0
 14  9  1  0  0  0
 17 18  1  0  0  0
M  END
> <minimizedAffinity>
-6.63436

> <CNNscore>
0.4078555107

> <CNNaffinity>
4.6865282059

> <CNN_VS>
1.9114263058

> <CNNaffinity_variance>
0.4503618777

$$$$
[H]c1c([H])c([H])c(N2C([H])([H])C([H])([H])N(c3nc4c([H])c([H])c([H])c([H])c4c(=O)n3[H])C([H])([H])C2([H])[H])c(OC([H])([H])[H])c1[H]


 26 29  0  0  0  0  0  0  0  0999 V2000
   34.8266  -12.4800   36.4384 N   0  0  0  0  0  0  0  0  0  0  0  0
   35.9564  -13.2606   36.8296 C   0  0  0  0  0  0  0  0  0  0  0  0
   35.9305  -14.6112   36.1101 C   0  0  0  0  0  0  0  0  0  0  0  0
   34.6576  -15.2706   36.3243 N   0  0  0  0  0  0  0  0  0  0  0  0
   33.5417  -14.4655   36.7783 C   0  0  0  0  0  0  0  0  0  0  0  0
   33.5761  -13.1489   36.0624 C   0  0  0  0  0  0  0  0  0  0  0  0
   34.4707  -16.6631   36.1069 C   0  0  0  0  0  0  0  0  0  0  0  0
   33.4155  -17.1290   35.4146 N   0  0  0  0  0  0  0  0  0  0  0  0
   33.1958  -18.4352   35.1829 C   0  0  0  0  0  0  0  0  0  0  0  0
   32.1166  -18.8975   34.4760 C   0  0  0  0  0  0  0  0  0  0  0  0
   31.9277  -20.2554   34.2601 C   0  0  0  0  0  0  0  0  0  0  0  0
   32.8099  -21.1804   34.7439 C   0  0  0  0  0  0  0  0  0  0  0  0
   33.9030  -20.7168   35.4594 C   0  0  0  0  0  0  0  0  0  0  0  0
   34.1091  -19.3696   35.6854 C   0  0  0  0  0  0  0  0  0  0  0  0
   35.1879  -18.8929   36.3933 C   0  0  0  0  0  0  0  0  0  0  0  0
   36.0266  -19.6996   36.8584 O   0  0  0  0  0  0  0  0  0  0  0  0
   35.3511  -17.5761   36.5905 N   0  0  0  0  0  0  0  0  0  0  0  0
   36.1850  -17.2052   37.1376 H   0  0  0  0  0  0  0  0  0  0  0  0
   33.8754  -10.3944   37.1381 C   0  0  0  0  0  0  0  0  0  0  0  0
   33.8114   -9.0071   37.1054 C   0  0  0  0  0  0  0  0  0  0  0  0
   34.6587   -8.2518   36.3229 C   0  0  0  0  0  0  0  0  0  0  0  0
   35.5870   -8.9300   35.5615 C   0  0  0  0  0  0  0  0  0  0  0  0
   35.6539  -10.3158   35.5914 C   0  0  0  0  0  0  0  0  0  0  0  0
   34.8030  -11.0653   36.3764 C   0  0  0  0  0  0  0  0  0  0  0  0
   31.6232  -10.9220   37.7639 C   0  0  0  0  0  0  0  0  0  0  0  0
   33.0105  -11.1204   37.9352 O   0  0  0  0  0  0  0  0  0  0  0  0
 25 26  1  0  0  0
 26 19  1  0  0  0
 19 20  2  0  0  0
 20 21  1  0  0  0
 21 22  2  0  0  0
 22 23  1  0  0  0
 23 24  2  0  0  0
 24  1  1  0  0  0
  1  2  1  0  0  0
  2  3  1  0  0  0
  3  4  1  0  0  0
  4  5  1  0  0  0
  5  6  1  0  0  0
  4  7  1  0  0  0
  7  8  2  0  0  0
  8  9  1  0  0  0
  9 10  2  0  0  0
 10 11  1  0  0  0
 11 12  2  0  0  0
 12 13  1  0  0  0
 13 14  2  0  0  0
 14 15  1  0  0  0
 15 16  2  0  0  0
 15 17  1  0  0  0
 24 19  1  0  0  0
  6  1  1  0  0  0
 17  7  1  0  0  0
 14  9  1  0  0  0
 17 18  1  0  0  0
M  END
> <minimizedAffinity>
-6.67160

> <CNNscore>
0.3791185021

> <CNNaffinity>
5.6618995667

> <CNN_VS>
2.1465308666

> <CNNaffinity_variance>
0.1121523529

$$$$
[H]c1c([H])c([H])c(N2C([H])([H])C([H])([H])N(c3nc4c([H])c([H])c([H])c([H])c4c(=O)n3[H])C([H])([H])C2([H])[H])c(OC([H])([H])[H])c1[H]


 26 29  0  0  0  0  0  0  0  0999 V2000
   35.1804  -21.8291   37.5110 N   0  0  0  0  0  0  0  0  0  0  0  0
   36.3023  -21.1548   38.0815 C   0  0  0  0  0  0  0  0  0  0  0  0
   35.9649  -19.6784   38.3033 C   0  0  0  0  0  0  0  0  0  0  0  0
   35.4840  -19.0824   37.0727 N   0  0  0  0  0  0  0  0  0  0  0  0
   35.0251  -19.9675   36.0214 C   0  0  0  0  0  0  0  0  0  0  0  0
   34.2545  -21.0931   36.6429 C   0  0  0  0  0  0  0  0  0  0  0  0
   35.4488  -17.6762   36.8660 C   0  0  0  0  0  0  0  0  0  0  0  0
   36.3899  -16.8676   37.3860 N   0  0  0  0  0  0  0  0  0  0  0  0
   36.3996  -15.5335   37.2184 C   0  0  0  0  0  0  0  0  0  0  0  0
   37.3641  -14.7201   37.7535 C   0  0  0  0  0  0  0  0  0  0  0  0
   37.3361  -13.3467   37.5560 C   0  0  0  0  0  0  0  0  0  0  0  0
   36.3467  -12.7554   36.8213 C   0  0  0  0  0  0  0  0  0  0  0  0
   35.3693  -13.5747   36.2782 C   0  0  0  0  0  0  0  0  0  0  0  0
   35.3791  -14.9437   36.4632 C   0  0  0  0  0  0  0  0  0  0  0  0
   34.4169  -15.7707   35.9316 C   0  0  0  0  0  0  0  0  0  0  0  0
   33.4877  -15.2787   35.2498 O   0  0  0  0  0  0  0  0  0  0  0  0
   34.4631  -17.0959   36.1352 N   0  0  0  0  0  0  0  0  0  0  0  0
   33.7200  -17.7376   35.7248 H   0  0  0  0  0  0  0  0  0  0  0  0
   34.1068  -23.5327   38.8108 C   0  0  0  0  0  0  0  0  0  0  0  0
   33.7794  -24.8604   39.0555 C   0  0  0  0  0  0  0  0  0  0  0  0
   34.1932  -25.8825   38.2281 C   0  0  0  0  0  0  0  0  0  0  0  0
   34.9553  -25.5379   37.1318 C   0  0  0  0  0  0  0  0  0  0  0  0
   35.2846  -24.2127   36.8841 C   0  0  0  0  0  0  0  0  0  0  0  0
   34.8674  -23.1950   37.7160 C   0  0  0  0  0  0  0  0  0  0  0  0
   32.8839  -22.8998   40.7720 C   0  0  0  0  0  0  0  0  0  0  0  0
   33.6741  -22.5326   39.6611 O   0  0  0  0  0  0  0  0  0  0  0  0
 25 26  1  0  0  0
 26 19  1  0  0  0
 19 20  2  0  0  0
 20 21  1  0  0  0
 21 22  2  0  0  0
 22 23  1  0  0  0
 23 24  2  0  0  0
 24  1  1  0  0  0
  1  2  1  0  0  0
  2  3  1  0  0  0
  3  4  1  0  0  0
  4  5  1  0  0  0
  5  6  1  0  0  0
  4  7  1  0  0  0
  7  8  2  0  0  0
  8  9  1  0  0  0
  9 10  2  0  0  0
 10 11  1  0  0  0
 11 12  2  0  0  0
 12 13  1  0  0  0
 13 14  2  0  0  0
 14 15  1  0  0  0
 15 16  2  0  0  0
 15 17  1  0  0  0
 24 19  1  0  0  0
  6  1  1  0  0  0
 17  7  1  0  0  0
 14  9  1  0  0  0
 17 18  1  0  0  0
M  END
> <minimizedAffinity>
-5.18637

> <CNNscore>
0.3180817664

> <CNNaffinity>
4.3858084679

> <CNN_VS>
1.3950457573

> <CNNaffinity_variance>
0.3463310599

$$$$
[H]c1c([H])c([H])c(N2C([H])([H])C([H])([H])N(c3nc4c([H])c([H])c([H])c([H])c4c(=O)n3[H])C([H])([H])C2([H])[H])c(OC([H])([H])[H])c1[H]


 26 29  0  0  0  0  0  0  0  0999 V2000
   34.0031  -18.0258   35.5822 N   0  0  0  0  0  0  0  0  0  0  0  0
   33.2108  -18.1173   34.3979 C   0  0  0  0  0  0  0  0  0  0  0  0
   32.0031  -19.0237   34.6480 C   0  0  0  0  0  0  0  0  0  0  0  0
   32.4360  -20.3062   35.1664 N   0  0  0  0  0  0  0  0  0  0  0  0
   33.7689  -20.3991   35.7270 C   0  0  0  0  0  0  0  0  0  0  0  0
   34.0458  -19.1557   36.5171 C   0  0  0  0  0  0  0  0  0  0  0  0
   31.6068  -21.4608   35.1426 C   0  0  0  0  0  0  0  0  0  0  0  0
   31.8553  -22.4851   34.3067 N   0  0  0  0  0  0  0  0  0  0  0  0
   31.1012  -23.5967   34.2474 C   0  0  0  0  0  0  0  0  0  0  0  0
   31.3648  -24.6337   33.3910 C   0  0  0  0  0  0  0  0  0  0  0  0
   30.5596  -25.7638   33.3622 C   0  0  0  0  0  0  0  0  0  0  0  0
   29.4755  -25.8840   34.1859 C   0  0  0  0  0  0  0  0  0  0  0  0
   29.2056  -24.8373   35.0537 C   0  0  0  0  0  0  0  0  0  0  0  0
   29.9944  -23.7040   35.0978 C   0  0  0  0  0  0  0  0  0  0  0  0
   29.7404  -22.6565   35.9524 C   0  0  0  0  0  0  0  0  0  0  0  0
   28.7584  -22.7167   36.7286 O   0  0  0  0  0  0  0  0  0  0  0  0
   30.5316  -21.5732   35.9636 N   0  0  0  0  0  0  0  0  0  0  0  0
   30.3372  -20.7618   36.6241 H   0  0  0  0  0  0  0  0  0  0  0  0
   36.1160  -17.0879   36.2149 C   0  0  0  0  0  0  0  0  0  0  0  0
   36.9157  -16.0142   36.5857 C   0  0  0  0  0  0  0  0  0  0  0  0
   36.4170  -14.7345   36.7044 C   0  0  0  0  0  0  0  0  0  0  0  0
   35.0763  -14.5523   36.4386 C   0  0  0  0  0  0  0  0  0  0  0  0
   34.2741  -15.6225   36.0680 C   0  0  0  0  0  0  0  0  0  0  0  0
   34.7795  -16.9003   35.9513 C   0  0  0  0  0  0  0  0  0  0  0  0
   38.0080  -18.5407   36.4431 C   0  0  0  0  0  0  0  0  0  0  0  0
   36.6495  -18.3582   36.1047 O   0  0  0  0  0  0  0  0  0  0  0  0
 25 26  1  0  0  0
 26 19  1  0  0  0
 19 20  2  0  0  0
 20 21  1  0  0  0
 21 22  2  0  0  0
 22 23  1  0  0  0
 23 24  2  0  0  0
 24  1  1  0  0  0
  1  2  1  0  0  0
  2  3  1  0  0  0
  3  4  1  0  0  0
  4  5  1  0  0  0
  5  6  1  0  0  0
  4  7  1  0  0  0
  7  8  2  0  0  0
  8  9  1  0  0  0
  9 10  2  0  0  0
 10 11  1  0  0  0
 11 12  2  0  0  0
 12 13  1  0  0  0
 13 14  2  0  0  0
 14 15  1  0  0  0
 15 16  2  0  0  0
 15 17  1  0  0  0
 24 19  1  0  0  0
  6  1  1  0  0  0
 17  7  1  0  0  0
 14  9  1  0  0  0
 17 18  1  0  0  0
M  END
> <minimizedAffinity>
-6.15713

> <CNNscore>
0.3011677265

> <CNNaffinity>
4.7255125046

> <CNN_VS>
1.4231718779

> <CNNaffinity_variance>
0.1724222004

$$$$
[H]c1c([H])c([H])c(N2C([H])([H])C([H])([H])N(c3nc4c([H])c([H])c([H])c([H])c4c(=O)n3[H])C([H])([H])C2([H])[H])c(OC([H])([H])[H])c1[H]


 26 29  0  0  0  0  0  0  0  0999 V2000
   33.3107  -20.0990   35.6007 N   0  0  0  0  0  0  0  0  0  0  0  0
   34.7148  -19.8480   35.6634 C   0  0  0  0  0  0  0  0  0  0  0  0
   34.9793  -18.5620   36.4503 C   0  0  0  0  0  0  0  0  0  0  0  0
   34.2102  -17.4660   35.8953 N   0  0  0  0  0  0  0  0  0  0  0  0
   33.0872  -17.7877   35.0381 C   0  0  0  0  0  0  0  0  0  0  0  0
   32.3699  -18.9732   35.6101 C   0  0  0  0  0  0  0  0  0  0  0  0
   34.5179  -16.1036   36.1605 C   0  0  0  0  0  0  0  0  0  0  0  0
   33.5503  -15.2006   36.4019 N   0  0  0  0  0  0  0  0  0  0  0  0
   33.7910  -13.9026   36.6576 C   0  0  0  0  0  0  0  0  0  0  0  0
   32.7963  -12.9922   36.9018 C   0  0  0  0  0  0  0  0  0  0  0  0
   33.0892  -11.6606   37.1613 C   0  0  0  0  0  0  0  0  0  0  0  0
   34.3790  -11.2088   37.1828 C   0  0  0  0  0  0  0  0  0  0  0  0
   35.3882  -12.1267   36.9363 C   0  0  0  0  0  0  0  0  0  0  0  0
   35.1177  -13.4562   36.6759 C   0  0  0  0  0  0  0  0  0  0  0  0
   36.1069  -14.3797   36.4291 C   0  0  0  0  0  0  0  0  0  0  0  0
   37.3064  -14.0170   36.4372 O   0  0  0  0  0  0  0  0  0  0  0  0
   35.8014  -15.6620   36.1802 N   0  0  0  0  0  0  0  0  0  0  0  0
   36.5649  -16.3781   35.9893 H   0  0  0  0  0  0  0  0  0  0  0  0
   32.6341  -22.1276   36.6830 C   0  0  0  0  0  0  0  0  0  0  0  0
   32.0685  -23.3962   36.6601 C   0  0  0  0  0  0  0  0  0  0  0  0
   31.5767  -23.9595   35.5018 C   0  0  0  0  0  0  0  0  0  0  0  0
   31.6663  -23.2098   34.3480 C   0  0  0  0  0  0  0  0  0  0  0  0
   32.2309  -21.9422   34.3668 C   0  0  0  0  0  0  0  0  0  0  0  0
   32.7210  -21.3847   35.5291 C   0  0  0  0  0  0  0  0  0  0  0  0
   34.0848  -22.3294   38.5796 C   0  0  0  0  0  0  0  0  0  0  0  0
   33.1167  -21.5931   37.8627 O   0  0  0  0  0  0  0  0  0  0  0  0
 25 26  1  0  0  0
 26 19  1  0  0  0
 19 20  2  0  0  0
 20 21  1  0  0  0
 21 22  2  0  0  0
 22 23  1  0  0  0
 23 24  2  0  0  0
 24  1  1  0  0  0
  1  2  1  0  0  0
  2  3  1  0  0  0
  3  4  1  0  0  0
  4  5  1  0  0  0
  5  6  1  0  0  0
  4  7  1  0  0  0
  7  8  2  0  0  0
  8  9  1  0  0  0
  9 10  2  0  0  0
 10 11  1  0  0  0
 11 12  2  0  0  0
 12 13  1  0  0  0
 13 14  2  0  0  0
 14 15  1  0  0  0
 15 16  2  0  0  0
 15 17  1  0  0  0
 24 19  1  0  0  0
  6  1  1  0  0  0
 17  7  1  0  0  0
 14  9  1  0  0  0
 17 18  1  0  0  0
M  END
> <minimizedAffinity>
-6.06203

> <CNNscore>
0.3009282947

> <CNNaffinity>
4.9162015915

> <CNN_VS>
1.4794241190

> <CNNaffinity_variance>
0.1765677035

$$$$
[H]c1c([H])c([H])c(N2C([H])([H])C([H])([H])N(c3nc4c([H])c([H])c([H])c([H])c4c(=O)n3[H])C([H])([H])C2([H])[H])c(OC([H])([H])[H])c1[H]


 26 29  0  0  0  0  0  0  0  0999 V2000
   35.5655  -17.0470   36.8688 N   0  0  0  0  0  0  0  0  0  0  0  0
   36.6492  -16.1357   37.0525 C   0  0  0  0  0  0  0  0  0  0  0  0
   36.1291  -14.8183   37.6329 C   0  0  0  0  0  0  0  0  0  0  0  0
   35.0547  -14.2967   36.8116 N   0  0  0  0  0  0  0  0  0  0  0  0
   34.3948  -15.2054   35.8961 C   0  0  0  0  0  0  0  0  0  0  0  0
   34.2240  -16.5312   36.5744 C   0  0  0  0  0  0  0  0  0  0  0  0
   34.6332  -12.9403   36.8737 C   0  0  0  0  0  0  0  0  0  0  0  0
   35.3157  -11.9648   36.2473 N   0  0  0  0  0  0  0  0  0  0  0  0
   34.9572  -10.6692   36.2765 C   0  0  0  0  0  0  0  0  0  0  0  0
   35.6612   -9.6844   35.6341 C   0  0  0  0  0  0  0  0  0  0  0  0
   35.2557   -8.3583   35.6905 C   0  0  0  0  0  0  0  0  0  0  0  0
   34.1406   -7.9861   36.3878 C   0  0  0  0  0  0  0  0  0  0  0  0
   33.4257   -8.9794   37.0389 C   0  0  0  0  0  0  0  0  0  0  0  0
   33.8125  -10.3049   36.9953 C   0  0  0  0  0  0  0  0  0  0  0  0
   33.1148  -11.3025   37.6357 C   0  0  0  0  0  0  0  0  0  0  0  0
   32.0848  -11.0144   38.2890 O   0  0  0  0  0  0  0  0  0  0  0  0
   33.5247  -12.5781   37.5683 N   0  0  0  0  0  0  0  0  0  0  0  0
   32.9863  -13.3514   38.0627 H   0  0  0  0  0  0  0  0  0  0  0  0
   34.6459  -19.2186   36.4411 C   0  0  0  0  0  0  0  0  0  0  0  0
   34.7036  -20.6052   36.5030 C   0  0  0  0  0  0  0  0  0  0  0  0
   35.7716  -21.2705   37.0665 C   0  0  0  0  0  0  0  0  0  0  0  0
   36.7972  -20.5017   37.5747 C   0  0  0  0  0  0  0  0  0  0  0  0
   36.7431  -19.1163   37.5148 C   0  0  0  0  0  0  0  0  0  0  0  0
   35.6716  -18.4570   36.9498 C   0  0  0  0  0  0  0  0  0  0  0  0
   32.4228  -19.3615   35.5580 C   0  0  0  0  0  0  0  0  0  0  0  0
   33.5598  -18.5841   35.8680 O   0  0  0  0  0  0  0  0  0  0  0  0
 25 26  1  0  0  0
 26 19  1  0  0  0
 19 20  2  0  0  0
 20 21  1  0  0  0
 21 22  2  0  0  0
 22 23  1  0  0  0
 23 24  2  0  0  0
 24  1  1  0  0  0
  1  2  1  0  0  0
  2  3  1  0  0  0
  3  4  1  0  0  0
  4  5  1  0  0  0
  5  6  1  0  0  0
  4  7  1  0  0  0
  7  8  2  0  0  0
  8  9  1  0  0  0
  9 10  2  0  0  0
 10 11  1  0  0  0
 11 12  2  0  0  0
 12 13  1  0  0  0
 13 14  2  0  0  0
 14 15  1  0  0  0
 15 16  2  0  0  0
 15 17  1  0  0  0
 24 19  1  0  0  0
  6  1  1  0  0  0
 17  7  1  0  0  0
 14  9  1  0  0  0
 17 18  1  0  0  0
M  END
> <minimizedAffinity>
-6.36682

> <CNNscore>
0.2917546332

> <CNNaffinity>
5.5791635513

> <CNN_VS>
1.6277468204

> <CNNaffinity_variance>
0.2232211083

$$$$
[H]c1c([H])c([H])c(N2C([H])([H])C([H])([H])N(c3nc4c([H])c([H])c([H])c([H])c4c(=O)n3[H])C([H])([H])C2([H])[H])c(OC([H])([H])[H])c1[H]


 26 29  0  0  0  0  0  0  0  0999 V2000
   37.2239  -21.7305   38.2058 N   0  0  0  0  0  0  0  0  0  0  0  0
   37.6683  -21.2971   36.9200 C   0  0  0  0  0  0  0  0  0  0  0  0
   37.7288  -19.7683   36.8779 C   0  0  0  0  0  0  0  0  0  0  0  0
   36.4563  -19.2037   37.2814 N   0  0  0  0  0  0  0  0  0  0  0  0
   35.5339  -20.0533   38.0074 C   0  0  0  0  0  0  0  0  0  0  0  0
   36.3118  -20.8839   38.9830 C   0  0  0  0  0  0  0  0  0  0  0  0
   36.0881  -17.8614   36.9916 C   0  0  0  0  0  0  0  0  0  0  0  0
   36.8276  -16.8232   37.4220 N   0  0  0  0  0  0  0  0  0  0  0  0
   36.5209  -15.5378   37.1737 C   0  0  0  0  0  0  0  0  0  0  0  0
   37.2825  -14.4886   37.6179 C   0  0  0  0  0  0  0  0  0  0  0  0
   36.9291  -13.1758   37.3390 C   0  0  0  0  0  0  0  0  0  0  0  0
   35.8099  -12.8813   36.6118 C   0  0  0  0  0  0  0  0  0  0  0  0
   35.0369  -13.9398   36.1605 C   0  0  0  0  0  0  0  0  0  0  0  0
   35.3712  -15.2534   36.4274 C   0  0  0  0  0  0  0  0  0  0  0  0
   34.6152  -16.3151   35.9875 C   0  0  0  0  0  0  0  0  0  0  0  0
   33.5790  -16.0995   35.3164 O   0  0  0  0  0  0  0  0  0  0  0  0
   34.9750  -17.5764   36.2688 N   0  0  0  0  0  0  0  0  0  0  0  0
   34.3919  -18.3992   35.9293 H   0  0  0  0  0  0  0  0  0  0  0  0
   36.8191  -24.0593   38.6023 C   0  0  0  0  0  0  0  0  0  0  0  0
   37.1451  -25.2745   39.1913 C   0  0  0  0  0  0  0  0  0  0  0  0
   38.2449  -25.4216   40.0094 C   0  0  0  0  0  0  0  0  0  0  0  0
   39.0235  -24.3045   40.2273 C   0  0  0  0  0  0  0  0  0  0  0  0
   38.7010  -23.0888   39.6407 C   0  0  0  0  0  0  0  0  0  0  0  0
   37.5991  -22.9486   38.8233 C   0  0  0  0  0  0  0  0  0  0  0  0
   35.5827  -24.8504   36.7081 C   0  0  0  0  0  0  0  0  0  0  0  0
   35.7091  -23.9478   37.7863 O   0  0  0  0  0  0  0  0  0  0  0  0
 25 26  1  0  0  0
 26 19  1  0  0  0
 19 20  2  0  0  0
 20 21  1  0  0  0
 21 22  2  0  0  0
 22 23  1  0  0  0
 23 24  2  0  0  0
 24  1  1  0  0  0
  1  2  1  0  0  0
  2  3  1  0  0  0
  3  4  1  0  0  0
  4  5  1  0  0  0
  5  6  1  0  0  0
  4  7  1  0  0  0
  7  8  2  0  0  0
  8  9  1  0  0  0
  9 10  2  0  0  0
 10 11  1  0  0  0
 11 12  2  0  0  0
 12 13  1  0  0  0
 13 14  2  0  0  0
 14 15  1  0  0  0
 15 16  2  0  0  0
 15 17  1  0  0  0
 24 19  1  0  0  0
  6  1  1  0  0  0
 17  7  1  0  0  0
 14  9  1  0  0  0
 17 18  1  0  0  0
M  END
> <minimizedAffinity>
-5.34613

> <CNNscore>
0.2618986964

> <CNNaffinity>
4.3603720665

> <CNN_VS>
1.1419757605

> <CNNaffinity_variance>
0.3168409169

$$$$
[H]c1c([H])c([H])c(N2C([H])([H])C([H])([H])N(c3nc4c([H])c([H])c([H])c([H])c4c(=O)n3[H])C([H])([H])C2([H])[H])c(OC([H])([H])[H])c1[H]


 26 29  0  0  0  0  0  0  0  0999 V2000
   40.4241  -18.9233   34.8159 N   0  0  0  0  0  0  0  0  0  0  0  0
   39.7752  -19.0281   33.5484 C   0  0  0  0  0  0  0  0  0  0  0  0
   38.4217  -18.3151   33.5957 C   0  0  0  0  0  0  0  0  0  0  0  0
   37.6306  -18.8114   34.7041 N   0  0  0  0  0  0  0  0  0  0  0  0
   38.3148  -19.5254   35.7631 C   0  0  0  0  0  0  0  0  0  0  0  0
   39.6192  -18.8405   36.0398 C   0  0  0  0  0  0  0  0  0  0  0  0
   36.2236  -18.6236   34.7850 C   0  0  0  0  0  0  0  0  0  0  0  0
   35.3649  -19.5675   34.3589 N   0  0  0  0  0  0  0  0  0  0  0  0
   34.0278  -19.4365   34.4146 C   0  0  0  0  0  0  0  0  0  0  0  0
   33.1632  -20.4055   33.9770 C   0  0  0  0  0  0  0  0  0  0  0  0
   31.7887  -20.2290   34.0527 C   0  0  0  0  0  0  0  0  0  0  0  0
   31.2474  -19.0837   34.5658 C   0  0  0  0  0  0  0  0  0  0  0  0
   32.1187  -18.1010   35.0096 C   0  0  0  0  0  0  0  0  0  0  0  0
   33.4897  -18.2571   34.9430 C   0  0  0  0  0  0  0  0  0  0  0  0
   34.3680  -17.2921   35.3785 C   0  0  0  0  0  0  0  0  0  0  0  0
   33.9230  -16.2230   35.8577 O   0  0  0  0  0  0  0  0  0  0  0  0
   35.6932  -17.4833   35.2958 N   0  0  0  0  0  0  0  0  0  0  0  0
   36.3744  -16.7384   35.6324 H   0  0  0  0  0  0  0  0  0  0  0  0
   42.4840  -20.0759   35.2317 C   0  0  0  0  0  0  0  0  0  0  0  0
   43.8590  -20.0906   35.4292 C   0  0  0  0  0  0  0  0  0  0  0  0
   44.6155  -18.9383   35.4087 C   0  0  0  0  0  0  0  0  0  0  0  0
   43.9515  -17.7512   35.1820 C   0  0  0  0  0  0  0  0  0  0  0  0
   42.5779  -17.7325   34.9844 C   0  0  0  0  0  0  0  0  0  0  0  0
   41.8271  -18.8890   35.0063 C   0  0  0  0  0  0  0  0  0  0  0  0
   41.9201  -22.1585   34.1890 C   0  0  0  0  0  0  0  0  0  0  0  0
   41.7563  -21.2507   35.2578 O   0  0  0  0  0  0  0  0  0  0  0  0
 25 26  1  0  0  0
 26 19  1  0  0  0
 19 20  2  0  0  0
 20 21  1  0  0  0
 21 22  2  0  0  0
 22 23  1  0  0  0
 23 24  2  0  0  0
 24  1  1  0  0  0
  1  2  1  0  0  0
  2  3  1  0  0  0
  3  4  1  0  0  0
  4  5  1  0  0  0
  5  6  1  0  0  0
  4  7  1  0  0  0
  7  8  2  0  0  0
  8  9  1  0  0  0
  9 10  2  0  0  0
 10 11  1  0  0  0
 11 12  2  0  0  0
 12 13  1  0  0  0
 13 14  2  0  0  0
 14 15  1  0  0  0
 15 16  2  0  0  0
 15 17  1  0  0  0
 24 19  1  0  0  0
  6  1  1  0  0  0
 17  7  1  0  0  0
 14  9  1  0  0  0
 17 18  1  0  0  0
M  END
> <minimizedAffinity>
-5.59087

> <CNNscore>
0.2494934350

> <CNNaffinity>
4.5210390091

> <CNN_VS>
1.1279695034

> <CNNaffinity_variance>
0.3300003409

$$$$
[H]c1c([H])c([H])c(C([H])([H])N([H])C(=O)C(=O)[C@@]([H])(N([H])C(=O)[C@@]2([H])N(C(=O)C3(c4c([H])c([H])c(Cl)c([H])c4[H])C([H])([H])C3([H])[H])C([H])([H])[C@]([H])(S(=O)(=O)c3c([H])c([H])c([H])c([H])c3Cl)C2([H])[H])C([H])([H])C([H])([H])C([H])([H])[H])c(Cl)c1[H]


 49 53  0  0  0  0  0  0  0  0999 V2000
   36.5794  -22.0121   37.9529 C   0  0  0  0  0  0  0  0  0  0  0  0
   35.3804  -22.5086   37.1727 C   0  0  0  0  0  0  0  0  0  0  0  0
   34.3644  -21.4052   37.3557 C   0  0  0  0  0  0  0  0  0  0  0  0
   34.7627  -20.7273   38.6125 C   0  0  0  0  0  0  0  0  0  0  0  0
   35.9767  -21.4405   39.1230 N   0  0  0  0  0  0  0  0  0  0  0  0
   36.3145  -21.4497   40.4583 C   0  0  0  0  0  0  0  0  0  0  0  0
   35.5183  -20.6983   41.2094 O   0  0  0  0  0  0  0  0  0  0  0  0
   37.2253  -20.6934   35.8324 N   0  0  0  0  0  0  0  0  0  0  0  0
   37.3594  -20.9793   37.2002 C   0  0  0  0  0  0  0  0  0  0  0  0
   38.1947  -20.3246   37.8665 O   0  0  0  0  0  0  0  0  0  0  0  0
   36.5512  -21.1955   35.2503 H   0  0  0  0  0  0  0  0  0  0  0  0
   38.0495  -19.6633   35.1778 C   0  0  0  0  0  0  0  0  0  0  0  0
   37.2497  -18.4396   34.9662 C   0  0  0  0  0  0  0  0  0  0  0  0
   37.0920  -17.9654   33.7768 O   0  0  0  0  0  0  0  0  0  0  0  0
   36.6096  -17.7249   36.0430 C   0  0  0  0  0  0  0  0  0  0  0  0
   35.5156  -18.0651   36.5485 O   0  0  0  0  0  0  0  0  0  0  0  0
   37.2227  -16.5405   36.6139 N   0  0  0  0  0  0  0  0  0  0  0  0
   38.1506  -16.2136   36.2293 H   0  0  0  0  0  0  0  0  0  0  0  0
   36.6250  -15.7954   37.6768 C   0  0  0  0  0  0  0  0  0  0  0  0
   35.8298  -14.6130   37.2542 C   0  0  0  0  0  0  0  0  0  0  0  0
   34.5168  -14.7054   36.9440 C   0  0  0  0  0  0  0  0  0  0  0  0
   33.8258  -13.5602   36.5361 C   0  0  0  0  0  0  0  0  0  0  0  0
   34.4343  -12.3372   36.4378 C   0  0  0  0  0  0  0  0  0  0  0  0
   35.7882  -12.2839   36.7639 C   0  0  0  0  0  0  0  0  0  0  0  0
   36.4873  -13.3792   37.1635 C   0  0  0  0  0  0  0  0  0  0  0  0
   38.1871  -13.2986   37.5673 Cl  0  0  0  0  0  0  0  0  0  0  0  0
   38.8101  -20.1860   34.0356 C   0  0  0  0  0  0  0  0  0  0  0  0
   40.7854  -18.7098   33.4736 C   0  0  0  0  0  0  0  0  0  0  0  0
   40.2861  -19.9961   34.0299 C   0  0  0  0  0  0  0  0  0  0  0  0
   37.3542  -22.0907   41.2487 C   0  0  0  0  0  0  0  0  0  0  0  0
   36.9988  -23.0674   42.3211 C   0  0  0  0  0  0  0  0  0  0  0  0
   37.5624  -23.6024   41.0820 C   0  0  0  0  0  0  0  0  0  0  0  0
   38.6380  -21.3963   41.4440 C   0  0  0  0  0  0  0  0  0  0  0  0
   39.6019  -21.2858   40.4764 C   0  0  0  0  0  0  0  0  0  0  0  0
   40.7345  -20.5208   40.6961 C   0  0  0  0  0  0  0  0  0  0  0  0
   40.9123  -19.8570   41.8883 C   0  0  0  0  0  0  0  0  0  0  0  0
   42.3354  -18.8694   42.2137 Cl  0  0  0  0  0  0  0  0  0  0  0  0
   39.9495  -19.9574   42.8745 C   0  0  0  0  0  0  0  0  0  0  0  0
   38.8232  -20.7209   42.6526 C   0  0  0  0  0  0  0  0  0  0  0  0
   32.7591  -22.1304   37.4017 S   0  0  0  0  0  0  0  0  0  0  0  0
   32.8325  -23.5373   36.9215 O   0  0  0  0  0  0  0  0  0  0  0  0
   32.3414  -22.1766   38.8621 O   0  0  0  0  0  0  0  0  0  0  0  0
   31.5716  -21.2845   36.4949 C   0  0  0  0  0  0  0  0  0  0  0  0
   30.2363  -21.4311   36.7811 C   0  0  0  0  0  0  0  0  0  0  0  0
   29.2502  -20.7577   36.0747 C   0  0  0  0  0  0  0  0  0  0  0  0
   29.5863  -19.9060   35.0460 C   0  0  0  0  0  0  0  0  0  0  0  0
   30.9215  -19.7504   34.7497 C   0  0  0  0  0  0  0  0  0  0  0  0
   31.8937  -20.4312   35.4668 C   0  0  0  0  0  0  0  0  0  0  0  0
   33.5631  -20.1704   35.0092 Cl  0  0  0  0  0  0  0  0  0  0  0  0
 28 29  1  0  0  0
 29 27  1  0  0  0
 27 12  1  0  0  0
 12  8  1  0  0  0
  8  9  1  0  0  0
  9 10  2  0  0  0
  9  1  1  0  0  0
  1  2  1  0  0  0
  2  3  1  0  0  0
  3  4  1  0  0  0
  4  5  1  0  0  0
  5  6  1  0  0  0
  6  7  2  0  0  0
  6 30  1  0  0  0
 30 31  1  0  0  0
 31 32  1  0  0  0
 30 33  1  0  0  0
 33 34  2  0  0  0
 34 35  1  0  0  0
 35 36  2  0  0  0
 36 37  1  0  0  0
 36 38  1  0  0  0
 38 39  2  0  0  0
  3 40  1  0  0  0
 40 41  2  0  0  0
 40 42  2  0  0  0
 40 43  1  0  0  0
 43 44  2  0  0  0
 44 45  1  0  0  0
 45 46  2  0  0  0
 46 47  1  0  0  0
 47 48  2  0  0  0
 48 49  1  0  0  0
 12 13  1  0  0  0
 13 14  2  0  0  0
 13 15  1  0  0  0
 15 16  2  0  0  0
 15 17  1  0  0  0
 17 19  1  0  0  0
 19 20  1  0  0  0
 20 21  2  0  0  0
 21 22  1  0  0  0
 22 23  2  0  0  0
 23 24  1  0  0  0
 24 25  2  0  0  0
 25 26  1  0  0  0
  5  1  1  0  0  0
 32 30  1  0  0  0
 39 33  1  0  0  0
 48 43  1  0  0  0
 25 20  1  0  0  0
  8 11  1  0  0  0
 17 18  1  0  0  0
M  END
> <minimizedAffinity>
-8.15554

> <CNNscore>
0.2585199773

> <CNNaffinity>
6.8647260666

> <CNN_VS>
1.7746688128

> <CNNaffinity_variance>
0.5042568445

$$$$
[H]c1c([H])c([H])c(C([H])([H])N([H])C(=O)C(=O)[C@@]([H])(N([H])C(=O)[C@@]2([H])N(C(=O)C3(c4c([H])c([H])c(Cl)c([H])c4[H])C([H])([H])C3([H])[H])C([H])([H])[C@]([H])(S(=O)(=O)c3c([H])c([H])c([H])c([H])c3Cl)C2([H])[H])C([H])([H])C([H])([H])C([H])([H])[H])c(Cl)c1[H]


 49 53  0  0  0  0  0  0  0  0999 V2000
   35.4271  -18.5052   35.1143 C   0  0  0  0  0  0  0  0  0  0  0  0
   34.0648  -19.0623   34.7586 C   0  0  0  0  0  0  0  0  0  0  0  0
   33.6614  -19.8179   36.0034 C   0  0  0  0  0  0  0  0  0  0  0  0
   34.9399  -20.1520   36.6755 C   0  0  0  0  0  0  0  0  0  0  0  0
   36.0366  -19.5956   35.8205 N   0  0  0  0  0  0  0  0  0  0  0  0
   37.3093  -20.1223   35.8257 C   0  0  0  0  0  0  0  0  0  0  0  0
   37.4759  -21.0914   36.7176 O   0  0  0  0  0  0  0  0  0  0  0  0
   34.8994  -16.0234   35.5777 N   0  0  0  0  0  0  0  0  0  0  0  0
   35.3351  -17.2931   35.9884 C   0  0  0  0  0  0  0  0  0  0  0  0
   35.6779  -17.4474   37.1838 O   0  0  0  0  0  0  0  0  0  0  0  0
   34.6018  -15.8518   34.6147 H   0  0  0  0  0  0  0  0  0  0  0  0
   34.8552  -14.8862   36.5124 C   0  0  0  0  0  0  0  0  0  0  0  0
   33.5989  -14.1317   36.3267 C   0  0  0  0  0  0  0  0  0  0  0  0
   32.9245  -14.2539   35.2337 O   0  0  0  0  0  0  0  0  0  0  0  0
   33.0617  -13.2440   37.3283 C   0  0  0  0  0  0  0  0  0  0  0  0
   33.5293  -13.1383   38.4852 O   0  0  0  0  0  0  0  0  0  0  0  0
   31.9184  -12.4006   37.0348 N   0  0  0  0  0  0  0  0  0  0  0  0
   31.4892  -12.4448   36.0706 H   0  0  0  0  0  0  0  0  0  0  0  0
   31.3467  -11.5101   37.9950 C   0  0  0  0  0  0  0  0  0  0  0  0
   29.9059  -11.7303   38.2862 C   0  0  0  0  0  0  0  0  0  0  0  0
   28.9292  -11.1788   37.5309 C   0  0  0  0  0  0  0  0  0  0  0  0
   27.5909  -11.4085   37.8652 C   0  0  0  0  0  0  0  0  0  0  0  0
   27.2288  -12.1778   38.9388 C   0  0  0  0  0  0  0  0  0  0  0  0
   28.2643  -12.7263   39.6932 C   0  0  0  0  0  0  0  0  0  0  0  0
   29.5744  -12.5215   39.3938 C   0  0  0  0  0  0  0  0  0  0  0  0
   30.8642  -13.2139   40.3508 Cl  0  0  0  0  0  0  0  0  0  0  0  0
   36.1101  -14.1240   36.5388 C   0  0  0  0  0  0  0  0  0  0  0  0
   38.2421  -13.4591   37.7260 C   0  0  0  0  0  0  0  0  0  0  0  0
   36.9843  -14.2537   37.7361 C   0  0  0  0  0  0  0  0  0  0  0  0
   38.5307  -19.8599   35.0802 C   0  0  0  0  0  0  0  0  0  0  0  0
   38.5868  -20.0983   33.6070 C   0  0  0  0  0  0  0  0  0  0  0  0
   38.5257  -18.7099   34.0632 C   0  0  0  0  0  0  0  0  0  0  0  0
   39.8274  -19.9510   35.7721 C   0  0  0  0  0  0  0  0  0  0  0  0
   40.8230  -20.8232   35.4179 C   0  0  0  0  0  0  0  0  0  0  0  0
   42.0573  -20.7728   36.0424 C   0  0  0  0  0  0  0  0  0  0  0  0
   42.3073  -19.8461   37.0285 C   0  0  0  0  0  0  0  0  0  0  0  0
   43.8628  -19.7413   37.8505 Cl  0  0  0  0  0  0  0  0  0  0  0  0
   41.3143  -18.9586   37.3974 C   0  0  0  0  0  0  0  0  0  0  0  0
   40.0859  -19.0123   36.7738 C   0  0  0  0  0  0  0  0  0  0  0  0
   32.7106  -21.2199   35.5185 S   0  0  0  0  0  0  0  0  0  0  0  0
   32.6754  -21.3102   34.0332 O   0  0  0  0  0  0  0  0  0  0  0  0
   33.4507  -22.4469   36.0246 O   0  0  0  0  0  0  0  0  0  0  0  0
   31.1040  -21.2323   36.1241 C   0  0  0  0  0  0  0  0  0  0  0  0
   30.7323  -22.1187   37.1051 C   0  0  0  0  0  0  0  0  0  0  0  0
   29.4457  -22.1518   37.6232 C   0  0  0  0  0  0  0  0  0  0  0  0
   28.4842  -21.2807   37.1612 C   0  0  0  0  0  0  0  0  0  0  0  0
   28.8447  -20.3872   36.1781 C   0  0  0  0  0  0  0  0  0  0  0  0
   30.1356  -20.3680   35.6722 C   0  0  0  0  0  0  0  0  0  0  0  0
   30.4930  -19.1982   34.4199 Cl  0  0  0  0  0  0  0  0  0  0  0  0
 28 29  1  0  0  0
 29 27  1  0  0  0
 27 12  1  0  0  0
 12  8  1  0  0  0
  8  9  1  0  0  0
  9 10  2  0  0  0
  9  1  1  0  0  0
  1  2  1  0  0  0
  2  3  1  0  0  0
  3  4  1  0  0  0
  4  5  1  0  0  0
  5  6  1  0  0  0
  6  7  2  0  0  0
  6 30  1  0  0  0
 30 31  1  0  0  0
 31 32  1  0  0  0
 30 33  1  0  0  0
 33 34  2  0  0  0
 34 35  1  0  0  0
 35 36  2  0  0  0
 36 37  1  0  0  0
 36 38  1  0  0  0
 38 39  2  0  0  0
  3 40  1  0  0  0
 40 41  2  0  0  0
 40 42  2  0  0  0
 40 43  1  0  0  0
 43 44  2  0  0  0
 44 45  1  0  0  0
 45 46  2  0  0  0
 46 47  1  0  0  0
 47 48  2  0  0  0
 48 49  1  0  0  0
 12 13  1  0  0  0
 13 14  2  0  0  0
 13 15  1  0  0  0
 15 16  2  0  0  0
 15 17  1  0  0  0
 17 19  1  0  0  0
 19 20  1  0  0  0
 20 21  2  0  0  0
 21 22  1  0  0  0
 22 23  2  0  0  0
 23 24  1  0  0  0
 24 25  2  0  0  0
 25 26  1  0  0  0
  5  1  1  0  0  0
 32 30  1  0  0  0
 39 33  1  0  0  0
 48 43  1  0  0  0
 25 20  1  0  0  0
  8 11  1  0  0  0
 17 18  1  0  0  0
M  END
> <minimizedAffinity>
-9.45247

> <CNNscore>
0.2350643575

> <CNNaffinity>
7.1700048447

> <CNN_VS>
1.6854125261

> <CNNaffinity_variance>
0.2150901854

$$$$
[H]c1c([H])c([H])c(C([H])([H])N([H])C(=O)C(=O)[C@@]([H])(N([H])C(=O)[C@@]2([H])N(C(=O)C3(c4c([H])c([H])c(Cl)c([H])c4[H])C([H])([H])C3([H])[H])C([H])([H])[C@]([H])(S(=O)(=O)c3c([H])c([H])c([H])c([H])c3Cl)C2([H])[H])C([H])([H])C([H])([H])C([H])([H])[H])c(Cl)c1[H]


 49 53  0  0  0  0  0  0  0  0999 V2000
   35.3040  -21.4863   39.0816 C   0  0  0  0  0  0  0  0  0  0  0  0
   36.3588  -21.0999   40.0969 C   0  0  0  0  0  0  0  0  0  0  0  0
   37.6509  -21.5135   39.4316 C   0  0  0  0  0  0  0  0  0  0  0  0
   37.2612  -22.5748   38.4726 C   0  0  0  0  0  0  0  0  0  0  0  0
   35.7797  -22.7523   38.6022 N   0  0  0  0  0  0  0  0  0  0  0  0
   35.1525  -23.9366   38.2840 C   0  0  0  0  0  0  0  0  0  0  0  0
   35.9726  -24.8480   37.7744 O   0  0  0  0  0  0  0  0  0  0  0  0
   34.8998  -20.8084   36.6261 N   0  0  0  0  0  0  0  0  0  0  0  0
   35.2050  -20.4985   37.9609 C   0  0  0  0  0  0  0  0  0  0  0  0
   35.4126  -19.2999   38.2616 O   0  0  0  0  0  0  0  0  0  0  0  0
   34.7144  -21.7709   36.3353 H   0  0  0  0  0  0  0  0  0  0  0  0
   34.8369  -19.7643   35.5894 C   0  0  0  0  0  0  0  0  0  0  0  0
   36.1976  -19.2780   35.2829 C   0  0  0  0  0  0  0  0  0  0  0  0
   37.1191  -20.1089   34.9297 O   0  0  0  0  0  0  0  0  0  0  0  0
   36.5668  -17.8855   35.3512 C   0  0  0  0  0  0  0  0  0  0  0  0
   36.7949  -17.1774   34.3439 O   0  0  0  0  0  0  0  0  0  0  0  0
   36.6935  -17.2142   36.6311 N   0  0  0  0  0  0  0  0  0  0  0  0
   36.5048  -17.7636   37.5133 H   0  0  0  0  0  0  0  0  0  0  0  0
   37.0624  -15.8389   36.7506 C   0  0  0  0  0  0  0  0  0  0  0  0
   35.9312  -14.8749   36.7390 C   0  0  0  0  0  0  0  0  0  0  0  0
   34.6799  -15.2418   36.3809 C   0  0  0  0  0  0  0  0  0  0  0  0
   33.6600  -14.2850   36.3731 C   0  0  0  0  0  0  0  0  0  0  0  0
   33.8828  -12.9784   36.7174 C   0  0  0  0  0  0  0  0  0  0  0  0
   35.1857  -12.6397   37.0779 C   0  0  0  0  0  0  0  0  0  0  0  0
   36.1982  -13.5466   37.0954 C   0  0  0  0  0  0  0  0  0  0  0  0
   37.8296  -13.1073   37.5476 Cl  0  0  0  0  0  0  0  0  0  0  0  0
   33.7989  -18.7606   35.8568 C   0  0  0  0  0  0  0  0  0  0  0  0
   32.5886  -19.6492   33.8216 C   0  0  0  0  0  0  0  0  0  0  0  0
   32.5486  -18.8130   35.0515 C   0  0  0  0  0  0  0  0  0  0  0  0
   33.7860  -24.4285   38.3691 C   0  0  0  0  0  0  0  0  0  0  0  0
   33.5139  -25.8844   38.5606 C   0  0  0  0  0  0  0  0  0  0  0  0
   33.3051  -25.0030   39.7090 C   0  0  0  0  0  0  0  0  0  0  0  0
   32.7109  -23.6809   37.6956 C   0  0  0  0  0  0  0  0  0  0  0  0
   31.7339  -22.9845   38.3574 C   0  0  0  0  0  0  0  0  0  0  0  0
   30.8235  -22.2121   37.6569 C   0  0  0  0  0  0  0  0  0  0  0  0
   30.8836  -22.1286   36.2846 C   0  0  0  0  0  0  0  0  0  0  0  0
   29.7491  -21.1569   35.3492 Cl  0  0  0  0  0  0  0  0  0  0  0  0
   31.8632  -22.8242   35.6017 C   0  0  0  0  0  0  0  0  0  0  0  0
   32.7677  -23.5931   36.3027 C   0  0  0  0  0  0  0  0  0  0  0  0
   38.7743  -22.0438   40.6812 S   0  0  0  0  0  0  0  0  0  0  0  0
   38.0301  -22.3062   41.9433 O   0  0  0  0  0  0  0  0  0  0  0  0
   39.3509  -23.3709   40.2168 O   0  0  0  0  0  0  0  0  0  0  0  0
   40.0548  -20.9447   40.9979 C   0  0  0  0  0  0  0  0  0  0  0  0
   40.2363  -20.4248   42.2561 C   0  0  0  0  0  0  0  0  0  0  0  0
   41.2643  -19.5407   42.5499 C   0  0  0  0  0  0  0  0  0  0  0  0
   42.1507  -19.1502   41.5708 C   0  0  0  0  0  0  0  0  0  0  0  0
   41.9795  -19.6648   40.3056 C   0  0  0  0  0  0  0  0  0  0  0  0
   40.9464  -20.5478   40.0302 C   0  0  0  0  0  0  0  0  0  0  0  0
   40.8098  -21.1413   38.3890 Cl  0  0  0  0  0  0  0  0  0  0  0  0
 28 29  1  0  0  0
 29 27  1  0  0  0
 27 12  1  0  0  0
 12  8  1  0  0  0
  8  9  1  0  0  0
  9 10  2  0  0  0
  9  1  1  0  0  0
  1  2  1  0  0  0
  2  3  1  0  0  0
  3  4  1  0  0  0
  4  5  1  0  0  0
  5  6  1  0  0  0
  6  7  2  0  0  0
  6 30  1  0  0  0
 30 31  1  0  0  0
 31 32  1  0  0  0
 30 33  1  0  0  0
 33 34  2  0  0  0
 34 35  1  0  0  0
 35 36  2  0  0  0
 36 37  1  0  0  0
 36 38  1  0  0  0
 38 39  2  0  0  0
  3 40  1  0  0  0
 40 41  2  0  0  0
 40 42  2  0  0  0
 40 43  1  0  0  0
 43 44  2  0  0  0
 44 45  1  0  0  0
 45 46  2  0  0  0
 46 47  1  0  0  0
 47 48  2  0  0  0
 48 49  1  0  0  0
 12 13  1  0  0  0
 13 14  2  0  0  0
 13 15  1  0  0  0
 15 16  2  0  0  0
 15 17  1  0  0  0
 17 19  1  0  0  0
 19 20  1  0  0  0
 20 21  2  0  0  0
 21 22  1  0  0  0
 22 23  2  0  0  0
 23 24  1  0  0  0
 24 25  2  0  0  0
 25 26  1  0  0  0
  5  1  1  0  0  0
 32 30  1  0  0  0
 39 33  1  0  0  0
 48 43  1  0  0  0
 25 20  1  0  0  0
  8 11  1  0  0  0
 17 18  1  0  0  0
M  END
> <minimizedAffinity>
-6.71164

> <CNNscore>
0.2215591371

> <CNNaffinity>
6.7261185646

> <CNN_VS>
1.4902330637

> <CNNaffinity_variance>
0.5523226857

$$$$
[H]c1c([H])c([H])c(C([H])([H])N([H])C(=O)C(=O)[C@@]([H])(N([H])C(=O)[C@@]2([H])N(C(=O)C3(c4c([H])c([H])c(Cl)c([H])c4[H])C([H])([H])C3([H])[H])C([H])([H])[C@]([H])(S(=O)(=O)c3c([H])c([H])c([H])c([H])c3Cl)C2([H])[H])C([H])([H])C([H])([H])C([H])([H])[H])c(Cl)c1[H]


 49 53  0  0  0  0  0  0  0  0999 V2000
   37.0137  -22.2158   38.1336 C   0  0  0  0  0  0  0  0  0  0  0  0
   35.7645  -22.8733   37.5861 C   0  0  0  0  0  0  0  0  0  0  0  0
   34.6680  -21.9026   37.9582 C   0  0  0  0  0  0  0  0  0  0  0  0
   35.2012  -21.1561   39.1228 C   0  0  0  0  0  0  0  0  0  0  0  0
   36.5687  -21.7018   39.3973 N   0  0  0  0  0  0  0  0  0  0  0  0
   37.1443  -21.6430   40.6473 C   0  0  0  0  0  0  0  0  0  0  0  0
   36.4110  -20.9829   41.5357 O   0  0  0  0  0  0  0  0  0  0  0  0
   37.2460  -20.9822   35.8804 N   0  0  0  0  0  0  0  0  0  0  0  0
   37.5051  -21.1081   37.2544 C   0  0  0  0  0  0  0  0  0  0  0  0
   38.2020  -20.2285   37.8122 O   0  0  0  0  0  0  0  0  0  0  0  0
   36.6756  -21.6704   35.3842 H   0  0  0  0  0  0  0  0  0  0  0  0
   37.7856  -19.8586   35.0961 C   0  0  0  0  0  0  0  0  0  0  0  0
   36.7649  -18.7984   34.9692 C   0  0  0  0  0  0  0  0  0  0  0  0
   36.2144  -18.5614   33.8267 O   0  0  0  0  0  0  0  0  0  0  0  0
   36.3291  -17.9919   36.0826 C   0  0  0  0  0  0  0  0  0  0  0  0
   35.3707  -18.2976   36.8283 O   0  0  0  0  0  0  0  0  0  0  0  0
   37.0030  -16.7484   36.4056 N   0  0  0  0  0  0  0  0  0  0  0  0
   37.8234  -16.4468   35.8125 H   0  0  0  0  0  0  0  0  0  0  0  0
   36.6049  -15.9124   37.4939 C   0  0  0  0  0  0  0  0  0  0  0  0
   35.7773  -14.7356   37.1207 C   0  0  0  0  0  0  0  0  0  0  0  0
   34.4827  -14.8579   36.7500 C   0  0  0  0  0  0  0  0  0  0  0  0
   33.7601  -13.7150   36.3932 C   0  0  0  0  0  0  0  0  0  0  0  0
   34.3195  -12.4650   36.4050 C   0  0  0  0  0  0  0  0  0  0  0  0
   35.6561  -12.3812   36.7905 C   0  0  0  0  0  0  0  0  0  0  0  0
   36.3848  -13.4734   37.1429 C   0  0  0  0  0  0  0  0  0  0  0  0
   38.0626  -13.3541   37.6223 Cl  0  0  0  0  0  0  0  0  0  0  0  0
   38.4684  -20.2969   33.8721 C   0  0  0  0  0  0  0  0  0  0  0  0
   40.8682  -19.7662   33.2750 C   0  0  0  0  0  0  0  0  0  0  0  0
   39.4367  -19.3626   33.2363 C   0  0  0  0  0  0  0  0  0  0  0  0
   38.3841  -22.1334   41.2294 C   0  0  0  0  0  0  0  0  0  0  0  0
   38.3623  -22.9792   42.4601 C   0  0  0  0  0  0  0  0  0  0  0  0
   38.6548  -23.6440   41.1905 C   0  0  0  0  0  0  0  0  0  0  0  0
   39.6247  -21.3664   41.0270 C   0  0  0  0  0  0  0  0  0  0  0  0
   40.3317  -21.3526   39.8533 C   0  0  0  0  0  0  0  0  0  0  0  0
   41.4259  -20.5184   39.7012 C   0  0  0  0  0  0  0  0  0  0  0  0
   41.8225  -19.6879   40.7242 C   0  0  0  0  0  0  0  0  0  0  0  0
   43.2068  -18.6069   40.5772 Cl  0  0  0  0  0  0  0  0  0  0  0  0
   41.1202  -19.6891   41.9143 C   0  0  0  0  0  0  0  0  0  0  0  0
   40.0313  -20.5217   42.0626 C   0  0  0  0  0  0  0  0  0  0  0  0
   33.2034  -22.8220   38.2966 S   0  0  0  0  0  0  0  0  0  0  0  0
   32.0137  -21.9406   38.1437 O   0  0  0  0  0  0  0  0  0  0  0  0
   33.1049  -23.8973   37.2273 O   0  0  0  0  0  0  0  0  0  0  0  0
   33.1681  -23.5555   39.8486 C   0  0  0  0  0  0  0  0  0  0  0  0
   32.4877  -22.9664   40.8861 C   0  0  0  0  0  0  0  0  0  0  0  0
   32.4314  -23.5343   42.1507 C   0  0  0  0  0  0  0  0  0  0  0  0
   33.0676  -24.7281   42.4091 C   0  0  0  0  0  0  0  0  0  0  0  0
   33.7527  -25.3285   41.3771 C   0  0  0  0  0  0  0  0  0  0  0  0
   33.7979  -24.7467   40.1192 C   0  0  0  0  0  0  0  0  0  0  0  0
   34.7000  -25.5855   38.8755 Cl  0  0  0  0  0  0  0  0  0  0  0  0
 28 29  1  0  0  0
 29 27  1  0  0  0
 27 12  1  0  0  0
 12  8  1  0  0  0
  8  9  1  0  0  0
  9 10  2  0  0  0
  9  1  1  0  0  0
  1  2  1  0  0  0
  2  3  1  0  0  0
  3  4  1  0  0  0
  4  5  1  0  0  0
  5  6  1  0  0  0
  6  7  2  0  0  0
  6 30  1  0  0  0
 30 31  1  0  0  0
 31 32  1  0  0  0
 30 33  1  0  0  0
 33 34  2  0  0  0
 34 35  1  0  0  0
 35 36  2  0  0  0
 36 37  1  0  0  0
 36 38  1  0  0  0
 38 39  2  0  0  0
  3 40  1  0  0  0
 40 41  2  0  0  0
 40 42  2  0  0  0
 40 43  1  0  0  0
 43 44  2  0  0  0
 44 45  1  0  0  0
 45 46  2  0  0  0
 46 47  1  0  0  0
 47 48  2  0  0  0
 48 49  1  0  0  0
 12 13  1  0  0  0
 13 14  2  0  0  0
 13 15  1  0  0  0
 15 16  2  0  0  0
 15 17  1  0  0  0
 17 19  1  0  0  0
 19 20  1  0  0  0
 20 21  2  0  0  0
 21 22  1  0  0  0
 22 23  2  0  0  0
 23 24  1  0  0  0
 24 25  2  0  0  0
 25 26  1  0  0  0
  5  1  1  0  0  0
 32 30  1  0  0  0
 39 33  1  0  0  0
 48 43  1  0  0  0
 25 20  1  0  0  0
  8 11  1  0  0  0
 17 18  1  0  0  0
M  END
> <minimizedAffinity>
-6.89125

> <CNNscore>
0.1962634474

> <CNNaffinity>
6.5858597755

> <CNN_VS>
1.2925635576

> <CNNaffinity_variance>
0.3376556635

$$$$
[H]c1c([H])c([H])c(C([H])([H])N([H])C(=O)C(=O)[C@@]([H])(N([H])C(=O)[C@@]2([H])N(C(=O)C3(c4c([H])c([H])c(Cl)c([H])c4[H])C([H])([H])C3([H])[H])C([H])([H])[C@]([H])(S(=O)(=O)c3c([H])c([H])c([H])c([H])c3Cl)C2([H])[H])C([H])([H])C([H])([H])C([H])([H])[H])c(Cl)c1[H]


 49 53  0  0  0  0  0  0  0  0999 V2000
   35.8304  -19.4485   35.5528 C   0  0  0  0  0  0  0  0  0  0  0  0
   34.4855  -19.7960   34.9504 C   0  0  0  0  0  0  0  0  0  0  0  0
   33.6958  -20.3077   36.1327 C   0  0  0  0  0  0  0  0  0  0  0  0
   34.7188  -20.7760   37.0982 C   0  0  0  0  0  0  0  0  0  0  0  0
   36.0543  -20.5329   36.4655 N   0  0  0  0  0  0  0  0  0  0  0  0
   37.1685  -21.2713   36.7980 C   0  0  0  0  0  0  0  0  0  0  0  0
   36.9543  -22.1360   37.7824 O   0  0  0  0  0  0  0  0  0  0  0  0
   35.3656  -16.9188   35.7463 N   0  0  0  0  0  0  0  0  0  0  0  0
   35.8066  -18.1400   36.2801 C   0  0  0  0  0  0  0  0  0  0  0  0
   36.2162  -18.1592   37.4642 O   0  0  0  0  0  0  0  0  0  0  0  0
   35.0149  -16.8559   34.7880 H   0  0  0  0  0  0  0  0  0  0  0  0
   35.3920  -15.6785   36.5399 C   0  0  0  0  0  0  0  0  0  0  0  0
   34.1334  -14.9304   36.3448 C   0  0  0  0  0  0  0  0  0  0  0  0
   33.4086  -15.1419   35.2987 O   0  0  0  0  0  0  0  0  0  0  0  0
   33.6486  -13.9517   37.2866 C   0  0  0  0  0  0  0  0  0  0  0  0
   34.2458  -13.6519   38.3457 O   0  0  0  0  0  0  0  0  0  0  0  0
   32.4071  -13.2413   37.0444 N   0  0  0  0  0  0  0  0  0  0  0  0
   31.8664  -13.4507   36.1614 H   0  0  0  0  0  0  0  0  0  0  0  0
   31.8828  -12.2681   37.9498 C   0  0  0  0  0  0  0  0  0  0  0  0
   32.1762  -10.8534   37.6009 C   0  0  0  0  0  0  0  0  0  0  0  0
   33.4416  -10.3886   37.4944 C   0  0  0  0  0  0  0  0  0  0  0  0
   33.6541   -9.0426   37.1801 C   0  0  0  0  0  0  0  0  0  0  0  0
   32.6194   -8.1694   36.9744 C   0  0  0  0  0  0  0  0  0  0  0  0
   31.3308   -8.6862   37.0954 C   0  0  0  0  0  0  0  0  0  0  0  0
   31.0919   -9.9894   37.3997 C   0  0  0  0  0  0  0  0  0  0  0  0
   29.4693  -10.6244   37.5511 Cl  0  0  0  0  0  0  0  0  0  0  0  0
   36.6530  -14.9397   36.3968 C   0  0  0  0  0  0  0  0  0  0  0  0
   38.1890  -13.3850   37.6698 C   0  0  0  0  0  0  0  0  0  0  0  0
   37.4559  -14.6788   37.6223 C   0  0  0  0  0  0  0  0  0  0  0  0
   38.5430  -21.3236   36.3240 C   0  0  0  0  0  0  0  0  0  0  0  0
   39.0193  -22.4763   35.5026 C   0  0  0  0  0  0  0  0  0  0  0  0
   38.7935  -21.2058   34.8141 C   0  0  0  0  0  0  0  0  0  0  0  0
   39.5935  -20.6343   37.0918 C   0  0  0  0  0  0  0  0  0  0  0  0
   40.2299  -21.1794   38.1760 C   0  0  0  0  0  0  0  0  0  0  0  0
   41.2865  -20.5175   38.7775 C   0  0  0  0  0  0  0  0  0  0  0  0
   41.7174  -19.3020   38.2975 C   0  0  0  0  0  0  0  0  0  0  0  0
   43.0592  -18.4227   39.0275 Cl  0  0  0  0  0  0  0  0  0  0  0  0
   41.0870  -18.7385   37.2045 C   0  0  0  0  0  0  0  0  0  0  0  0
   40.0345  -19.4002   36.6084 C   0  0  0  0  0  0  0  0  0  0  0  0
   32.6031  -21.5689   35.5670 S   0  0  0  0  0  0  0  0  0  0  0  0
   32.5589  -21.5613   34.0792 O   0  0  0  0  0  0  0  0  0  0  0  0
   33.2101  -22.8961   35.9905 O   0  0  0  0  0  0  0  0  0  0  0  0
   31.0040  -21.4509   36.1809 C   0  0  0  0  0  0  0  0  0  0  0  0
   30.5538  -22.3297   37.1356 C   0  0  0  0  0  0  0  0  0  0  0  0
   29.2712  -22.2594   37.6597 C   0  0  0  0  0  0  0  0  0  0  0  0
   28.3939  -21.2882   37.2307 C   0  0  0  0  0  0  0  0  0  0  0  0
   28.8334  -20.4012   36.2742 C   0  0  0  0  0  0  0  0  0  0  0  0
   30.1192  -20.4862   35.7620 C   0  0  0  0  0  0  0  0  0  0  0  0
   30.5807  -19.3155   34.5451 Cl  0  0  0  0  0  0  0  0  0  0  0  0
 28 29  1  0  0  0
 29 27  1  0  0  0
 27 12  1  0  0  0
 12  8  1  0  0  0
  8  9  1  0  0  0
  9 10  2  0  0  0
  9  1  1  0  0  0
  1  2  1  0  0  0
  2  3  1  0  0  0
  3  4  1  0  0  0
  4  5  1  0  0  0
  5  6  1  0  0  0
  6  7  2  0  0  0
  6 30  1  0  0  0
 30 31  1  0  0  0
 31 32  1  0  0  0
 30 33  1  0  0  0
 33 34  2  0  0  0
 34 35  1  0  0  0
 35 36  2  0  0  0
 36 37  1  0  0  0
 36 38  1  0  0  0
 38 39  2  0  0  0
  3 40  1  0  0  0
 40 41  2  0  0  0
 40 42  2  0  0  0
 40 43  1  0  0  0
 43 44  2  0  0  0
 44 45  1  0  0  0
 45 46  2  0  0  0
 46 47  1  0  0  0
 47 48  2  0  0  0
 48 49  1  0  0  0
 12 13  1  0  0  0
 13 14  2  0  0  0
 13 15  1  0  0  0
 15 16  2  0  0  0
 15 17  1  0  0  0
 17 19  1  0  0  0
 19 20  1  0  0  0
 20 21  2  0  0  0
 21 22  1  0  0  0
 22 23  2  0  0  0
 23 24  1  0  0  0
 24 25  2  0  0  0
 25 26  1  0  0  0
  5  1  1  0  0  0
 32 30  1  0  0  0
 39 33  1  0  0  0
 48 43  1  0  0  0
 25 20  1  0  0  0
  8 11  1  0  0  0
 17 18  1  0  0  0
M  END
> <minimizedAffinity>
-9.53270

> <CNNscore>
0.1359797418

> <CNNaffinity>
6.9120650291

> <CNN_VS>
0.9399008155

> <CNNaffinity_variance>
0.0799239278

$$$$
[H]c1c([H])c([H])c(C([H])([H])N([H])C(=O)C(=O)[C@@]([H])(N([H])C(=O)[C@@]2([H])N(C(=O)C3(c4c([H])c([H])c(Cl)c([H])c4[H])C([H])([H])C3([H])[H])C([H])([H])[C@]([H])(S(=O)(=O)c3c([H])c([H])c([H])c([H])c3Cl)C2([H])[H])C([H])([H])C([H])([H])C([H])([H])[H])c(Cl)c1[H]


 49 53  0  0  0  0  0  0  0  0999 V2000
   35.5387  -18.6463   36.6824 C   0  0  0  0  0  0  0  0  0  0  0  0
   34.4046  -19.6491   36.6536 C   0  0  0  0  0  0  0  0  0  0  0  0
   33.9599  -19.6308   35.2096 C   0  0  0  0  0  0  0  0  0  0  0  0
   34.3828  -18.3047   34.6991 C   0  0  0  0  0  0  0  0  0  0  0  0
   35.0487  -17.5951   35.8376 N   0  0  0  0  0  0  0  0  0  0  0  0
   35.1033  -16.2208   35.9137 C   0  0  0  0  0  0  0  0  0  0  0  0
   34.5965  -15.6126   34.8480 O   0  0  0  0  0  0  0  0  0  0  0  0
   37.8578  -18.4692   35.5673 N   0  0  0  0  0  0  0  0  0  0  0  0
   36.8130  -19.2133   36.1379 C   0  0  0  0  0  0  0  0  0  0  0  0
   36.9384  -20.4580   36.2097 O   0  0  0  0  0  0  0  0  0  0  0  0
   37.8041  -17.4508   35.4950 H   0  0  0  0  0  0  0  0  0  0  0  0
   39.0712  -19.1215   35.0470 C   0  0  0  0  0  0  0  0  0  0  0  0
   40.0105  -19.3920   36.1545 C   0  0  0  0  0  0  0  0  0  0  0  0
   40.3900  -18.4346   36.9315 O   0  0  0  0  0  0  0  0  0  0  0  0
   40.5399  -20.7047   36.4310 C   0  0  0  0  0  0  0  0  0  0  0  0
   39.8903  -21.6087   37.0047 O   0  0  0  0  0  0  0  0  0  0  0  0
   41.8933  -21.0549   36.0432 N   0  0  0  0  0  0  0  0  0  0  0  0
   42.4830  -20.3312   35.5491 H   0  0  0  0  0  0  0  0  0  0  0  0
   42.4644  -22.3392   36.3006 C   0  0  0  0  0  0  0  0  0  0  0  0
   42.4702  -23.2744   35.1454 C   0  0  0  0  0  0  0  0  0  0  0  0
   43.0845  -22.9704   33.9797 C   0  0  0  0  0  0  0  0  0  0  0  0
   43.0409  -23.8844   32.9222 C   0  0  0  0  0  0  0  0  0  0  0  0
   42.3932  -25.0868   33.0235 C   0  0  0  0  0  0  0  0  0  0  0  0
   41.7707  -25.3619   34.2397 C   0  0  0  0  0  0  0  0  0  0  0  0
   41.7955  -24.4941   35.2859 C   0  0  0  0  0  0  0  0  0  0  0  0
   41.0077  -24.8509   36.8061 Cl  0  0  0  0  0  0  0  0  0  0  0  0
   39.6029  -18.4587   33.8493 C   0  0  0  0  0  0  0  0  0  0  0  0
   41.0081  -20.2039   32.6760 C   0  0  0  0  0  0  0  0  0  0  0  0
   40.9403  -18.8794   33.3503 C   0  0  0  0  0  0  0  0  0  0  0  0
   35.5972  -15.2669   36.8949 C   0  0  0  0  0  0  0  0  0  0  0  0
   36.3391  -15.7363   38.1030 C   0  0  0  0  0  0  0  0  0  0  0  0
   37.1160  -15.0984   37.0405 C   0  0  0  0  0  0  0  0  0  0  0  0
   34.9022  -13.9788   37.0565 C   0  0  0  0  0  0  0  0  0  0  0  0
   33.8043  -13.7980   37.8562 C   0  0  0  0  0  0  0  0  0  0  0  0
   33.2737  -12.5337   38.0469 C   0  0  0  0  0  0  0  0  0  0  0  0
   33.8391  -11.4365   37.4386 C   0  0  0  0  0  0  0  0  0  0  0  0
   33.2015   -9.8075   37.6529 Cl  0  0  0  0  0  0  0  0  0  0  0  0
   34.9471  -11.6013   36.6294 C   0  0  0  0  0  0  0  0  0  0  0  0
   35.4724  -12.8621   36.4411 C   0  0  0  0  0  0  0  0  0  0  0  0
   32.2198  -19.9040   35.1608 S   0  0  0  0  0  0  0  0  0  0  0  0
   31.5362  -18.9324   36.0575 O   0  0  0  0  0  0  0  0  0  0  0  0
   31.7685  -19.5988   33.7422 O   0  0  0  0  0  0  0  0  0  0  0  0
   31.7391  -21.4975   35.5822 C   0  0  0  0  0  0  0  0  0  0  0  0
   32.6675  -22.5041   35.6878 C   0  0  0  0  0  0  0  0  0  0  0  0
   32.3163  -23.8010   36.0337 C   0  0  0  0  0  0  0  0  0  0  0  0
   31.0016  -24.1246   36.2863 C   0  0  0  0  0  0  0  0  0  0  0  0
   30.0617  -23.1242   36.1840 C   0  0  0  0  0  0  0  0  0  0  0  0
   30.4310  -21.8332   35.8376 C   0  0  0  0  0  0  0  0  0  0  0  0
   29.1608  -20.6337   35.7281 Cl  0  0  0  0  0  0  0  0  0  0  0  0
 28 29  1  0  0  0
 29 27  1  0  0  0
 27 12  1  0  0  0
 12  8  1  0  0  0
  8  9  1  0  0  0
  9 10  2  0  0  0
  9  1  1  0  0  0
  1  2  1  0  0  0
  2  3  1  0  0  0
  3  4  1  0  0  0
  4  5  1  0  0  0
  5  6  1  0  0  0
  6  7  2  0  0  0
  6 30  1  0  0  0
 30 31  1  0  0  0
 31 32  1  0  0  0
 30 33  1  0  0  0
 33 34  2  0  0  0
 34 35  1  0  0  0
 35 36  2  0  0  0
 36 37  1  0  0  0
 36 38  1  0  0  0
 38 39  2  0  0  0
  3 40  1  0  0  0
 40 41  2  0  0  0
 40 42  2  0  0  0
 40 43  1  0  0  0
 43 44  2  0  0  0
 44 45  1  0  0  0
 45 46  2  0  0  0
 46 47  1  0  0  0
 47 48  2  0  0  0
 48 49  1  0  0  0
 12 13  1  0  0  0
 13 14  2  0  0  0
 13 15  1  0  0  0
 15 16  2  0  0  0
 15 17  1  0  0  0
 17 19  1  0  0  0
 19 20  1  0  0  0
 20 21  2  0  0  0
 21 22  1  0  0  0
 22 23  2  0  0  0
 23 24  1  0  0  0
 24 25  2  0  0  0
 25 26  1  0  0  0
  5  1  1  0  0  0
 32 30  1  0  0  0
 39 33  1  0  0  0
 48 43  1  0  0  0
 25 20  1  0  0  0
  8 11  1  0  0  0
 17 18  1  0  0  0
M  END
> <minimizedAffinity>
-7.33948

> <CNNscore>
0.1152958050

> <CNNaffinity>
6.4811182022

> <CNN_VS>
0.7472457290

> <CNNaffinity_variance>
0.0941632241

$$$$
[H]c1c([H])c([H])c(C([H])([H])N([H])C(=O)C(=O)[C@@]([H])(N([H])C(=O)[C@@]2([H])N(C(=O)C3(c4c([H])c([H])c(Cl)c([H])c4[H])C([H])([H])C3([H])[H])C([H])([H])[C@]([H])(S(=O)(=O)c3c([H])c([H])c([H])c([H])c3Cl)C2([H])[H])C([H])([H])C([H])([H])C([H])([H])[H])c(Cl)c1[H]


 49 53  0  0  0  0  0  0  0  0999 V2000
   38.7791  -20.4587   35.2844 C   0  0  0  0  0  0  0  0  0  0  0  0
   37.7535  -19.4655   34.7799 C   0  0  0  0  0  0  0  0  0  0  0  0
   37.7213  -18.4157   35.8663 C   0  0  0  0  0  0  0  0  0  0  0  0
   38.1940  -19.1158   37.0846 C   0  0  0  0  0  0  0  0  0  0  0  0
   38.4821  -20.5306   36.6864 N   0  0  0  0  0  0  0  0  0  0  0  0
   38.4377  -21.5699   37.5892 C   0  0  0  0  0  0  0  0  0  0  0  0
   38.2096  -21.1764   38.8365 O   0  0  0  0  0  0  0  0  0  0  0  0
   41.1227  -19.7250   36.0730 N   0  0  0  0  0  0  0  0  0  0  0  0
   40.1830  -19.9878   35.0636 C   0  0  0  0  0  0  0  0  0  0  0  0
   40.5290  -19.8237   33.8704 O   0  0  0  0  0  0  0  0  0  0  0  0
   40.8888  -19.8527   37.0600 H   0  0  0  0  0  0  0  0  0  0  0  0
   42.4807  -19.2522   35.7550 C   0  0  0  0  0  0  0  0  0  0  0  0
   43.4807  -20.1913   36.3027 C   0  0  0  0  0  0  0  0  0  0  0  0
   44.1797  -20.9301   35.5090 O   0  0  0  0  0  0  0  0  0  0  0  0
   43.7343  -20.3309   37.7155 C   0  0  0  0  0  0  0  0  0  0  0  0
   44.6217  -19.6941   38.3280 O   0  0  0  0  0  0  0  0  0  0  0  0
   42.9466  -21.2430   38.5233 N   0  0  0  0  0  0  0  0  0  0  0  0
   42.1793  -21.8000   38.0578 H   0  0  0  0  0  0  0  0  0  0  0  0
   43.1637  -21.4207   39.9244 C   0  0  0  0  0  0  0  0  0  0  0  0
   41.9601  -21.2512   40.7798 C   0  0  0  0  0  0  0  0  0  0  0  0
   41.0843  -22.2591   40.9933 C   0  0  0  0  0  0  0  0  0  0  0  0
   39.9604  -22.0336   41.7944 C   0  0  0  0  0  0  0  0  0  0  0  0
   39.7109  -20.8191   42.3759 C   0  0  0  0  0  0  0  0  0  0  0  0
   40.6355  -19.8057   42.1300 C   0  0  0  0  0  0  0  0  0  0  0  0
   41.7373  -19.9939   41.3562 C   0  0  0  0  0  0  0  0  0  0  0  0
   42.8884  -18.7124   41.0536 Cl  0  0  0  0  0  0  0  0  0  0  0  0
   42.6640  -17.8223   36.0345 C   0  0  0  0  0  0  0  0  0  0  0  0
   44.2064  -15.9817   35.2408 C   0  0  0  0  0  0  0  0  0  0  0  0
   43.1161  -16.9426   34.9226 C   0  0  0  0  0  0  0  0  0  0  0  0
   38.5902  -23.0139   37.4989 C   0  0  0  0  0  0  0  0  0  0  0  0
   37.5177  -23.9233   38.0018 C   0  0  0  0  0  0  0  0  0  0  0  0
   37.6576  -23.7830   36.5527 C   0  0  0  0  0  0  0  0  0  0  0  0
   39.9437  -23.5939   37.4975 C   0  0  0  0  0  0  0  0  0  0  0  0
   40.3916  -24.4910   38.4314 C   0  0  0  0  0  0  0  0  0  0  0  0
   41.6376  -25.0796   38.3002 C   0  0  0  0  0  0  0  0  0  0  0  0
   42.4479  -24.7759   37.2303 C   0  0  0  0  0  0  0  0  0  0  0  0
   44.0404  -25.5009   37.0187 Cl  0  0  0  0  0  0  0  0  0  0  0  0
   42.0112  -23.8736   36.2791 C   0  0  0  0  0  0  0  0  0  0  0  0
   40.7699  -23.2887   36.4133 C   0  0  0  0  0  0  0  0  0  0  0  0
   36.0792  -17.7877   35.9833 S   0  0  0  0  0  0  0  0  0  0  0  0
   35.8244  -17.3107   37.3701 O   0  0  0  0  0  0  0  0  0  0  0  0
   36.0088  -16.5738   35.0719 O   0  0  0  0  0  0  0  0  0  0  0  0
   34.8569  -18.9080   35.5372 C   0  0  0  0  0  0  0  0  0  0  0  0
   34.2830  -18.8585   34.2904 C   0  0  0  0  0  0  0  0  0  0  0  0
   33.2988  -19.7520   33.8932 C   0  0  0  0  0  0  0  0  0  0  0  0
   32.8591  -20.7341   34.7528 C   0  0  0  0  0  0  0  0  0  0  0  0
   33.4269  -20.7943   36.0052 C   0  0  0  0  0  0  0  0  0  0  0  0
   34.4100  -19.8931   36.3851 C   0  0  0  0  0  0  0  0  0  0  0  0
   35.0651  -20.0489   38.0009 Cl  0  0  0  0  0  0  0  0  0  0  0  0
 28 29  1  0  0  0
 29 27  1  0  0  0
 27 12  1  0  0  0
 12  8  1  0  0  0
  8  9  1  0  0  0
  9 10  2  0  0  0
  9  1  1  0  0  0
  1  2  1  0  0  0
  2  3  1  0  0  0
  3  4  1  0  0  0
  4  5  1  0  0  0
  5  6  1  0  0  0
  6  7  2  0  0  0
  6 30  1  0  0  0
 30 31  1  0  0  0
 31 32  1  0  0  0
 30 33  1  0  0  0
 33 34  2  0  0  0
 34 35  1  0  0  0
 35 36  2  0  0  0
 36 37  1  0  0  0
 36 38  1  0  0  0
 38 39  2  0  0  0
  3 40  1  0  0  0
 40 41  2  0  0  0
 40 42  2  0  0  0
 40 43  1  0  0  0
 43 44  2  0  0  0
 44 45  1  0  0  0
 45 46  2  0  0  0
 46 47  1  0  0  0
 47 48  2  0  0  0
 48 49  1  0  0  0
 12 13  1  0  0  0
 13 14  2  0  0  0
 13 15  1  0  0  0
 15 16  2  0  0  0
 15 17  1  0  0  0
 17 19  1  0  0  0
 19 20  1  0  0  0
 20 21  2  0  0  0
 21 22  1  0  0  0
 22 23  2  0  0  0
 23 24  1  0  0  0
 24 25  2  0  0  0
 25 26  1  0  0  0
  5  1  1  0  0  0
 32 30  1  0  0  0
 39 33  1  0  0  0
 48 43  1  0  0  0
 25 20  1  0  0  0
  8 11  1  0  0  0
 17 18  1  0  0  0
M  END
> <minimizedAffinity>
-5.00273

> <CNNscore>
0.1042418703

> <CNNaffinity>
6.2566347122

> <CNN_VS>
0.6522033215

> <CNNaffinity_variance>
0.3236557245

$$$$
[H]c1c([H])c([H])c(C([H])([H])N([H])C(=O)C(=O)[C@@]([H])(N([H])C(=O)[C@@]2([H])N(C(=O)C3(c4c([H])c([H])c(Cl)c([H])c4[H])C([H])([H])C3([H])[H])C([H])([H])[C@]([H])(S(=O)(=O)c3c([H])c([H])c([H])c([H])c3Cl)C2([H])[H])C([H])([H])C([H])([H])C([H])([H])[H])c(Cl)c1[H]


 49 53  0  0  0  0  0  0  0  0999 V2000
   35.4207  -17.1198   35.2087 C   0  0  0  0  0  0  0  0  0  0  0  0
   36.4375  -18.0867   34.6396 C   0  0  0  0  0  0  0  0  0  0  0  0
   36.8715  -18.8860   35.8462 C   0  0  0  0  0  0  0  0  0  0  0  0
   36.5934  -18.0046   37.0054 C   0  0  0  0  0  0  0  0  0  0  0  0
   36.0174  -16.7359   36.4559 N   0  0  0  0  0  0  0  0  0  0  0  0
   36.1146  -15.5362   37.1255 C   0  0  0  0  0  0  0  0  0  0  0  0
   36.6778  -15.6440   38.3229 O   0  0  0  0  0  0  0  0  0  0  0  0
   33.8454  -19.1463   35.4625 N   0  0  0  0  0  0  0  0  0  0  0  0
   34.0881  -17.7638   35.4347 C   0  0  0  0  0  0  0  0  0  0  0  0
   33.1225  -16.9858   35.6149 O   0  0  0  0  0  0  0  0  0  0  0  0
   34.6032  -19.8195   35.3291 H   0  0  0  0  0  0  0  0  0  0  0  0
   32.4923  -19.6850   35.6811 C   0  0  0  0  0  0  0  0  0  0  0  0
   32.5136  -20.6625   36.7884 C   0  0  0  0  0  0  0  0  0  0  0  0
   31.4133  -21.1852   37.2134 O   0  0  0  0  0  0  0  0  0  0  0  0
   33.7296  -21.0850   37.4384 C   0  0  0  0  0  0  0  0  0  0  0  0
   34.7552  -21.4530   36.8212 O   0  0  0  0  0  0  0  0  0  0  0  0
   33.8290  -21.1024   38.8857 N   0  0  0  0  0  0  0  0  0  0  0  0
   32.9946  -20.7943   39.4555 H   0  0  0  0  0  0  0  0  0  0  0  0
   35.0092  -21.5183   39.5755 C   0  0  0  0  0  0  0  0  0  0  0  0
   35.2299  -20.8785   40.8988 C   0  0  0  0  0  0  0  0  0  0  0  0
   34.5020  -19.8164   41.3121 C   0  0  0  0  0  0  0  0  0  0  0  0
   34.7679  -19.2465   42.5612 C   0  0  0  0  0  0  0  0  0  0  0  0
   35.7469  -19.7278   43.3891 C   0  0  0  0  0  0  0  0  0  0  0  0
   36.4761  -20.8216   42.9263 C   0  0  0  0  0  0  0  0  0  0  0  0
   36.2415  -21.3974   41.7174 C   0  0  0  0  0  0  0  0  0  0  0  0
   37.1661  -22.7683   41.1476 Cl  0  0  0  0  0  0  0  0  0  0  0  0
   31.8318  -20.0849   34.4320 C   0  0  0  0  0  0  0  0  0  0  0  0
   29.8058  -18.8413   35.2957 C   0  0  0  0  0  0  0  0  0  0  0  0
   30.4313  -19.6360   34.2044 C   0  0  0  0  0  0  0  0  0  0  0  0
   35.7354  -14.1631   36.8297 C   0  0  0  0  0  0  0  0  0  0  0  0
   36.7647  -13.0815   36.7978 C   0  0  0  0  0  0  0  0  0  0  0  0
   36.2306  -13.5418   35.5163 C   0  0  0  0  0  0  0  0  0  0  0  0
   34.3712  -13.7106   37.1499 C   0  0  0  0  0  0  0  0  0  0  0  0
   33.9514  -13.3829   38.4124 C   0  0  0  0  0  0  0  0  0  0  0  0
   32.6878  -12.8567   38.6190 C   0  0  0  0  0  0  0  0  0  0  0  0
   31.8315  -12.6522   37.5614 C   0  0  0  0  0  0  0  0  0  0  0  0
   30.2149  -11.9829   37.7737 Cl  0  0  0  0  0  0  0  0  0  0  0  0
   32.2394  -12.9768   36.2815 C   0  0  0  0  0  0  0  0  0  0  0  0
   33.4983  -13.5014   36.0796 C   0  0  0  0  0  0  0  0  0  0  0  0
   38.5706  -19.3095   35.6501 S   0  0  0  0  0  0  0  0  0  0  0  0
   39.0833  -18.7405   34.3738 O   0  0  0  0  0  0  0  0  0  0  0  0
   39.3248  -18.6277   36.7796 O   0  0  0  0  0  0  0  0  0  0  0  0
   38.8909  -20.9959   35.6864 C   0  0  0  0  0  0  0  0  0  0  0  0
   39.2610  -21.6631   34.5444 C   0  0  0  0  0  0  0  0  0  0  0  0
   39.5349  -23.0232   34.5382 C   0  0  0  0  0  0  0  0  0  0  0  0
   39.4424  -23.7594   35.6984 C   0  0  0  0  0  0  0  0  0  0  0  0
   39.0727  -23.1020   36.8498 C   0  0  0  0  0  0  0  0  0  0  0  0
   38.8031  -21.7418   36.8375 C   0  0  0  0  0  0  0  0  0  0  0  0
   38.3350  -20.9994   38.3521 Cl  0  0  0  0  0  0  0  0  0  0  0  0
 28 29  1  0  0  0
 29 27  1  0  0  0
 27 12  1  0  0  0
 12  8  1  0  0  0
  8  9  1  0  0  0
  9 10  2  0  0  0
  9  1  1  0  0  0
  1  2  1  0  0  0
  2  3  1  0  0  0
  3  4  1  0  0  0
  4  5  1  0  0  0
  5  6  1  0  0  0
  6  7  2  0  0  0
  6 30  1  0  0  0
 30 31  1  0  0  0
 31 32  1  0  0  0
 30 33  1  0  0  0
 33 34  2  0  0  0
 34 35  1  0  0  0
 35 36  2  0  0  0
 36 37  1  0  0  0
 36 38  1  0  0  0
 38 39  2  0  0  0
  3 40  1  0  0  0
 40 41  2  0  0  0
 40 42  2  0  0  0
 40 43  1  0  0  0
 43 44  2  0  0  0
 44 45  1  0  0  0
 45 46  2  0  0  0
 46 47  1  0  0  0
 47 48  2  0  0  0
 48 49  1  0  0  0
 12 13  1  0  0  0
 13 14  2  0  0  0
 13 15  1  0  0  0
 15 16  2  0  0  0
 15 17  1  0  0  0
 17 19  1  0  0  0
 19 20  1  0  0  0
 20 21  2  0  0  0
 21 22  1  0  0  0
 22 23  2  0  0  0
 23 24  1  0  0  0
 24 25  2  0  0  0
 25 26  1  0  0  0
  5  1  1  0  0  0
 32 30  1  0  0  0
 39 33  1  0  0  0
 48 43  1  0  0  0
 25 20  1  0  0  0
  8 11  1  0  0  0
 17 18  1  0  0  0
M  END
> <minimizedAffinity>
-6.71431

> <CNNscore>
0.1023900136

> <CNNaffinity>
6.4325380325

> <CNN_VS>
0.6586276293

> <CNNaffinity_variance>
0.5381616950

$$$$
[H]c1c([H])c([H])c(C([H])([H])N([H])C(=O)C(=O)[C@@]([H])(N([H])C(=O)[C@@]2([H])N(C(=O)C3(c4c([H])c([H])c(Cl)c([H])c4[H])C([H])([H])C3([H])[H])C([H])([H])[C@]([H])(S(=O)(=O)c3c([H])c([H])c([H])c([H])c3Cl)C2([H])[H])C([H])([H])C([H])([H])C([H])([H])[H])c(Cl)c1[H]


 49 53  0  0  0  0  0  0  0  0999 V2000
   34.8315  -20.9180   36.8832 C   0  0  0  0  0  0  0  0  0  0  0  0
   36.1869  -20.3036   36.6038 C   0  0  0  0  0  0  0  0  0  0  0  0
   36.1088  -18.9601   37.2909 C   0  0  0  0  0  0  0  0  0  0  0  0
   34.6600  -18.6533   37.3609 C   0  0  0  0  0  0  0  0  0  0  0  0
   33.9430  -19.8028   36.7223 N   0  0  0  0  0  0  0  0  0  0  0  0
   32.6979  -19.6636   36.1500 C   0  0  0  0  0  0  0  0  0  0  0  0
   32.1776  -18.4522   36.3060 O   0  0  0  0  0  0  0  0  0  0  0  0
   35.7095  -22.2677   38.8983 N   0  0  0  0  0  0  0  0  0  0  0  0
   34.7353  -21.4766   38.2690 C   0  0  0  0  0  0  0  0  0  0  0  0
   33.6908  -21.2006   38.9040 O   0  0  0  0  0  0  0  0  0  0  0  0
   36.5812  -22.5115   38.4230 H   0  0  0  0  0  0  0  0  0  0  0  0
   35.5172  -22.7817   40.2649 C   0  0  0  0  0  0  0  0  0  0  0  0
   36.6529  -22.3770   41.1183 C   0  0  0  0  0  0  0  0  0  0  0  0
   36.5306  -22.3745   42.4026 O   0  0  0  0  0  0  0  0  0  0  0  0
   37.9319  -21.9781   40.5846 C   0  0  0  0  0  0  0  0  0  0  0  0
   38.0787  -21.0586   39.7472 O   0  0  0  0  0  0  0  0  0  0  0  0
   39.1509  -22.6416   41.0073 N   0  0  0  0  0  0  0  0  0  0  0  0
   39.0848  -23.4200   41.7182 H   0  0  0  0  0  0  0  0  0  0  0  0
   40.4400  -22.2867   40.5031 C   0  0  0  0  0  0  0  0  0  0  0  0
   41.1204  -21.1789   41.2234 C   0  0  0  0  0  0  0  0  0  0  0  0
   41.3191  -21.2082   42.5607 C   0  0  0  0  0  0  0  0  0  0  0  0
   41.9503  -20.1275   43.1846 C   0  0  0  0  0  0  0  0  0  0  0  0
   42.3787  -19.0304   42.4859 C   0  0  0  0  0  0  0  0  0  0  0  0
   42.1536  -19.0372   41.1105 C   0  0  0  0  0  0  0  0  0  0  0  0
   41.5429  -20.0724   40.4752 C   0  0  0  0  0  0  0  0  0  0  0  0
   41.2644  -20.0668   38.7486 Cl  0  0  0  0  0  0  0  0  0  0  0  0
   35.1163  -24.1942   40.2890 C   0  0  0  0  0  0  0  0  0  0  0  0
   34.0995  -25.4558   38.3471 C   0  0  0  0  0  0  0  0  0  0  0  0
   35.3257  -25.0037   39.0580 C   0  0  0  0  0  0  0  0  0  0  0  0
   31.8045  -20.5430   35.4117 C   0  0  0  0  0  0  0  0  0  0  0  0
   31.5069  -20.2867   33.9709 C   0  0  0  0  0  0  0  0  0  0  0  0
   32.3996  -21.4014   34.2868 C   0  0  0  0  0  0  0  0  0  0  0  0
   30.7551  -21.2756   36.1401 C   0  0  0  0  0  0  0  0  0  0  0  0
   31.0081  -22.2555   37.0638 C   0  0  0  0  0  0  0  0  0  0  0  0
   29.9745  -22.8201   37.7912 C   0  0  0  0  0  0  0  0  0  0  0  0
   28.6756  -22.4074   37.6009 C   0  0  0  0  0  0  0  0  0  0  0  0
   27.3269  -23.0940   38.5042 Cl  0  0  0  0  0  0  0  0  0  0  0  0
   28.4032  -21.4197   36.6736 C   0  0  0  0  0  0  0  0  0  0  0  0
   29.4351  -20.8602   35.9504 C   0  0  0  0  0  0  0  0  0  0  0  0
   37.0497  -17.8016   36.3542 S   0  0  0  0  0  0  0  0  0  0  0  0
   38.4966  -17.9685   36.6613 O   0  0  0  0  0  0  0  0  0  0  0  0
   36.8576  -18.1632   34.8908 O   0  0  0  0  0  0  0  0  0  0  0  0
   36.6049  -16.1615   36.6000 C   0  0  0  0  0  0  0  0  0  0  0  0
   37.3662  -15.3414   37.3964 C   0  0  0  0  0  0  0  0  0  0  0  0
   37.0414  -14.0098   37.6111 C   0  0  0  0  0  0  0  0  0  0  0  0
   35.9252  -13.4594   37.0213 C   0  0  0  0  0  0  0  0  0  0  0  0
   35.1542  -14.2712   36.2205 C   0  0  0  0  0  0  0  0  0  0  0  0
   35.4943  -15.6000   36.0167 C   0  0  0  0  0  0  0  0  0  0  0  0
   34.4465  -16.5510   34.9863 Cl  0  0  0  0  0  0  0  0  0  0  0  0
 28 29  1  0  0  0
 29 27  1  0  0  0
 27 12  1  0  0  0
 12  8  1  0  0  0
  8  9  1  0  0  0
  9 10  2  0  0  0
  9  1  1  0  0  0
  1  2  1  0  0  0
  2  3  1  0  0  0
  3  4  1  0  0  0
  4  5  1  0  0  0
  5  6  1  0  0  0
  6  7  2  0  0  0
  6 30  1  0  0  0
 30 31  1  0  0  0
 31 32  1  0  0  0
 30 33  1  0  0  0
 33 34  2  0  0  0
 34 35  1  0  0  0
 35 36  2  0  0  0
 36 37  1  0  0  0
 36 38  1  0  0  0
 38 39  2  0  0  0
  3 40  1  0  0  0
 40 41  2  0  0  0
 40 42  2  0  0  0
 40 43  1  0  0  0
 43 44  2  0  0  0
 44 45  1  0  0  0
 45 46  2  0  0  0
 46 47  1  0  0  0
 47 48  2  0  0  0
 48 49  1  0  0  0
 12 13  1  0  0  0
 13 14  2  0  0  0
 13 15  1  0  0  0
 15 16  2  0  0  0
 15 17  1  0  0  0
 17 19  1  0  0  0
 19 20  1  0  0  0
 20 21  2  0  0  0
 21 22  1  0  0  0
 22 23  2  0  0  0
 23 24  1  0  0  0
 24 25  2  0  0  0
 25 26  1  0  0  0
  5  1  1  0  0  0
 32 30  1  0  0  0
 39 33  1  0  0  0
 48 43  1  0  0  0
 25 20  1  0  0  0
  8 11  1  0  0  0
 17 18  1  0  0  0
M  END
> <minimizedAffinity>
-6.21963

> <CNNscore>
0.0924019143

> <CNNaffinity>
6.1387848854

> <CNN_VS>
0.5672354698

> <CNNaffinity_variance>
0.3807750344

$$$$
[H]c1nc(N([H])C(=O)c2c([H])c(Oc3c([H])c([H])c(S(=O)(=O)C4([H])C([H])([H])C4([H])[H])c([H])c3[H])c([H])c(O[C@@]([H])(C([H])([H])[H])C([H])([H])OC([H])([H])[H])c2[H])sc1[H]


 34 37  0  0  0  0  0  0  0  0999 V2000
   35.1923  -16.7005   35.7967 C   0  0  0  0  0  0  0  0  0  0  0  0
   34.1109  -17.3117   35.1464 C   0  0  0  0  0  0  0  0  0  0  0  0
   34.3262  -18.3744   34.3368 C   0  0  0  0  0  0  0  0  0  0  0  0
   35.6060  -18.8483   34.1567 C   0  0  0  0  0  0  0  0  0  0  0  0
   36.6978  -18.2821   34.7711 C   0  0  0  0  0  0  0  0  0  0  0  0
   36.4493  -17.2041   35.5880 C   0  0  0  0  0  0  0  0  0  0  0  0
   38.0549  -18.8073   34.5752 C   0  0  0  0  0  0  0  0  0  0  0  0
   38.2720  -19.5047   33.5403 O   0  0  0  0  0  0  0  0  0  0  0  0
   39.0769  -18.5406   35.5074 N   0  0  0  0  0  0  0  0  0  0  0  0
   38.8800  -17.9713   36.3382 H   0  0  0  0  0  0  0  0  0  0  0  0
   40.3888  -19.0642   35.3312 C   0  0  0  0  0  0  0  0  0  0  0  0
   41.3643  -18.5699   34.5719 N   0  0  0  0  0  0  0  0  0  0  0  0
   42.5110  -19.1638   34.5293 C   0  0  0  0  0  0  0  0  0  0  0  0
   42.6720  -20.2982   35.2858 C   0  0  0  0  0  0  0  0  0  0  0  0
   41.1355  -20.4362   36.0187 S   0  0  0  0  0  0  0  0  0  0  0  0
   34.9026  -15.6181   36.6125 O   0  0  0  0  0  0  0  0  0  0  0  0
   34.8581  -14.2667   36.2870 C   0  0  0  0  0  0  0  0  0  0  0  0
   33.3999  -13.7719   36.2525 C   0  0  0  0  0  0  0  0  0  0  0  0
   35.6120  -13.5116   37.3488 C   0  0  0  0  0  0  0  0  0  0  0  0
   37.8742  -13.5718   37.5155 C   0  0  0  0  0  0  0  0  0  0  0  0
   36.7024  -14.2166   37.7726 O   0  0  0  0  0  0  0  0  0  0  0  0
   33.2625  -19.0179   33.6605 O   0  0  0  0  0  0  0  0  0  0  0  0
   32.3024  -19.6184   34.4423 C   0  0  0  0  0  0  0  0  0  0  0  0
   30.9841  -19.2106   34.3698 C   0  0  0  0  0  0  0  0  0  0  0  0
   30.0195  -19.8066   35.1509 C   0  0  0  0  0  0  0  0  0  0  0  0
   30.3039  -20.8229   36.0319 C   0  0  0  0  0  0  0  0  0  0  0  0
   31.6201  -21.2289   36.1020 C   0  0  0  0  0  0  0  0  0  0  0  0
   32.5998  -20.6446   35.3285 C   0  0  0  0  0  0  0  0  0  0  0  0
   29.0366  -21.5428   37.0251 S   0  0  0  0  0  0  0  0  0  0  0  0
   29.6234  -22.2531   38.2165 O   0  0  0  0  0  0  0  0  0  0  0  0
   28.1040  -20.4872   37.5482 O   0  0  0  0  0  0  0  0  0  0  0  0
   28.1841  -22.7128   35.9904 C   0  0  0  0  0  0  0  0  0  0  0  0
   29.0240  -23.9079   35.5957 C   0  0  0  0  0  0  0  0  0  0  0  0
   27.8647  -24.0229   36.5836 C   0  0  0  0  0  0  0  0  0  0  0  0
 20 21  1  0  0  0
 21 19  1  0  0  0
 19 17  1  0  0  0
 17 18  1  0  0  0
 17 16  1  0  0  0
 16  1  1  0  0  0
  1  2  2  0  0  0
  2  3  1  0  0  0
  3 22  1  0  0  0
 22 23  1  0  0  0
 23 24  2  0  0  0
 24 25  1  0  0  0
 25 26  2  0  0  0
 26 27  1  0  0  0
 27 28  2  0  0  0
 26 29  1  0  0  0
 29 30  2  0  0  0
 29 31  2  0  0  0
 29 32  1  0  0  0
 32 33  1  0  0  0
 33 34  1  0  0  0
  3  4  2  0  0  0
  4  5  1  0  0  0
  5  6  2  0  0  0
  5  7  1  0  0  0
  7  8  2  0  0  0
  7  9  1  0  0  0
  9 11  1  0  0  0
 11 12  2  0  0  0
 12 13  1  0  0  0
 13 14  2  0  0  0
 14 15  1  0  0  0
  6  1  1  0  0  0
 15 11  1  0  0  0
 28 23  1  0  0  0
 34 32  1  0  0  0
  9 10  1  0  0  0
M  END
> <minimizedAffinity>
-7.25138

> <CNNscore>
0.3647942841

> <CNNaffinity>
5.7513985634

> <CNN_VS>
2.0980772972

> <CNNaffinity_variance>
0.2484323978

$$$$
[H]c1nc(N([H])C(=O)c2c([H])c(Oc3c([H])c([H])c(S(=O)(=O)C4([H])C([H])([H])C4([H])[H])c([H])c3[H])c([H])c(O[C@@]([H])(C([H])([H])[H])C([H])([H])OC([H])([H])[H])c2[H])sc1[H]


 34 37  0  0  0  0  0  0  0  0999 V2000
   34.0014  -18.4525   35.4469 C   0  0  0  0  0  0  0  0  0  0  0  0
   35.2721  -18.7235   34.9201 C   0  0  0  0  0  0  0  0  0  0  0  0
   36.2137  -17.7518   34.9012 C   0  0  0  0  0  0  0  0  0  0  0  0
   35.9174  -16.5031   35.3991 C   0  0  0  0  0  0  0  0  0  0  0  0
   34.6862  -16.1891   35.9242 C   0  0  0  0  0  0  0  0  0  0  0  0
   33.7493  -17.1956   35.9307 C   0  0  0  0  0  0  0  0  0  0  0  0
   34.3912  -14.8544   36.4603 C   0  0  0  0  0  0  0  0  0  0  0  0
   35.3015  -14.2711   37.1203 O   0  0  0  0  0  0  0  0  0  0  0  0
   33.1387  -14.2470   36.2438 N   0  0  0  0  0  0  0  0  0  0  0  0
   32.4158  -14.7363   35.7042 H   0  0  0  0  0  0  0  0  0  0  0  0
   32.8418  -12.9615   36.7782 C   0  0  0  0  0  0  0  0  0  0  0  0
   31.6449  -12.3931   36.9068 N   0  0  0  0  0  0  0  0  0  0  0  0
   31.5440  -11.2145   37.4265 C   0  0  0  0  0  0  0  0  0  0  0  0
   32.6997  -10.5931   37.8308 C   0  0  0  0  0  0  0  0  0  0  0  0
   33.8731  -11.7668   37.4277 S   0  0  0  0  0  0  0  0  0  0  0  0
   33.0843  -19.4917   35.4376 O   0  0  0  0  0  0  0  0  0  0  0  0
   32.2168  -19.8816   34.4229 C   0  0  0  0  0  0  0  0  0  0  0  0
   32.3348  -21.3963   34.1699 C   0  0  0  0  0  0  0  0  0  0  0  0
   30.8144  -19.5617   34.8669 C   0  0  0  0  0  0  0  0  0  0  0  0
   29.2505  -20.6700   36.0812 C   0  0  0  0  0  0  0  0  0  0  0  0
   30.0673  -20.6983   34.9917 O   0  0  0  0  0  0  0  0  0  0  0  0
   37.5073  -17.9840   34.3761 O   0  0  0  0  0  0  0  0  0  0  0  0
   38.2479  -18.9814   34.9677 C   0  0  0  0  0  0  0  0  0  0  0  0
   38.6164  -20.1017   34.2475 C   0  0  0  0  0  0  0  0  0  0  0  0
   39.3560  -21.1036   34.8349 C   0  0  0  0  0  0  0  0  0  0  0  0
   39.7643  -21.0509   36.1465 C   0  0  0  0  0  0  0  0  0  0  0  0
   39.3962  -19.9315   36.8632 C   0  0  0  0  0  0  0  0  0  0  0  0
   38.6561  -18.9183   36.2931 C   0  0  0  0  0  0  0  0  0  0  0  0
   40.6951  -22.3684   36.8597 S   0  0  0  0  0  0  0  0  0  0  0  0
   39.8233  -23.2350   37.7300 O   0  0  0  0  0  0  0  0  0  0  0  0
   41.2775  -23.2499   35.7914 O   0  0  0  0  0  0  0  0  0  0  0  0
   41.9670  -21.6137   37.8490 C   0  0  0  0  0  0  0  0  0  0  0  0
   43.0543  -22.5716   38.2844 C   0  0  0  0  0  0  0  0  0  0  0  0
   43.3019  -21.4857   37.2391 C   0  0  0  0  0  0  0  0  0  0  0  0
 20 21  1  0  0  0
 21 19  1  0  0  0
 19 17  1  0  0  0
 17 18  1  0  0  0
 17 16  1  0  0  0
 16  1  1  0  0  0
  1  2  2  0  0  0
  2  3  1  0  0  0
  3 22  1  0  0  0
 22 23  1  0  0  0
 23 24  2  0  0  0
 24 25  1  0  0  0
 25 26  2  0  0  0
 26 27  1  0  0  0
 27 28  2  0  0  0
 26 29  1  0  0  0
 29 30  2  0  0  0
 29 31  2  0  0  0
 29 32  1  0  0  0
 32 33  1  0  0  0
 33 34  1  0  0  0
  3  4  2  0  0  0
  4  5  1  0  0  0
  5  6  2  0  0  0
  5  7  1  0  0  0
  7  8  2  0  0  0
  7  9  1  0  0  0
  9 11  1  0  0  0
 11 12  2  0  0  0
 12 13  1  0  0  0
 13 14  2  0  0  0
 14 15  1  0  0  0
  6  1  1  0  0  0
 15 11  1  0  0  0
 28 23  1  0  0  0
 34 32  1  0  0  0
  9 10  1  0  0  0
M  END
> <minimizedAffinity>
-6.10297

> <CNNscore>
0.3487145901

> <CNNaffinity>
5.7908334732

> <CNN_VS>
2.0193481445

> <CNNaffinity_variance>
0.2653313577

$$$$
[H]c1nc(N([H])C(=O)c2c([H])c(Oc3c([H])c([H])c(S(=O)(=O)C4([H])C([H])([H])C4([H])[H])c([H])c3[H])c([H])c(O[C@@]([H])(C([H])([H])[H])C([H])([H])OC([H])([H])[H])c2[H])sc1[H]


 34 37  0  0  0  0  0  0  0  0999 V2000
   35.9184  -18.6971   35.1594 C   0  0  0  0  0  0  0  0  0  0  0  0
   34.8188  -19.2217   34.4653 C   0  0  0  0  0  0  0  0  0  0  0  0
   33.6690  -18.5121   34.3916 C   0  0  0  0  0  0  0  0  0  0  0  0
   33.5863  -17.2795   34.9990 C   0  0  0  0  0  0  0  0  0  0  0  0
   34.6362  -16.7242   35.6915 C   0  0  0  0  0  0  0  0  0  0  0  0
   35.7918  -17.4673   35.7500 C   0  0  0  0  0  0  0  0  0  0  0  0
   34.5332  -15.4034   36.3247 C   0  0  0  0  0  0  0  0  0  0  0  0
   35.4513  -15.0631   37.1284 O   0  0  0  0  0  0  0  0  0  0  0  0
   33.4504  -14.5473   36.0435 N   0  0  0  0  0  0  0  0  0  0  0  0
   32.7183  -14.8418   35.3875 H   0  0  0  0  0  0  0  0  0  0  0  0
   33.3366  -13.2742   36.6701 C   0  0  0  0  0  0  0  0  0  0  0  0
   34.2893  -12.3568   36.8220 N   0  0  0  0  0  0  0  0  0  0  0  0
   34.0186  -11.2382   37.4092 C   0  0  0  0  0  0  0  0  0  0  0  0
   32.7348  -11.0450   37.8559 C   0  0  0  0  0  0  0  0  0  0  0  0
   31.9920  -12.5119   37.3937 S   0  0  0  0  0  0  0  0  0  0  0  0
   37.0656  -19.4741   35.1954 O   0  0  0  0  0  0  0  0  0  0  0  0
   38.3844  -19.0948   34.9693 C   0  0  0  0  0  0  0  0  0  0  0  0
   39.1451  -18.9805   36.3037 C   0  0  0  0  0  0  0  0  0  0  0  0
   39.0306  -20.1570   34.1205 C   0  0  0  0  0  0  0  0  0  0  0  0
   40.9847  -19.8002   33.0238 C   0  0  0  0  0  0  0  0  0  0  0  0
   39.6361  -19.6098   33.0253 O   0  0  0  0  0  0  0  0  0  0  0  0
   32.5360  -19.0070   33.7029 O   0  0  0  0  0  0  0  0  0  0  0  0
   31.8223  -20.0083   34.3205 C   0  0  0  0  0  0  0  0  0  0  0  0
   30.6773  -19.7138   35.0360 C   0  0  0  0  0  0  0  0  0  0  0  0
   29.9602  -20.7114   35.6574 C   0  0  0  0  0  0  0  0  0  0  0  0
   30.3322  -22.0338   35.6045 C   0  0  0  0  0  0  0  0  0  0  0  0
   31.4746  -22.3256   34.8891 C   0  0  0  0  0  0  0  0  0  0  0  0
   32.2060  -21.3410   34.2604 C   0  0  0  0  0  0  0  0  0  0  0  0
   29.3907  -23.2742   36.4327 S   0  0  0  0  0  0  0  0  0  0  0  0
   27.9176  -22.9676   36.3654 O   0  0  0  0  0  0  0  0  0  0  0  0
   29.5976  -24.6176   35.7926 O   0  0  0  0  0  0  0  0  0  0  0  0
   29.9264  -23.2696   38.1294 C   0  0  0  0  0  0  0  0  0  0  0  0
   30.7809  -24.4603   38.5057 C   0  0  0  0  0  0  0  0  0  0  0  0
   31.3625  -23.0537   38.3775 C   0  0  0  0  0  0  0  0  0  0  0  0
 20 21  1  0  0  0
 21 19  1  0  0  0
 19 17  1  0  0  0
 17 18  1  0  0  0
 17 16  1  0  0  0
 16  1  1  0  0  0
  1  2  2  0  0  0
  2  3  1  0  0  0
  3 22  1  0  0  0
 22 23  1  0  0  0
 23 24  2  0  0  0
 24 25  1  0  0  0
 25 26  2  0  0  0
 26 27  1  0  0  0
 27 28  2  0  0  0
 26 29  1  0  0  0
 29 30  2  0  0  0
 29 31  2  0  0  0
 29 32  1  0  0  0
 32 33  1  0  0  0
 33 34  1  0  0  0
  3  4  2  0  0  0
  4  5  1  0  0  0
  5  6  2  0  0  0
  5  7  1  0  0  0
  7  8  2  0  0  0
  7  9  1  0  0  0
  9 11  1  0  0  0
 11 12  2  0  0  0
 12 13  1  0  0  0
 13 14  2  0  0  0
 14 15  1  0  0  0
  6  1  1  0  0  0
 15 11  1  0  0  0
 28 23  1  0  0  0
 34 32  1  0  0  0
  9 10  1  0  0  0
M  END
> <minimizedAffinity>
-6.67393

> <CNNscore>
0.3357908726

> <CNNaffinity>
5.8435058594

> <CNN_VS>
1.9621958733

> <CNNaffinity_variance>
0.1754589081

$$$$
[H]c1nc(N([H])C(=O)c2c([H])c(Oc3c([H])c([H])c(S(=O)(=O)C4([H])C([H])([H])C4([H])[H])c([H])c3[H])c([H])c(O[C@@]([H])(C([H])([H])[H])C([H])([H])OC([H])([H])[H])c2[H])sc1[H]


 34 37  0  0  0  0  0  0  0  0999 V2000
   36.3445  -18.0808   36.4455 C   0  0  0  0  0  0  0  0  0  0  0  0
   35.3299  -18.3577   35.5183 C   0  0  0  0  0  0  0  0  0  0  0  0
   34.9303  -19.6353   35.3199 C   0  0  0  0  0  0  0  0  0  0  0  0
   35.5232  -20.6550   36.0297 C   0  0  0  0  0  0  0  0  0  0  0  0
   36.5221  -20.4336   36.9480 C   0  0  0  0  0  0  0  0  0  0  0  0
   36.9078  -19.1261   37.1291 C   0  0  0  0  0  0  0  0  0  0  0  0
   37.1361  -21.5327   37.7035 C   0  0  0  0  0  0  0  0  0  0  0  0
   36.3823  -22.2295   38.4457 O   0  0  0  0  0  0  0  0  0  0  0  0
   38.5154  -21.8004   37.6017 N   0  0  0  0  0  0  0  0  0  0  0  0
   39.1079  -21.2248   36.9928 H   0  0  0  0  0  0  0  0  0  0  0  0
   39.1180  -22.8526   38.3474 C   0  0  0  0  0  0  0  0  0  0  0  0
   39.2201  -24.1348   38.0043 N   0  0  0  0  0  0  0  0  0  0  0  0
   39.8113  -24.9682   38.7951 C   0  0  0  0  0  0  0  0  0  0  0  0
   40.3174  -24.4809   39.9747 C   0  0  0  0  0  0  0  0  0  0  0  0
   39.9000  -22.8284   39.8643 S   0  0  0  0  0  0  0  0  0  0  0  0
   36.7053  -16.7517   36.6016 O   0  0  0  0  0  0  0  0  0  0  0  0
   35.9510  -15.6083   36.3611 C   0  0  0  0  0  0  0  0  0  0  0  0
   34.5639  -15.9880   35.8096 C   0  0  0  0  0  0  0  0  0  0  0  0
   35.7819  -14.8836   37.6697 C   0  0  0  0  0  0  0  0  0  0  0  0
   36.5554  -12.8737   36.9550 C   0  0  0  0  0  0  0  0  0  0  0  0
   36.7300  -13.9118   37.8192 O   0  0  0  0  0  0  0  0  0  0  0  0
   33.9115  -19.9571   34.3918 O   0  0  0  0  0  0  0  0  0  0  0  0
   32.7109  -20.3843   34.9108 C   0  0  0  0  0  0  0  0  0  0  0  0
   32.3809  -21.7261   34.9005 C   0  0  0  0  0  0  0  0  0  0  0  0
   31.1803  -22.1591   35.4169 C   0  0  0  0  0  0  0  0  0  0  0  0
   30.2562  -21.3002   35.9630 C   0  0  0  0  0  0  0  0  0  0  0  0
   30.5880  -19.9616   35.9731 C   0  0  0  0  0  0  0  0  0  0  0  0
   31.7847  -19.5088   35.4608 C   0  0  0  0  0  0  0  0  0  0  0  0
   28.7233  -21.9008   36.5957 S   0  0  0  0  0  0  0  0  0  0  0  0
   27.7952  -20.7628   36.9303 O   0  0  0  0  0  0  0  0  0  0  0  0
   28.0272  -22.7617   35.5799 O   0  0  0  0  0  0  0  0  0  0  0  0
   29.1073  -22.8147   38.0733 C   0  0  0  0  0  0  0  0  0  0  0  0
   28.3563  -24.1224   38.1977 C   0  0  0  0  0  0  0  0  0  0  0  0
   29.8549  -24.0732   37.9068 C   0  0  0  0  0  0  0  0  0  0  0  0
 20 21  1  0  0  0
 21 19  1  0  0  0
 19 17  1  0  0  0
 17 18  1  0  0  0
 17 16  1  0  0  0
 16  1  1  0  0  0
  1  2  2  0  0  0
  2  3  1  0  0  0
  3 22  1  0  0  0
 22 23  1  0  0  0
 23 24  2  0  0  0
 24 25  1  0  0  0
 25 26  2  0  0  0
 26 27  1  0  0  0
 27 28  2  0  0  0
 26 29  1  0  0  0
 29 30  2  0  0  0
 29 31  2  0  0  0
 29 32  1  0  0  0
 32 33  1  0  0  0
 33 34  1  0  0  0
  3  4  2  0  0  0
  4  5  1  0  0  0
  5  6  2  0  0  0
  5  7  1  0  0  0
  7  8  2  0  0  0
  7  9  1  0  0  0
  9 11  1  0  0  0
 11 12  2  0  0  0
 12 13  1  0  0  0
 13 14  2  0  0  0
 14 15  1  0  0  0
  6  1  1  0  0  0
 15 11  1  0  0  0
 28 23  1  0  0  0
 34 32  1  0  0  0
  9 10  1  0  0  0
M  END
> <minimizedAffinity>
-3.82540

> <CNNscore>
0.3267803490

> <CNNaffinity>
5.3733391762

> <CNN_VS>
1.7559016943

> <CNNaffinity_variance>
0.0305144005

$$$$
[H]c1nc(N([H])C(=O)c2c([H])c(Oc3c([H])c([H])c(S(=O)(=O)C4([H])C([H])([H])C4([H])[H])c([H])c3[H])c([H])c(O[C@@]([H])(C([H])([H])[H])C([H])([H])OC([H])([H])[H])c2[H])sc1[H]


 34 37  0  0  0  0  0  0  0  0999 V2000
   34.8770  -16.5416   35.8351 C   0  0  0  0  0  0  0  0  0  0  0  0
   33.7411  -17.0363   35.1786 C   0  0  0  0  0  0  0  0  0  0  0  0
   33.8603  -18.0732   34.3173 C   0  0  0  0  0  0  0  0  0  0  0  0
   35.0964  -18.6353   34.0909 C   0  0  0  0  0  0  0  0  0  0  0  0
   36.2385  -18.1843   34.7094 C   0  0  0  0  0  0  0  0  0  0  0  0
   36.0875  -17.1301   35.5793 C   0  0  0  0  0  0  0  0  0  0  0  0
   37.5473  -18.8028   34.4634 C   0  0  0  0  0  0  0  0  0  0  0  0
   37.6017  -19.7508   33.6250 O   0  0  0  0  0  0  0  0  0  0  0  0
   38.6996  -18.3527   35.1372 N   0  0  0  0  0  0  0  0  0  0  0  0
   38.6337  -17.5815   35.8110 H   0  0  0  0  0  0  0  0  0  0  0  0
   39.9668  -18.9624   34.9161 C   0  0  0  0  0  0  0  0  0  0  0  0
   40.8871  -18.6181   34.0179 N   0  0  0  0  0  0  0  0  0  0  0  0
   41.9994  -19.2722   33.9522 C   0  0  0  0  0  0  0  0  0  0  0  0
   42.1830  -20.3110   34.8309 C   0  0  0  0  0  0  0  0  0  0  0  0
   40.7169  -20.2761   35.7063 S   0  0  0  0  0  0  0  0  0  0  0  0
   34.6853  -15.4796   36.7050 O   0  0  0  0  0  0  0  0  0  0  0  0
   35.4429  -14.3225   36.8504 C   0  0  0  0  0  0  0  0  0  0  0  0
   34.5380  -13.1334   37.2241 C   0  0  0  0  0  0  0  0  0  0  0  0
   36.4349  -14.5568   37.9581 C   0  0  0  0  0  0  0  0  0  0  0  0
   38.2791  -13.3159   37.5024 C   0  0  0  0  0  0  0  0  0  0  0  0
   37.7144  -14.5552   37.4803 O   0  0  0  0  0  0  0  0  0  0  0  0
   32.7392  -18.6003   33.6330 O   0  0  0  0  0  0  0  0  0  0  0  0
   32.0913  -19.6596   34.2260 C   0  0  0  0  0  0  0  0  0  0  0  0
   32.5622  -20.9485   34.0640 C   0  0  0  0  0  0  0  0  0  0  0  0
   31.9170  -22.0124   34.6536 C   0  0  0  0  0  0  0  0  0  0  0  0
   30.7884  -21.8596   35.4234 C   0  0  0  0  0  0  0  0  0  0  0  0
   30.3206  -20.5722   35.5846 C   0  0  0  0  0  0  0  0  0  0  0  0
   30.9524  -19.4945   35.0024 C   0  0  0  0  0  0  0  0  0  0  0  0
   29.9862  -23.2558   36.1432 S   0  0  0  0  0  0  0  0  0  0  0  0
   28.6627  -22.8653   36.7469 O   0  0  0  0  0  0  0  0  0  0  0  0
   29.7117  -24.3072   35.1056 O   0  0  0  0  0  0  0  0  0  0  0  0
   31.0698  -23.8627   37.4173 C   0  0  0  0  0  0  0  0  0  0  0  0
   31.7892  -22.7723   38.1810 C   0  0  0  0  0  0  0  0  0  0  0  0
   30.6740  -23.6034   38.8125 C   0  0  0  0  0  0  0  0  0  0  0  0
 20 21  1  0  0  0
 21 19  1  0  0  0
 19 17  1  0  0  0
 17 18  1  0  0  0
 17 16  1  0  0  0
 16  1  1  0  0  0
  1  2  2  0  0  0
  2  3  1  0  0  0
  3 22  1  0  0  0
 22 23  1  0  0  0
 23 24  2  0  0  0
 24 25  1  0  0  0
 25 26  2  0  0  0
 26 27  1  0  0  0
 27 28  2  0  0  0
 26 29  1  0  0  0
 29 30  2  0  0  0
 29 31  2  0  0  0
 29 32  1  0  0  0
 32 33  1  0  0  0
 33 34  1  0  0  0
  3  4  2  0  0  0
  4  5  1  0  0  0
  5  6  2  0  0  0
  5  7  1  0  0  0
  7  8  2  0  0  0
  7  9  1  0  0  0
  9 11  1  0  0  0
 11 12  2  0  0  0
 12 13  1  0  0  0
 13 14  2  0  0  0
 14 15  1  0  0  0
  6  1  1  0  0  0
 15 11  1  0  0  0
 28 23  1  0  0  0
 34 32  1  0  0  0
  9 10  1  0  0  0
M  END
> <minimizedAffinity>
-6.81565

> <CNNscore>
0.3012874424

> <CNNaffinity>
5.5784478188

> <CNN_VS>
1.6807162762

> <CNNaffinity_variance>
0.2070674449

$$$$
[H]c1nc(N([H])C(=O)c2c([H])c(Oc3c([H])c([H])c(S(=O)(=O)C4([H])C([H])([H])C4([H])[H])c([H])c3[H])c([H])c(O[C@@]([H])(C([H])([H])[H])C([H])([H])OC([H])([H])[H])c2[H])sc1[H]


 34 37  0  0  0  0  0  0  0  0999 V2000
   37.9184  -19.6102   36.9335 C   0  0  0  0  0  0  0  0  0  0  0  0
   37.0226  -20.4582   37.5999 C   0  0  0  0  0  0  0  0  0  0  0  0
   35.9161  -19.9426   38.1839 C   0  0  0  0  0  0  0  0  0  0  0  0
   35.6777  -18.5883   38.1203 C   0  0  0  0  0  0  0  0  0  0  0  0
   36.5268  -17.7169   37.4801 C   0  0  0  0  0  0  0  0  0  0  0  0
   37.6426  -18.2686   36.8956 C   0  0  0  0  0  0  0  0  0  0  0  0
   36.2512  -16.2763   37.4136 C   0  0  0  0  0  0  0  0  0  0  0  0
   37.1379  -15.4866   37.8549 O   0  0  0  0  0  0  0  0  0  0  0  0
   35.0422  -15.7938   36.8750 N   0  0  0  0  0  0  0  0  0  0  0  0
   34.3380  -16.4509   36.5208 H   0  0  0  0  0  0  0  0  0  0  0  0
   34.7628  -14.3988   36.8266 C   0  0  0  0  0  0  0  0  0  0  0  0
   34.0050  -13.6937   37.6638 N   0  0  0  0  0  0  0  0  0  0  0  0
   33.8601  -12.4222   37.4859 C   0  0  0  0  0  0  0  0  0  0  0  0
   34.5091  -11.8476   36.4212 C   0  0  0  0  0  0  0  0  0  0  0  0
   35.2965  -13.1994   35.7359 S   0  0  0  0  0  0  0  0  0  0  0  0
   39.0304  -20.2025   36.3559 O   0  0  0  0  0  0  0  0  0  0  0  0
   39.1790  -20.7139   35.0711 C   0  0  0  0  0  0  0  0  0  0  0  0
   38.7930  -22.2047   35.0402 C   0  0  0  0  0  0  0  0  0  0  0  0
   38.2596  -19.9455   34.1598 C   0  0  0  0  0  0  0  0  0  0  0  0
   37.8911  -17.8951   33.2604 C   0  0  0  0  0  0  0  0  0  0  0  0
   38.8030  -18.7404   33.8161 O   0  0  0  0  0  0  0  0  0  0  0  0
   34.9886  -20.7639   38.8681 O   0  0  0  0  0  0  0  0  0  0  0  0
   34.0163  -21.3704   38.1064 C   0  0  0  0  0  0  0  0  0  0  0  0
   33.4006  -20.6822   37.0784 C   0  0  0  0  0  0  0  0  0  0  0  0
   32.4260  -21.2836   36.3141 C   0  0  0  0  0  0  0  0  0  0  0  0
   32.0150  -22.5786   36.5232 C   0  0  0  0  0  0  0  0  0  0  0  0
   32.6314  -23.2640   37.5490 C   0  0  0  0  0  0  0  0  0  0  0  0
   33.6088  -22.6793   38.3251 C   0  0  0  0  0  0  0  0  0  0  0  0
   30.7490  -23.2996   35.5290 S   0  0  0  0  0  0  0  0  0  0  0  0
   31.2185  -23.4866   34.1102 O   0  0  0  0  0  0  0  0  0  0  0  0
   30.3636  -24.6534   36.0546 O   0  0  0  0  0  0  0  0  0  0  0  0
   29.3739  -22.1708   35.5610 C   0  0  0  0  0  0  0  0  0  0  0  0
   28.0574  -22.8187   35.9305 C   0  0  0  0  0  0  0  0  0  0  0  0
   28.7868  -21.8681   36.8778 C   0  0  0  0  0  0  0  0  0  0  0  0
 20 21  1  0  0  0
 21 19  1  0  0  0
 19 17  1  0  0  0
 17 18  1  0  0  0
 17 16  1  0  0  0
 16  1  1  0  0  0
  1  2  2  0  0  0
  2  3  1  0  0  0
  3 22  1  0  0  0
 22 23  1  0  0  0
 23 24  2  0  0  0
 24 25  1  0  0  0
 25 26  2  0  0  0
 26 27  1  0  0  0
 27 28  2  0  0  0
 26 29  1  0  0  0
 29 30  2  0  0  0
 29 31  2  0  0  0
 29 32  1  0  0  0
 32 33  1  0  0  0
 33 34  1  0  0  0
  3  4  2  0  0  0
  4  5  1  0  0  0
  5  6  2  0  0  0
  5  7  1  0  0  0
  7  8  2  0  0  0
  7  9  1  0  0  0
  9 11  1  0  0  0
 11 12  2  0  0  0
 12 13  1  0  0  0
 13 14  2  0  0  0
 14 15  1  0  0  0
  6  1  1  0  0  0
 15 11  1  0  0  0
 28 23  1  0  0  0
 34 32  1  0  0  0
  9 10  1  0  0  0
M  END
> <minimizedAffinity>
-4.75672

> <CNNscore>
0.2932326496

> <CNNaffinity>
5.3961291313

> <CNN_VS>
1.5823212862

> <CNNaffinity_variance>
0.1803661287

$$$$
[H]c1nc(N([H])C(=O)c2c([H])c(Oc3c([H])c([H])c(S(=O)(=O)C4([H])C([H])([H])C4([H])[H])c([H])c3[H])c([H])c(O[C@@]([H])(C([H])([H])[H])C([H])([H])OC([H])([H])[H])c2[H])sc1[H]


 34 37  0  0  0  0  0  0  0  0999 V2000
   35.3508  -16.3823   36.4137 C   0  0  0  0  0  0  0  0  0  0  0  0
   34.2120  -16.7064   35.6628 C   0  0  0  0  0  0  0  0  0  0  0  0
   34.2914  -17.6460   34.6922 C   0  0  0  0  0  0  0  0  0  0  0  0
   35.4902  -18.2773   34.4482 C   0  0  0  0  0  0  0  0  0  0  0  0
   36.6336  -17.9927   35.1566 C   0  0  0  0  0  0  0  0  0  0  0  0
   36.5235  -17.0343   36.1365 C   0  0  0  0  0  0  0  0  0  0  0  0
   37.9014  -18.6835   34.8894 C   0  0  0  0  0  0  0  0  0  0  0  0
   37.9500  -19.4573   33.8876 O   0  0  0  0  0  0  0  0  0  0  0  0
   39.0225  -18.4877   35.7197 N   0  0  0  0  0  0  0  0  0  0  0  0
   38.9622  -17.8545   36.5250 H   0  0  0  0  0  0  0  0  0  0  0  0
   40.2475  -19.1704   35.4755 C   0  0  0  0  0  0  0  0  0  0  0  0
   40.6161  -20.3646   35.9342 N   0  0  0  0  0  0  0  0  0  0  0  0
   41.7672  -20.8525   35.6082 C   0  0  0  0  0  0  0  0  0  0  0  0
   42.5704  -20.1013   34.7863 C   0  0  0  0  0  0  0  0  0  0  0  0
   41.5985  -18.7195   34.5351 S   0  0  0  0  0  0  0  0  0  0  0  0
   35.2007  -15.4130   37.3930 O   0  0  0  0  0  0  0  0  0  0  0  0
   35.2678  -14.0293   37.2695 C   0  0  0  0  0  0  0  0  0  0  0  0
   35.9123  -13.6423   35.9251 C   0  0  0  0  0  0  0  0  0  0  0  0
   33.8619  -13.4934   37.3169 C   0  0  0  0  0  0  0  0  0  0  0  0
   32.1730  -12.8826   38.7037 C   0  0  0  0  0  0  0  0  0  0  0  0
   33.4968  -13.1841   38.5962 O   0  0  0  0  0  0  0  0  0  0  0  0
   33.1661  -18.0003   33.9104 O   0  0  0  0  0  0  0  0  0  0  0  0
   32.4546  -19.1075   34.3119 C   0  0  0  0  0  0  0  0  0  0  0  0
   32.8835  -20.3767   33.9734 C   0  0  0  0  0  0  0  0  0  0  0  0
   32.1747  -21.4881   34.3710 C   0  0  0  0  0  0  0  0  0  0  0  0
   31.0210  -21.4039   35.1138 C   0  0  0  0  0  0  0  0  0  0  0  0
   30.5952  -20.1363   35.4514 C   0  0  0  0  0  0  0  0  0  0  0  0
   31.2909  -19.0118   35.0627 C   0  0  0  0  0  0  0  0  0  0  0  0
   30.1375  -22.8562   35.5839 S   0  0  0  0  0  0  0  0  0  0  0  0
   30.4437  -23.2360   37.0089 O   0  0  0  0  0  0  0  0  0  0  0  0
   28.6547  -22.6330   35.4893 O   0  0  0  0  0  0  0  0  0  0  0  0
   30.6740  -24.1530   34.4900 C   0  0  0  0  0  0  0  0  0  0  0  0
   31.6006  -25.1580   35.1387 C   0  0  0  0  0  0  0  0  0  0  0  0
   30.1636  -25.5088   34.7579 C   0  0  0  0  0  0  0  0  0  0  0  0
 20 21  1  0  0  0
 21 19  1  0  0  0
 19 17  1  0  0  0
 17 18  1  0  0  0
 17 16  1  0  0  0
 16  1  1  0  0  0
  1  2  2  0  0  0
  2  3  1  0  0  0
  3 22  1  0  0  0
 22 23  1  0  0  0
 23 24  2  0  0  0
 24 25  1  0  0  0
 25 26  2  0  0  0
 26 27  1  0  0  0
 27 28  2  0  0  0
 26 29  1  0  0  0
 29 30  2  0  0  0
 29 31  2  0  0  0
 29 32  1  0  0  0
 32 33  1  0  0  0
 33 34  1  0  0  0
  3  4  2  0  0  0
  4  5  1  0  0  0
  5  6  2  0  0  0
  5  7  1  0  0  0
  7  8  2  0  0  0
  7  9  1  0  0  0
  9 11  1  0  0  0
 11 12  2  0  0  0
 12 13  1  0  0  0
 13 14  2  0  0  0
 14 15  1  0  0  0
  6  1  1  0  0  0
 15 11  1  0  0  0
 28 23  1  0  0  0
 34 32  1  0  0  0
  9 10  1  0  0  0
M  END
> <minimizedAffinity>
-6.95381

> <CNNscore>
0.2812922597

> <CNNaffinity>
5.7378706932

> <CNN_VS>
1.6140185595

> <CNNaffinity_variance>
0.0654273480

$$$$
[H]c1nc(N([H])C(=O)c2c([H])c(Oc3c([H])c([H])c(S(=O)(=O)C4([H])C([H])([H])C4([H])[H])c([H])c3[H])c([H])c(O[C@@]([H])(C([H])([H])[H])C([H])([H])OC([H])([H])[H])c2[H])sc1[H]


 34 37  0  0  0  0  0  0  0  0999 V2000
   37.3975  -18.5589   36.1520 C   0  0  0  0  0  0  0  0  0  0  0  0
   36.5112  -19.2325   35.2995 C   0  0  0  0  0  0  0  0  0  0  0  0
   35.3210  -18.6700   34.9862 C   0  0  0  0  0  0  0  0  0  0  0  0
   34.9879  -17.4401   35.5071 C   0  0  0  0  0  0  0  0  0  0  0  0
   35.8225  -16.7421   36.3477 C   0  0  0  0  0  0  0  0  0  0  0  0
   37.0250  -17.3375   36.6486 C   0  0  0  0  0  0  0  0  0  0  0  0
   35.4548  -15.4264   36.8858 C   0  0  0  0  0  0  0  0  0  0  0  0
   36.1045  -14.9970   37.8849 O   0  0  0  0  0  0  0  0  0  0  0  0
   34.4165  -14.6708   36.3066 N   0  0  0  0  0  0  0  0  0  0  0  0
   33.9042  -15.0365   35.4960 H   0  0  0  0  0  0  0  0  0  0  0  0
   34.0440  -13.4036   36.8373 C   0  0  0  0  0  0  0  0  0  0  0  0
   34.6053  -12.2226   36.5872 N   0  0  0  0  0  0  0  0  0  0  0  0
   34.1373  -11.1557   37.1459 C   0  0  0  0  0  0  0  0  0  0  0  0
   33.0607  -11.2941   37.9866 C   0  0  0  0  0  0  0  0  0  0  0  0
   32.7910  -12.9792   37.9156 S   0  0  0  0  0  0  0  0  0  0  0  0
   38.5998  -19.1895   36.4311 O   0  0  0  0  0  0  0  0  0  0  0  0
   39.7595  -19.2365   35.6650 C   0  0  0  0  0  0  0  0  0  0  0  0
   40.9681  -18.7612   36.4932 C   0  0  0  0  0  0  0  0  0  0  0  0
   39.9779  -20.6658   35.2460 C   0  0  0  0  0  0  0  0  0  0  0  0
   39.6408  -19.7402   33.2019 C   0  0  0  0  0  0  0  0  0  0  0  0
   40.2199  -20.7531   33.9046 O   0  0  0  0  0  0  0  0  0  0  0  0
   34.3976  -19.3181   34.1315 O   0  0  0  0  0  0  0  0  0  0  0  0
   33.2123  -19.7300   34.6961 C   0  0  0  0  0  0  0  0  0  0  0  0
   33.1916  -20.7797   35.5946 C   0  0  0  0  0  0  0  0  0  0  0  0
   32.0083  -21.1972   36.1613 C   0  0  0  0  0  0  0  0  0  0  0  0
   30.8006  -20.6070   35.8735 C   0  0  0  0  0  0  0  0  0  0  0  0
   30.8236  -19.5590   34.9772 C   0  0  0  0  0  0  0  0  0  0  0  0
   31.9978  -19.1267   34.3994 C   0  0  0  0  0  0  0  0  0  0  0  0
   29.3082  -21.1896   36.6112 S   0  0  0  0  0  0  0  0  0  0  0  0
   29.5871  -21.8751   37.9230 O   0  0  0  0  0  0  0  0  0  0  0  0
   28.3714  -20.0491   36.8929 O   0  0  0  0  0  0  0  0  0  0  0  0
   28.5967  -22.3520   35.4673 C   0  0  0  0  0  0  0  0  0  0  0  0
   29.2335  -23.7239   35.5119 C   0  0  0  0  0  0  0  0  0  0  0  0
   27.8235  -23.4675   36.0403 C   0  0  0  0  0  0  0  0  0  0  0  0
 20 21  1  0  0  0
 21 19  1  0  0  0
 19 17  1  0  0  0
 17 18  1  0  0  0
 17 16  1  0  0  0
 16  1  1  0  0  0
  1  2  2  0  0  0
  2  3  1  0  0  0
  3 22  1  0  0  0
 22 23  1  0  0  0
 23 24  2  0  0  0
 24 25  1  0  0  0
 25 26  2  0  0  0
 26 27  1  0  0  0
 27 28  2  0  0  0
 26 29  1  0  0  0
 29 30  2  0  0  0
 29 31  2  0  0  0
 29 32  1  0  0  0
 32 33  1  0  0  0
 33 34  1  0  0  0
  3  4  2  0  0  0
  4  5  1  0  0  0
  5  6  2  0  0  0
  5  7  1  0  0  0
  7  8  2  0  0  0
  7  9  1  0  0  0
  9 11  1  0  0  0
 11 12  2  0  0  0
 12 13  1  0  0  0
 13 14  2  0  0  0
 14 15  1  0  0  0
  6  1  1  0  0  0
 15 11  1  0  0  0
 28 23  1  0  0  0
 34 32  1  0  0  0
  9 10  1  0  0  0
M  END
> <minimizedAffinity>
-6.93011

> <CNNscore>
0.2598588169

> <CNNaffinity>
5.8750905991

> <CNN_VS>
1.5266940594

> <CNNaffinity_variance>
0.1688612998

$$$$
[H]c1nc(N([H])C(=O)c2c([H])c(Oc3c([H])c([H])c(S(=O)(=O)C4([H])C([H])([H])C4([H])[H])c([H])c3[H])c([H])c(O[C@@]([H])(C([H])([H])[H])C([H])([H])OC([H])([H])[H])c2[H])sc1[H]


 34 37  0  0  0  0  0  0  0  0999 V2000
   37.2021  -17.7813   35.3140 C   0  0  0  0  0  0  0  0  0  0  0  0
   36.9194  -18.7031   36.3320 C   0  0  0  0  0  0  0  0  0  0  0  0
   36.1032  -18.3497   37.3518 C   0  0  0  0  0  0  0  0  0  0  0  0
   35.5560  -17.0869   37.3833 C   0  0  0  0  0  0  0  0  0  0  0  0
   35.8044  -16.1485   36.4097 C   0  0  0  0  0  0  0  0  0  0  0  0
   36.6369  -16.5352   35.3858 C   0  0  0  0  0  0  0  0  0  0  0  0
   35.2038  -14.8095   36.4544 C   0  0  0  0  0  0  0  0  0  0  0  0
   35.7185  -13.9093   35.7267 O   0  0  0  0  0  0  0  0  0  0  0  0
   34.0928  -14.5405   37.2777 N   0  0  0  0  0  0  0  0  0  0  0  0
   33.6899  -15.2850   37.8579 H   0  0  0  0  0  0  0  0  0  0  0  0
   33.5198  -13.2389   37.3387 C   0  0  0  0  0  0  0  0  0  0  0  0
   32.2271  -12.9205   37.3324 N   0  0  0  0  0  0  0  0  0  0  0  0
   31.8686  -11.6814   37.4052 C   0  0  0  0  0  0  0  0  0  0  0  0
   32.8583  -10.7334   37.4886 C   0  0  0  0  0  0  0  0  0  0  0  0
   34.2616  -11.7063   37.4552 S   0  0  0  0  0  0  0  0  0  0  0  0
   38.0438  -18.2074   34.2986 O   0  0  0  0  0  0  0  0  0  0  0  0
   39.1371  -19.0637   34.3725 C   0  0  0  0  0  0  0  0  0  0  0  0
   38.7384  -20.4814   33.9211 C   0  0  0  0  0  0  0  0  0  0  0  0
   40.2023  -18.5321   33.4512 C   0  0  0  0  0  0  0  0  0  0  0  0
   41.4210  -18.7238   35.3556 C   0  0  0  0  0  0  0  0  0  0  0  0
   41.4455  -18.6908   33.9942 O   0  0  0  0  0  0  0  0  0  0  0  0
   35.7948  -19.2496   38.3997 O   0  0  0  0  0  0  0  0  0  0  0  0
   36.2034  -20.5537   38.2388 C   0  0  0  0  0  0  0  0  0  0  0  0
   37.3642  -21.0033   38.8387 C   0  0  0  0  0  0  0  0  0  0  0  0
   37.7787  -22.3066   38.6797 C   0  0  0  0  0  0  0  0  0  0  0  0
   37.0771  -23.2207   37.9301 C   0  0  0  0  0  0  0  0  0  0  0  0
   35.9184  -22.7701   37.3330 C   0  0  0  0  0  0  0  0  0  0  0  0
   35.4871  -21.4694   37.4802 C   0  0  0  0  0  0  0  0  0  0  0  0
   37.6585  -24.8751   37.7408 S   0  0  0  0  0  0  0  0  0  0  0  0
   36.8803  -25.8233   38.6147 O   0  0  0  0  0  0  0  0  0  0  0  0
   37.4951  -25.3391   36.3211 O   0  0  0  0  0  0  0  0  0  0  0  0
   39.3680  -24.8719   38.2343 C   0  0  0  0  0  0  0  0  0  0  0  0
   40.2244  -25.8688   37.4845 C   0  0  0  0  0  0  0  0  0  0  0  0
   40.3460  -24.3633   37.2570 C   0  0  0  0  0  0  0  0  0  0  0  0
 20 21  1  0  0  0
 21 19  1  0  0  0
 19 17  1  0  0  0
 17 18  1  0  0  0
 17 16  1  0  0  0
 16  1  1  0  0  0
  1  2  2  0  0  0
  2  3  1  0  0  0
  3 22  1  0  0  0
 22 23  1  0  0  0
 23 24  2  0  0  0
 24 25  1  0  0  0
 25 26  2  0  0  0
 26 27  1  0  0  0
 27 28  2  0  0  0
 26 29  1  0  0  0
 29 30  2  0  0  0
 29 31  2  0  0  0
 29 32  1  0  0  0
 32 33  1  0  0  0
 33 34  1  0  0  0
  3  4  2  0  0  0
  4  5  1  0  0  0
  5  6  2  0  0  0
  5  7  1  0  0  0
  7  8  2  0  0  0
  7  9  1  0  0  0
  9 11  1  0  0  0
 11 12  2  0  0  0
 12 13  1  0  0  0
 13 14  2  0  0  0
 14 15  1  0  0  0
  6  1  1  0  0  0
 15 11  1  0  0  0
 28 23  1  0  0  0
 34 32  1  0  0  0
  9 10  1  0  0  0
M  END
> <minimizedAffinity>
-4.41651

> <CNNscore>
0.2260882258

> <CNNaffinity>
5.2784066200

> <CNN_VS>
1.1933856010

> <CNNaffinity_variance>
0.1802172661

$$$$
[H]OC(C([H])([H])[H])(C([H])([H])[H])C([H])([H])N([H])S(=O)(=O)c1c([H])c([H])c(C([H])([H])[H])c(-c2c([H])nc(N([H])[H])c(-c3c([H])c([H])nc(C([H])([H])[H])c3[H])c2[H])c1[H]


 34 36  0  0  0  0  0  0  0  0999 V2000
   32.7162  -20.2817   36.0151 C   0  0  0  0  0  0  0  0  0  0  0  0
   32.8875  -21.2379   37.0214 C   0  0  0  0  0  0  0  0  0  0  0  0
   31.8599  -22.0422   37.4505 C   0  0  0  0  0  0  0  0  0  0  0  0
   30.6178  -21.9102   36.8775 C   0  0  0  0  0  0  0  0  0  0  0  0
   30.4371  -20.9708   35.8849 C   0  0  0  0  0  0  0  0  0  0  0  0
   31.4805  -20.1512   35.4468 C   0  0  0  0  0  0  0  0  0  0  0  0
   31.2137  -19.1602   34.3905 C   0  0  0  0  0  0  0  0  0  0  0  0
   34.9494  -17.2959   35.6673 C   0  0  0  0  0  0  0  0  0  0  0  0
   33.9225  -18.1416   36.0388 C   0  0  0  0  0  0  0  0  0  0  0  0
   33.8148  -19.4513   35.5670 C   0  0  0  0  0  0  0  0  0  0  0  0
   34.8044  -19.8570   34.6987 C   0  0  0  0  0  0  0  0  0  0  0  0
   35.8058  -19.0407   34.3326 N   0  0  0  0  0  0  0  0  0  0  0  0
   35.9036  -17.7635   34.7976 C   0  0  0  0  0  0  0  0  0  0  0  0
   36.9672  -16.9189   34.3905 N   0  0  0  0  0  0  0  0  0  0  0  0
   37.9366  -17.2898   34.4786 H   0  0  0  0  0  0  0  0  0  0  0  0
   36.8611  -15.9555   34.0094 H   0  0  0  0  0  0  0  0  0  0  0  0
   37.6876  -13.8663   37.8795 C   0  0  0  0  0  0  0  0  0  0  0  0
   36.3936  -14.2726   37.2548 C   0  0  0  0  0  0  0  0  0  0  0  0
   36.2361  -15.5494   36.7576 C   0  0  0  0  0  0  0  0  0  0  0  0
   35.0443  -15.9379   36.1774 C   0  0  0  0  0  0  0  0  0  0  0  0
   34.0186  -15.0237   36.1062 C   0  0  0  0  0  0  0  0  0  0  0  0
   34.2304  -13.7546   36.6213 C   0  0  0  0  0  0  0  0  0  0  0  0
   35.3950  -13.3867   37.1844 N   0  0  0  0  0  0  0  0  0  0  0  0
   32.1447  -23.2293   38.7253 S   0  0  0  0  0  0  0  0  0  0  0  0
   31.7051  -24.5803   38.2593 O   0  0  0  0  0  0  0  0  0  0  0  0
   31.3700  -22.8024   39.9299 O   0  0  0  0  0  0  0  0  0  0  0  0
   33.8275  -23.2238   39.1717 N   0  0  0  0  0  0  0  0  0  0  0  0
   34.2469  -22.3716   38.7435 H   0  0  0  0  0  0  0  0  0  0  0  0
   33.8540  -22.9910   40.6165 C   0  0  0  0  0  0  0  0  0  0  0  0
   34.5313  -21.6620   40.8363 C   0  0  0  0  0  0  0  0  0  0  0  0
   35.6955  -21.5621   39.8817 C   0  0  0  0  0  0  0  0  0  0  0  0
   34.9791  -21.4844   42.2645 C   0  0  0  0  0  0  0  0  0  0  0  0
   33.6395  -20.6376   40.5474 O   0  0  0  0  0  0  0  0  0  0  0  0
   32.7240  -20.9759   40.7972 H   0  0  0  0  0  0  0  0  0  0  0  0
 17 18  1  0  0  0
 18 19  2  0  0  0
 19 20  1  0  0  0
 20 21  2  0  0  0
 21 22  1  0  0  0
 22 23  2  0  0  0
 20  8  1  0  0  0
  8  9  2  0  0  0
  9 10  1  0  0  0
 10 11  2  0  0  0
 11 12  1  0  0  0
 12 13  2  0  0  0
 13 14  1  0  0  0
 10  1  1  0  0  0
  1  2  2  0  0  0
  2  3  1  0  0  0
  3  4  2  0  0  0
  4  5  1  0  0  0
  5  6  2  0  0  0
  6  7  1  0  0  0
  3 24  1  0  0  0
 24 25  2  0  0  0
 24 26  2  0  0  0
 24 27  1  0  0  0
 27 29  1  0  0  0
 29 30  1  0  0  0
 30 31  1  0  0  0
 30 32  1  0  0  0
 30 33  1  0  0  0
 23 18  1  0  0  0
 13  8  1  0  0  0
  6  1  1  0  0  0
 14 15  1  0  0  0
 14 16  1  0  0  0
 27 28  1  0  0  0
 33 34  1  0  0  0
M  END
> <minimizedAffinity>
-6.39950

> <CNNscore>
0.6228064299

> <CNNaffinity>
5.5928239822

> <CNN_VS>
3.4832468033

> <CNNaffinity_variance>
0.3067356944

$$$$
[H]OC(C([H])([H])[H])(C([H])([H])[H])C([H])([H])N([H])S(=O)(=O)c1c([H])c([H])c(C([H])([H])[H])c(-c2c([H])nc(N([H])[H])c(-c3c([H])c([H])nc(C([H])([H])[H])c3[H])c2[H])c1[H]


 34 36  0  0  0  0  0  0  0  0999 V2000
   32.5319  -20.2184   35.8782 C   0  0  0  0  0  0  0  0  0  0  0  0
   32.6082  -21.1757   36.8952 C   0  0  0  0  0  0  0  0  0  0  0  0
   31.5290  -21.9420   37.2625 C   0  0  0  0  0  0  0  0  0  0  0  0
   30.3294  -21.7696   36.6145 C   0  0  0  0  0  0  0  0  0  0  0  0
   30.2423  -20.8288   35.6107 C   0  0  0  0  0  0  0  0  0  0  0  0
   31.3384  -20.0477   35.2352 C   0  0  0  0  0  0  0  0  0  0  0  0
   31.1711  -19.0526   34.1625 C   0  0  0  0  0  0  0  0  0  0  0  0
   34.8850  -17.3135   35.6612 C   0  0  0  0  0  0  0  0  0  0  0  0
   33.8085  -18.1214   35.9712 C   0  0  0  0  0  0  0  0  0  0  0  0
   33.6840  -19.4285   35.4961 C   0  0  0  0  0  0  0  0  0  0  0  0
   34.7097  -19.8718   34.6904 C   0  0  0  0  0  0  0  0  0  0  0  0
   35.7594  -19.0923   34.3843 N   0  0  0  0  0  0  0  0  0  0  0  0
   35.8733  -17.8173   34.8520 C   0  0  0  0  0  0  0  0  0  0  0  0
   36.9885  -17.0119   34.5088 N   0  0  0  0  0  0  0  0  0  0  0  0
   37.9372  -17.4159   34.6564 H   0  0  0  0  0  0  0  0  0  0  0  0
   36.9395  -16.0469   34.1201 H   0  0  0  0  0  0  0  0  0  0  0  0
   37.6697  -13.9152   37.8636 C   0  0  0  0  0  0  0  0  0  0  0  0
   36.3680  -14.3076   37.2461 C   0  0  0  0  0  0  0  0  0  0  0  0
   36.1952  -15.5817   36.7472 C   0  0  0  0  0  0  0  0  0  0  0  0
   34.9962  -15.9575   36.1736 C   0  0  0  0  0  0  0  0  0  0  0  0
   33.9788  -15.0334   36.1107 C   0  0  0  0  0  0  0  0  0  0  0  0
   34.2061  -13.7675   36.6271 C   0  0  0  0  0  0  0  0  0  0  0  0
   35.3776  -13.4120   37.1837 N   0  0  0  0  0  0  0  0  0  0  0  0
   31.6940  -23.1327   38.5550 S   0  0  0  0  0  0  0  0  0  0  0  0
   33.0764  -23.0694   39.1211 O   0  0  0  0  0  0  0  0  0  0  0  0
   31.4171  -24.4813   37.9734 O   0  0  0  0  0  0  0  0  0  0  0  0
   30.4889  -22.8466   39.7785 N   0  0  0  0  0  0  0  0  0  0  0  0
   30.0035  -21.9623   39.5179 H   0  0  0  0  0  0  0  0  0  0  0  0
   29.4929  -23.9058   39.6097 C   0  0  0  0  0  0  0  0  0  0  0  0
   28.1514  -23.2313   39.4726 C   0  0  0  0  0  0  0  0  0  0  0  0
   27.2998  -23.6306   40.6524 C   0  0  0  0  0  0  0  0  0  0  0  0
   27.4757  -23.5750   38.1698 C   0  0  0  0  0  0  0  0  0  0  0  0
   28.3235  -21.8538   39.5036 O   0  0  0  0  0  0  0  0  0  0  0  0
   29.2172  -21.6672   39.0778 H   0  0  0  0  0  0  0  0  0  0  0  0
 17 18  1  0  0  0
 18 19  2  0  0  0
 19 20  1  0  0  0
 20 21  2  0  0  0
 21 22  1  0  0  0
 22 23  2  0  0  0
 20  8  1  0  0  0
  8  9  2  0  0  0
  9 10  1  0  0  0
 10 11  2  0  0  0
 11 12  1  0  0  0
 12 13  2  0  0  0
 13 14  1  0  0  0
 10  1  1  0  0  0
  1  2  2  0  0  0
  2  3  1  0  0  0
  3  4  2  0  0  0
  4  5  1  0  0  0
  5  6  2  0  0  0
  6  7  1  0  0  0
  3 24  1  0  0  0
 24 25  2  0  0  0
 24 26  2  0  0  0
 24 27  1  0  0  0
 27 29  1  0  0  0
 29 30  1  0  0  0
 30 31  1  0  0  0
 30 32  1  0  0  0
 30 33  1  0  0  0
 23 18  1  0  0  0
 13  8  1  0  0  0
  6  1  1  0  0  0
 14 15  1  0  0  0
 14 16  1  0  0  0
 27 28  1  0  0  0
 33 34  1  0  0  0
M  END
> <minimizedAffinity>
-6.22392

> <CNNscore>
0.5979500413

> <CNNaffinity>
5.5890741348

> <CNN_VS>
3.3419871330

> <CNNaffinity_variance>
0.2526664138

$$$$
[H]OC(C([H])([H])[H])(C([H])([H])[H])C([H])([H])N([H])S(=O)(=O)c1c([H])c([H])c(C([H])([H])[H])c(-c2c([H])nc(N([H])[H])c(-c3c([H])c([H])nc(C([H])([H])[H])c3[H])c2[H])c1[H]


 34 36  0  0  0  0  0  0  0  0999 V2000
   31.4357  -20.5828   35.8178 C   0  0  0  0  0  0  0  0  0  0  0  0
   31.5683  -21.5925   36.7766 C   0  0  0  0  0  0  0  0  0  0  0  0
   30.4811  -22.2010   37.3551 C   0  0  0  0  0  0  0  0  0  0  0  0
   29.2161  -21.8111   36.9857 C   0  0  0  0  0  0  0  0  0  0  0  0
   29.0732  -20.8166   36.0418 C   0  0  0  0  0  0  0  0  0  0  0  0
   30.1774  -20.1958   35.4520 C   0  0  0  0  0  0  0  0  0  0  0  0
   29.9513  -19.1318   34.4592 C   0  0  0  0  0  0  0  0  0  0  0  0
   34.3181  -18.2425   35.3305 C   0  0  0  0  0  0  0  0  0  0  0  0
   33.2031  -18.8765   35.8428 C   0  0  0  0  0  0  0  0  0  0  0  0
   32.5939  -19.9616   35.2095 C   0  0  0  0  0  0  0  0  0  0  0  0
   33.1763  -20.3689   34.0294 C   0  0  0  0  0  0  0  0  0  0  0  0
   34.2602  -19.7575   33.5248 N   0  0  0  0  0  0  0  0  0  0  0  0
   34.8488  -18.6988   34.1491 C   0  0  0  0  0  0  0  0  0  0  0  0
   35.9888  -18.0659   33.5923 N   0  0  0  0  0  0  0  0  0  0  0  0
   36.7916  -18.6722   33.3222 H   0  0  0  0  0  0  0  0  0  0  0  0
   36.0921  -17.0424   33.4297 H   0  0  0  0  0  0  0  0  0  0  0  0
   34.2072  -13.4448   36.3902 C   0  0  0  0  0  0  0  0  0  0  0  0
   34.8705  -14.7759   36.5237 C   0  0  0  0  0  0  0  0  0  0  0  0
   34.3356  -15.8815   35.8963 C   0  0  0  0  0  0  0  0  0  0  0  0
   34.9394  -17.1184   36.0117 C   0  0  0  0  0  0  0  0  0  0  0  0
   36.0852  -17.2233   36.7660 C   0  0  0  0  0  0  0  0  0  0  0  0
   36.5799  -16.0807   37.3748 C   0  0  0  0  0  0  0  0  0  0  0  0
   35.9841  -14.8809   37.2558 N   0  0  0  0  0  0  0  0  0  0  0  0
   30.7195  -23.4693   38.5592 S   0  0  0  0  0  0  0  0  0  0  0  0
   30.1892  -24.7649   38.0341 O   0  0  0  0  0  0  0  0  0  0  0  0
   29.9972  -23.0620   39.8025 O   0  0  0  0  0  0  0  0  0  0  0  0
   32.4085  -23.5879   38.9651 N   0  0  0  0  0  0  0  0  0  0  0  0
   32.4554  -23.8574   39.9704 H   0  0  0  0  0  0  0  0  0  0  0  0
   32.9142  -24.7447   38.2245 C   0  0  0  0  0  0  0  0  0  0  0  0
   34.4094  -24.5815   38.1197 C   0  0  0  0  0  0  0  0  0  0  0  0
   34.6978  -23.5444   37.0624 C   0  0  0  0  0  0  0  0  0  0  0  0
   35.1006  -25.8846   37.8097 C   0  0  0  0  0  0  0  0  0  0  0  0
   34.9082  -24.1216   39.3312 O   0  0  0  0  0  0  0  0  0  0  0  0
   34.3231  -24.5161   40.0502 H   0  0  0  0  0  0  0  0  0  0  0  0
 17 18  1  0  0  0
 18 19  2  0  0  0
 19 20  1  0  0  0
 20 21  2  0  0  0
 21 22  1  0  0  0
 22 23  2  0  0  0
 20  8  1  0  0  0
  8  9  2  0  0  0
  9 10  1  0  0  0
 10 11  2  0  0  0
 11 12  1  0  0  0
 12 13  2  0  0  0
 13 14  1  0  0  0
 10  1  1  0  0  0
  1  2  2  0  0  0
  2  3  1  0  0  0
  3  4  2  0  0  0
  4  5  1  0  0  0
  5  6  2  0  0  0
  6  7  1  0  0  0
  3 24  1  0  0  0
 24 25  2  0  0  0
 24 26  2  0  0  0
 24 27  1  0  0  0
 27 29  1  0  0  0
 29 30  1  0  0  0
 30 31  1  0  0  0
 30 32  1  0  0  0
 30 33  1  0  0  0
 23 18  1  0  0  0
 13  8  1  0  0  0
  6  1  1  0  0  0
 14 15  1  0  0  0
 14 16  1  0  0  0
 27 28  1  0  0  0
 33 34  1  0  0  0
M  END
> <minimizedAffinity>
-6.34814

> <CNNscore>
0.5663041472

> <CNNaffinity>
5.2195558548

> <CNN_VS>
2.9558560848

> <CNNaffinity_variance>
0.8019667864

$$$$
[H]OC(C([H])([H])[H])(C([H])([H])[H])C([H])([H])N([H])S(=O)(=O)c1c([H])c([H])c(C([H])([H])[H])c(-c2c([H])nc(N([H])[H])c(-c3c([H])c([H])nc(C([H])([H])[H])c3[H])c2[H])c1[H]


 34 36  0  0  0  0  0  0  0  0999 V2000
   36.8737  -20.1999   37.5659 C   0  0  0  0  0  0  0  0  0  0  0  0
   38.0941  -20.5497   36.9787 C   0  0  0  0  0  0  0  0  0  0  0  0
   38.9817  -21.4037   37.5866 C   0  0  0  0  0  0  0  0  0  0  0  0
   38.6689  -21.9376   38.8137 C   0  0  0  0  0  0  0  0  0  0  0  0
   37.4690  -21.5997   39.4023 C   0  0  0  0  0  0  0  0  0  0  0  0
   36.5643  -20.7311   38.7862 C   0  0  0  0  0  0  0  0  0  0  0  0
   35.3059  -20.4039   39.4777 C   0  0  0  0  0  0  0  0  0  0  0  0
   35.2362  -17.0163   36.4678 C   0  0  0  0  0  0  0  0  0  0  0  0
   36.0752  -17.9284   37.0776 C   0  0  0  0  0  0  0  0  0  0  0  0
   35.9448  -19.3077   36.9038 C   0  0  0  0  0  0  0  0  0  0  0  0
   34.9185  -19.7117   36.0784 C   0  0  0  0  0  0  0  0  0  0  0  0
   34.0986  -18.8311   35.4822 N   0  0  0  0  0  0  0  0  0  0  0  0
   34.2325  -17.4862   35.6573 C   0  0  0  0  0  0  0  0  0  0  0  0
   33.3495  -16.5769   35.0218 N   0  0  0  0  0  0  0  0  0  0  0  0
   33.2095  -16.6807   33.9948 H   0  0  0  0  0  0  0  0  0  0  0  0
   32.8270  -15.8113   35.4965 H   0  0  0  0  0  0  0  0  0  0  0  0
   38.2237  -13.2769   37.5840 C   0  0  0  0  0  0  0  0  0  0  0  0
   36.8664  -13.7681   37.2016 C   0  0  0  0  0  0  0  0  0  0  0  0
   36.6465  -15.1164   37.0124 C   0  0  0  0  0  0  0  0  0  0  0  0
   35.3959  -15.5839   36.6585 C   0  0  0  0  0  0  0  0  0  0  0  0
   34.3750  -14.6754   36.4989 C   0  0  0  0  0  0  0  0  0  0  0  0
   34.6509  -13.3324   36.7014 C   0  0  0  0  0  0  0  0  0  0  0  0
   35.8725  -12.8879   37.0460 N   0  0  0  0  0  0  0  0  0  0  0  0
   40.5051  -21.8034   36.7898 S   0  0  0  0  0  0  0  0  0  0  0  0
   41.1947  -20.5458   36.3674 O   0  0  0  0  0  0  0  0  0  0  0  0
   40.1920  -22.6628   35.6079 O   0  0  0  0  0  0  0  0  0  0  0  0
   41.5005  -22.7493   37.8601 N   0  0  0  0  0  0  0  0  0  0  0  0
   41.8293  -23.5723   37.3121 H   0  0  0  0  0  0  0  0  0  0  0  0
   42.6949  -21.9408   38.1092 C   0  0  0  0  0  0  0  0  0  0  0  0
   43.0162  -22.0697   39.5766 C   0  0  0  0  0  0  0  0  0  0  0  0
   43.2380  -23.5301   39.8845 C   0  0  0  0  0  0  0  0  0  0  0  0
   41.9325  -21.4865   40.4466 C   0  0  0  0  0  0  0  0  0  0  0  0
   44.1900  -21.3813   39.8530 O   0  0  0  0  0  0  0  0  0  0  0  0
   44.2146  -20.5936   39.2254 H   0  0  0  0  0  0  0  0  0  0  0  0
 17 18  1  0  0  0
 18 19  2  0  0  0
 19 20  1  0  0  0
 20 21  2  0  0  0
 21 22  1  0  0  0
 22 23  2  0  0  0
 20  8  1  0  0  0
  8  9  2  0  0  0
  9 10  1  0  0  0
 10 11  2  0  0  0
 11 12  1  0  0  0
 12 13  2  0  0  0
 13 14  1  0  0  0
 10  1  1  0  0  0
  1  2  2  0  0  0
  2  3  1  0  0  0
  3  4  2  0  0  0
  4  5  1  0  0  0
  5  6  2  0  0  0
  6  7  1  0  0  0
  3 24  1  0  0  0
 24 25  2  0  0  0
 24 26  2  0  0  0
 24 27  1  0  0  0
 27 29  1  0  0  0
 29 30  1  0  0  0
 30 31  1  0  0  0
 30 32  1  0  0  0
 30 33  1  0  0  0
 23 18  1  0  0  0
 13  8  1  0  0  0
  6  1  1  0  0  0
 14 15  1  0  0  0
 14 16  1  0  0  0
 27 28  1  0  0  0
 33 34  1  0  0  0
M  END
> <minimizedAffinity>
-6.31862

> <CNNscore>
0.5010355711

> <CNNaffinity>
5.4725384712

> <CNN_VS>
2.7419364452

> <CNNaffinity_variance>
0.2680696845

$$$$
[H]OC(C([H])([H])[H])(C([H])([H])[H])C([H])([H])N([H])S(=O)(=O)c1c([H])c([H])c(C([H])([H])[H])c(-c2c([H])nc(N([H])[H])c(-c3c([H])c([H])nc(C([H])([H])[H])c3[H])c2[H])c1[H]


 34 36  0  0  0  0  0  0  0  0999 V2000
   36.7314  -20.2136   38.1506 C   0  0  0  0  0  0  0  0  0  0  0  0
   38.1087  -20.2934   37.9208 C   0  0  0  0  0  0  0  0  0  0  0  0
   38.9343  -21.0833   38.6834 C   0  0  0  0  0  0  0  0  0  0  0  0
   38.3978  -21.8239   39.7093 C   0  0  0  0  0  0  0  0  0  0  0  0
   37.0415  -21.7529   39.9453 C   0  0  0  0  0  0  0  0  0  0  0  0
   36.1995  -20.9501   39.1713 C   0  0  0  0  0  0  0  0  0  0  0  0
   34.7615  -20.9126   39.4870 C   0  0  0  0  0  0  0  0  0  0  0  0
   35.2452  -17.1434   36.6053 C   0  0  0  0  0  0  0  0  0  0  0  0
   36.0159  -17.9965   37.3709 C   0  0  0  0  0  0  0  0  0  0  0  0
   35.8748  -19.3850   37.3279 C   0  0  0  0  0  0  0  0  0  0  0  0
   34.9108  -19.8614   36.4668 C   0  0  0  0  0  0  0  0  0  0  0  0
   34.1574  -19.0385   35.7195 N   0  0  0  0  0  0  0  0  0  0  0  0
   34.3012  -17.6842   35.7675 C   0  0  0  0  0  0  0  0  0  0  0  0
   33.4887  -16.8362   34.9732 N   0  0  0  0  0  0  0  0  0  0  0  0
   33.4295  -17.0434   33.9540 H   0  0  0  0  0  0  0  0  0  0  0  0
   32.9438  -16.0207   35.3235 H   0  0  0  0  0  0  0  0  0  0  0  0
   38.2160  -13.3389   37.5290 C   0  0  0  0  0  0  0  0  0  0  0  0
   36.8774  -13.8534   37.1129 C   0  0  0  0  0  0  0  0  0  0  0  0
   36.6487  -15.2118   37.0455 C   0  0  0  0  0  0  0  0  0  0  0  0
   35.4151  -15.7007   36.6621 C   0  0  0  0  0  0  0  0  0  0  0  0
   34.4202  -14.8034   36.3490 C   0  0  0  0  0  0  0  0  0  0  0  0
   34.7039  -13.4494   36.4336 C   0  0  0  0  0  0  0  0  0  0  0  0
   35.9087  -12.9840   36.8082 N   0  0  0  0  0  0  0  0  0  0  0  0
   40.6646  -21.1379   38.3392 S   0  0  0  0  0  0  0  0  0  0  0  0
   41.1463  -22.5513   38.4156 O   0  0  0  0  0  0  0  0  0  0  0  0
   41.3595  -20.2823   39.3484 O   0  0  0  0  0  0  0  0  0  0  0  0
   40.9776  -20.4399   36.7753 N   0  0  0  0  0  0  0  0  0  0  0  0
   41.5318  -19.5733   36.9410 H   0  0  0  0  0  0  0  0  0  0  0  0
   41.8894  -21.3664   36.1025 C   0  0  0  0  0  0  0  0  0  0  0  0
   43.1964  -20.6390   35.9134 C   0  0  0  0  0  0  0  0  0  0  0  0
   44.2714  -21.4017   36.6479 C   0  0  0  0  0  0  0  0  0  0  0  0
   43.1219  -19.2093   36.3846 C   0  0  0  0  0  0  0  0  0  0  0  0
   43.5201  -20.6178   34.5632 O   0  0  0  0  0  0  0  0  0  0  0  0
   42.6481  -20.5767   34.0602 H   0  0  0  0  0  0  0  0  0  0  0  0
 17 18  1  0  0  0
 18 19  2  0  0  0
 19 20  1  0  0  0
 20 21  2  0  0  0
 21 22  1  0  0  0
 22 23  2  0  0  0
 20  8  1  0  0  0
  8  9  2  0  0  0
  9 10  1  0  0  0
 10 11  2  0  0  0
 11 12  1  0  0  0
 12 13  2  0  0  0
 13 14  1  0  0  0
 10  1  1  0  0  0
  1  2  2  0  0  0
  2  3  1  0  0  0
  3  4  2  0  0  0
  4  5  1  0  0  0
  5  6  2  0  0  0
  6  7  1  0  0  0
  3 24  1  0  0  0
 24 25  2  0  0  0
 24 26  2  0  0  0
 24 27  1  0  0  0
 27 29  1  0  0  0
 29 30  1  0  0  0
 30 31  1  0  0  0
 30 32  1  0  0  0
 30 33  1  0  0  0
 23 18  1  0  0  0
 13  8  1  0  0  0
  6  1  1  0  0  0
 14 15  1  0  0  0
 14 16  1  0  0  0
 27 28  1  0  0  0
 33 34  1  0  0  0
M  END
> <minimizedAffinity>
-6.68659

> <CNNscore>
0.4739162326

> <CNNaffinity>
5.6612868309

> <CNN_VS>
2.6829757690

> <CNNaffinity_variance>
0.2372058183

$$$$
[H]OC(C([H])([H])[H])(C([H])([H])[H])C([H])([H])N([H])S(=O)(=O)c1c([H])c([H])c(C([H])([H])[H])c(-c2c([H])nc(N([H])[H])c(-c3c([H])c([H])nc(C([H])([H])[H])c3[H])c2[H])c1[H]


 34 36  0  0  0  0  0  0  0  0999 V2000
   33.9259  -18.5026   35.5819 C   0  0  0  0  0  0  0  0  0  0  0  0
   33.7417  -19.6892   36.2990 C   0  0  0  0  0  0  0  0  0  0  0  0
   32.8504  -20.6554   35.9005 C   0  0  0  0  0  0  0  0  0  0  0  0
   32.1098  -20.4583   34.7597 C   0  0  0  0  0  0  0  0  0  0  0  0
   32.2826  -19.2923   34.0449 C   0  0  0  0  0  0  0  0  0  0  0  0
   33.1884  -18.3077   34.4482 C   0  0  0  0  0  0  0  0  0  0  0  0
   33.3133  -17.0808   33.6433 C   0  0  0  0  0  0  0  0  0  0  0  0
   35.2896  -15.1954   36.6892 C   0  0  0  0  0  0  0  0  0  0  0  0
   34.4416  -16.1995   36.2642 C   0  0  0  0  0  0  0  0  0  0  0  0
   34.8798  -17.5008   36.0108 C   0  0  0  0  0  0  0  0  0  0  0  0
   36.2234  -17.7288   36.2116 C   0  0  0  0  0  0  0  0  0  0  0  0
   37.0542  -16.7579   36.6243 N   0  0  0  0  0  0  0  0  0  0  0  0
   36.6186  -15.4901   36.8693 C   0  0  0  0  0  0  0  0  0  0  0  0
   37.5172  -14.4806   37.2980 N   0  0  0  0  0  0  0  0  0  0  0  0
   38.1278  -14.6952   38.1142 H   0  0  0  0  0  0  0  0  0  0  0  0
   37.6191  -13.5392   36.8644 H   0  0  0  0  0  0  0  0  0  0  0  0
   35.6085  -10.3944   35.6884 C   0  0  0  0  0  0  0  0  0  0  0  0
   34.9730  -11.5090   36.4523 C   0  0  0  0  0  0  0  0  0  0  0  0
   35.3884  -12.8090   36.2533 C   0  0  0  0  0  0  0  0  0  0  0  0
   34.8089  -13.8491   36.9535 C   0  0  0  0  0  0  0  0  0  0  0  0
   33.8088  -13.5600   37.8530 C   0  0  0  0  0  0  0  0  0  0  0  0
   33.4301  -12.2365   38.0140 C   0  0  0  0  0  0  0  0  0  0  0  0
   34.0012  -11.2312   37.3271 N   0  0  0  0  0  0  0  0  0  0  0  0
   32.6671  -22.1305   36.8523 S   0  0  0  0  0  0  0  0  0  0  0  0
   31.4772  -22.0038   37.7488 O   0  0  0  0  0  0  0  0  0  0  0  0
   33.9173  -22.3197   37.6490 O   0  0  0  0  0  0  0  0  0  0  0  0
   32.5245  -23.5036   35.7915 N   0  0  0  0  0  0  0  0  0  0  0  0
   33.3209  -24.1371   36.0150 H   0  0  0  0  0  0  0  0  0  0  0  0
   31.3219  -24.2165   36.2248 C   0  0  0  0  0  0  0  0  0  0  0  0
   30.4396  -24.3703   35.0119 C   0  0  0  0  0  0  0  0  0  0  0  0
   29.6408  -25.6409   35.1676 C   0  0  0  0  0  0  0  0  0  0  0  0
   31.2343  -24.3780   33.7313 C   0  0  0  0  0  0  0  0  0  0  0  0
   29.5545  -23.3022   34.9482 O   0  0  0  0  0  0  0  0  0  0  0  0
   30.0382  -22.5062   35.3321 H   0  0  0  0  0  0  0  0  0  0  0  0
 17 18  1  0  0  0
 18 19  2  0  0  0
 19 20  1  0  0  0
 20 21  2  0  0  0
 21 22  1  0  0  0
 22 23  2  0  0  0
 20  8  1  0  0  0
  8  9  2  0  0  0
  9 10  1  0  0  0
 10 11  2  0  0  0
 11 12  1  0  0  0
 12 13  2  0  0  0
 13 14  1  0  0  0
 10  1  1  0  0  0
  1  2  2  0  0  0
  2  3  1  0  0  0
  3  4  2  0  0  0
  4  5  1  0  0  0
  5  6  2  0  0  0
  6  7  1  0  0  0
  3 24  1  0  0  0
 24 25  2  0  0  0
 24 26  2  0  0  0
 24 27  1  0  0  0
 27 29  1  0  0  0
 29 30  1  0  0  0
 30 31  1  0  0  0
 30 32  1  0  0  0
 30 33  1  0  0  0
 23 18  1  0  0  0
 13  8  1  0  0  0
  6  1  1  0  0  0
 14 15  1  0  0  0
 14 16  1  0  0  0
 27 28  1  0  0  0
 33 34  1  0  0  0
M  END
> <minimizedAffinity>
-6.97891

> <CNNscore>
0.4716185033

> <CNNaffinity>
5.6494836807

> <CNN_VS>
2.6644010544

> <CNNaffinity_variance>
0.2061087340

$$$$
[H]OC(C([H])([H])[H])(C([H])([H])[H])C([H])([H])N([H])S(=O)(=O)c1c([H])c([H])c(C([H])([H])[H])c(-c2c([H])nc(N([H])[H])c(-c3c([H])c([H])nc(C([H])([H])[H])c3[H])c2[H])c1[H]


 34 36  0  0  0  0  0  0  0  0999 V2000
   35.4203  -14.8313   36.7771 C   0  0  0  0  0  0  0  0  0  0  0  0
   34.8032  -15.8883   36.1002 C   0  0  0  0  0  0  0  0  0  0  0  0
   35.4371  -17.0868   35.8798 C   0  0  0  0  0  0  0  0  0  0  0  0
   36.7215  -17.2626   36.3362 C   0  0  0  0  0  0  0  0  0  0  0  0
   37.3399  -16.2276   37.0044 C   0  0  0  0  0  0  0  0  0  0  0  0
   36.6975  -15.0074   37.2298 C   0  0  0  0  0  0  0  0  0  0  0  0
   37.4223  -13.9403   37.9402 C   0  0  0  0  0  0  0  0  0  0  0  0
   32.8000  -12.4294   37.9554 C   0  0  0  0  0  0  0  0  0  0  0  0
   33.5076  -13.5841   37.6838 C   0  0  0  0  0  0  0  0  0  0  0  0
   34.7313  -13.5792   37.0113 C   0  0  0  0  0  0  0  0  0  0  0  0
   35.1984  -12.3407   36.6295 C   0  0  0  0  0  0  0  0  0  0  0  0
   34.5163  -11.2138   36.8896 N   0  0  0  0  0  0  0  0  0  0  0  0
   33.3223  -11.2272   37.5465 C   0  0  0  0  0  0  0  0  0  0  0  0
   32.6180  -10.0237   37.8032 N   0  0  0  0  0  0  0  0  0  0  0  0
   33.1425   -9.2471   38.2579 H   0  0  0  0  0  0  0  0  0  0  0  0
   31.6169   -9.8496   37.5748 H   0  0  0  0  0  0  0  0  0  0  0  0
   27.9836  -11.4537   37.9003 C   0  0  0  0  0  0  0  0  0  0  0  0
   29.1804  -11.9806   38.6211 C   0  0  0  0  0  0  0  0  0  0  0  0
   30.4157  -11.9745   38.0078 C   0  0  0  0  0  0  0  0  0  0  0  0
   31.5307  -12.4590   38.6635 C   0  0  0  0  0  0  0  0  0  0  0  0
   31.3820  -12.9476   39.9410 C   0  0  0  0  0  0  0  0  0  0  0  0
   30.1183  -12.9300   40.5100 C   0  0  0  0  0  0  0  0  0  0  0  0
   29.0391  -12.4559   39.8626 N   0  0  0  0  0  0  0  0  0  0  0  0
   34.6001  -18.3800   35.0181 S   0  0  0  0  0  0  0  0  0  0  0  0
   34.8218  -19.6786   35.7253 O   0  0  0  0  0  0  0  0  0  0  0  0
   35.1443  -18.4304   33.6272 O   0  0  0  0  0  0  0  0  0  0  0  0
   32.9051  -18.0033   34.8904 N   0  0  0  0  0  0  0  0  0  0  0  0
   32.8350  -17.1337   34.3207 H   0  0  0  0  0  0  0  0  0  0  0  0
   32.3245  -19.0624   34.0634 C   0  0  0  0  0  0  0  0  0  0  0  0
   31.4810  -19.9193   34.9731 C   0  0  0  0  0  0  0  0  0  0  0  0
   31.7652  -21.3667   34.6551 C   0  0  0  0  0  0  0  0  0  0  0  0
   30.0120  -19.6092   34.8411 C   0  0  0  0  0  0  0  0  0  0  0  0
   31.8413  -19.6825   36.2931 O   0  0  0  0  0  0  0  0  0  0  0  0
   32.1180  -18.7152   36.3453 H   0  0  0  0  0  0  0  0  0  0  0  0
 17 18  1  0  0  0
 18 19  2  0  0  0
 19 20  1  0  0  0
 20 21  2  0  0  0
 21 22  1  0  0  0
 22 23  2  0  0  0
 20  8  1  0  0  0
  8  9  2  0  0  0
  9 10  1  0  0  0
 10 11  2  0  0  0
 11 12  1  0  0  0
 12 13  2  0  0  0
 13 14  1  0  0  0
 10  1  1  0  0  0
  1  2  2  0  0  0
  2  3  1  0  0  0
  3  4  2  0  0  0
  4  5  1  0  0  0
  5  6  2  0  0  0
  6  7  1  0  0  0
  3 24  1  0  0  0
 24 25  2  0  0  0
 24 26  2  0  0  0
 24 27  1  0  0  0
 27 29  1  0  0  0
 29 30  1  0  0  0
 30 31  1  0  0  0
 30 32  1  0  0  0
 30 33  1  0  0  0
 23 18  1  0  0  0
 13  8  1  0  0  0
  6  1  1  0  0  0
 14 15  1  0  0  0
 14 16  1  0  0  0
 27 28  1  0  0  0
 33 34  1  0  0  0
M  END
> <minimizedAffinity>
-9.92091

> <CNNscore>
0.4350214303

> <CNNaffinity>
6.5039167404

> <CNN_VS>
2.8293430805

> <CNNaffinity_variance>
0.1565523446

$$$$
[H]OC(C([H])([H])[H])(C([H])([H])[H])C([H])([H])N([H])S(=O)(=O)c1c([H])c([H])c(C([H])([H])[H])c(-c2c([H])nc(N([H])[H])c(-c3c([H])c([H])nc(C([H])([H])[H])c3[H])c2[H])c1[H]


 34 36  0  0  0  0  0  0  0  0999 V2000
   37.4909  -20.1633   36.9182 C   0  0  0  0  0  0  0  0  0  0  0  0
   37.6166  -20.5658   38.2519 C   0  0  0  0  0  0  0  0  0  0  0  0
   38.6600  -21.3463   38.6864 C   0  0  0  0  0  0  0  0  0  0  0  0
   39.6179  -21.7505   37.7876 C   0  0  0  0  0  0  0  0  0  0  0  0
   39.5042  -21.3601   36.4705 C   0  0  0  0  0  0  0  0  0  0  0  0
   38.4437  -20.5664   36.0256 C   0  0  0  0  0  0  0  0  0  0  0  0
   38.3781  -20.1965   34.6017 C   0  0  0  0  0  0  0  0  0  0  0  0
   35.4402  -17.0921   36.2975 C   0  0  0  0  0  0  0  0  0  0  0  0
   36.4445  -17.9514   36.6986 C   0  0  0  0  0  0  0  0  0  0  0  0
   36.3904  -19.3296   36.4811 C   0  0  0  0  0  0  0  0  0  0  0  0
   35.2636  -19.7890   35.8351 C   0  0  0  0  0  0  0  0  0  0  0  0
   34.2830  -18.9599   35.4424 N   0  0  0  0  0  0  0  0  0  0  0  0
   34.3434  -17.6158   35.6587 C   0  0  0  0  0  0  0  0  0  0  0  0
   33.2915  -16.7621   35.2403 N   0  0  0  0  0  0  0  0  0  0  0  0
   32.9732  -16.8402   34.2515 H   0  0  0  0  0  0  0  0  0  0  0  0
   32.8082  -16.0610   35.8399 H   0  0  0  0  0  0  0  0  0  0  0  0
   38.2033  -13.2400   37.5937 C   0  0  0  0  0  0  0  0  0  0  0  0
   36.8836  -13.7877   37.1600 C   0  0  0  0  0  0  0  0  0  0  0  0
   36.7374  -15.1397   36.9305 C   0  0  0  0  0  0  0  0  0  0  0  0
   35.5221  -15.6592   36.5290 C   0  0  0  0  0  0  0  0  0  0  0  0
   34.4615  -14.7986   36.3631 C   0  0  0  0  0  0  0  0  0  0  0  0
   34.6635  -13.4494   36.6074 C   0  0  0  0  0  0  0  0  0  0  0  0
   35.8512  -12.9541   36.9981 N   0  0  0  0  0  0  0  0  0  0  0  0
   38.7583  -21.8187   40.3843 S   0  0  0  0  0  0  0  0  0  0  0  0
   39.9271  -21.1419   41.0258 O   0  0  0  0  0  0  0  0  0  0  0  0
   38.9069  -23.3048   40.4383 O   0  0  0  0  0  0  0  0  0  0  0  0
   37.2683  -21.4243   41.1939 N   0  0  0  0  0  0  0  0  0  0  0  0
   36.8281  -20.6529   40.6492 H   0  0  0  0  0  0  0  0  0  0  0  0
   36.3959  -22.5847   41.0067 C   0  0  0  0  0  0  0  0  0  0  0  0
   34.9930  -22.0586   40.8384 C   0  0  0  0  0  0  0  0  0  0  0  0
   34.2049  -22.4121   42.0756 C   0  0  0  0  0  0  0  0  0  0  0  0
   34.3314  -22.5985   39.5964 C   0  0  0  0  0  0  0  0  0  0  0  0
   35.0308  -20.6752   40.7242 O   0  0  0  0  0  0  0  0  0  0  0  0
   35.8946  -20.4499   40.2573 H   0  0  0  0  0  0  0  0  0  0  0  0
 17 18  1  0  0  0
 18 19  2  0  0  0
 19 20  1  0  0  0
 20 21  2  0  0  0
 21 22  1  0  0  0
 22 23  2  0  0  0
 20  8  1  0  0  0
  8  9  2  0  0  0
  9 10  1  0  0  0
 10 11  2  0  0  0
 11 12  1  0  0  0
 12 13  2  0  0  0
 13 14  1  0  0  0
 10  1  1  0  0  0
  1  2  2  0  0  0
  2  3  1  0  0  0
  3  4  2  0  0  0
  4  5  1  0  0  0
  5  6  2  0  0  0
  6  7  1  0  0  0
  3 24  1  0  0  0
 24 25  2  0  0  0
 24 26  2  0  0  0
 24 27  1  0  0  0
 27 29  1  0  0  0
 29 30  1  0  0  0
 30 31  1  0  0  0
 30 32  1  0  0  0
 30 33  1  0  0  0
 23 18  1  0  0  0
 13  8  1  0  0  0
  6  1  1  0  0  0
 14 15  1  0  0  0
 14 16  1  0  0  0
 27 28  1  0  0  0
 33 34  1  0  0  0
M  END
> <minimizedAffinity>
-6.27169

> <CNNscore>
0.4162112474

> <CNNaffinity>
5.4971261024

> <CNN_VS>
2.2879657745

> <CNNaffinity_variance>
0.2212265283

$$$$
[H]OC(C([H])([H])[H])(C([H])([H])[H])C([H])([H])N([H])S(=O)(=O)c1c([H])c([H])c(C([H])([H])[H])c(-c2c([H])nc(N([H])[H])c(-c3c([H])c([H])nc(C([H])([H])[H])c3[H])c2[H])c1[H]


 34 36  0  0  0  0  0  0  0  0999 V2000
   37.2980  -19.3628   37.0519 C   0  0  0  0  0  0  0  0  0  0  0  0
   38.5998  -19.3211   36.5420 C   0  0  0  0  0  0  0  0  0  0  0  0
   39.6310  -20.0314   37.1066 C   0  0  0  0  0  0  0  0  0  0  0  0
   39.3850  -20.8125   38.2104 C   0  0  0  0  0  0  0  0  0  0  0  0
   38.1059  -20.8611   38.7219 C   0  0  0  0  0  0  0  0  0  0  0  0
   37.0551  -20.1393   38.1497 C   0  0  0  0  0  0  0  0  0  0  0  0
   35.7157  -20.2282   38.7555 C   0  0  0  0  0  0  0  0  0  0  0  0
   35.1194  -16.4663   36.1103 C   0  0  0  0  0  0  0  0  0  0  0  0
   36.1109  -17.2453   36.6740 C   0  0  0  0  0  0  0  0  0  0  0  0
   36.2207  -18.6167   36.4354 C   0  0  0  0  0  0  0  0  0  0  0  0
   35.2714  -19.1550   35.5947 C   0  0  0  0  0  0  0  0  0  0  0  0
   34.3043  -18.4043   35.0431 N   0  0  0  0  0  0  0  0  0  0  0  0
   34.2039  -17.0662   35.2813 C   0  0  0  0  0  0  0  0  0  0  0  0
   33.1692  -16.2965   34.6920 N   0  0  0  0  0  0  0  0  0  0  0  0
   33.0381  -16.3756   33.6616 H   0  0  0  0  0  0  0  0  0  0  0  0
   32.5266  -15.6564   35.2038 H   0  0  0  0  0  0  0  0  0  0  0  0
   32.3486  -12.6629   37.5284 C   0  0  0  0  0  0  0  0  0  0  0  0
   33.6661  -13.1919   37.0656 C   0  0  0  0  0  0  0  0  0  0  0  0
   33.8161  -14.5363   36.7969 C   0  0  0  0  0  0  0  0  0  0  0  0
   35.0293  -15.0383   36.3681 C   0  0  0  0  0  0  0  0  0  0  0  0
   36.0842  -14.1684   36.2154 C   0  0  0  0  0  0  0  0  0  0  0  0
   35.8786  -12.8275   36.4992 C   0  0  0  0  0  0  0  0  0  0  0  0
   34.6929  -12.3491   36.9161 N   0  0  0  0  0  0  0  0  0  0  0  0
   41.2509  -19.9338   36.4124 S   0  0  0  0  0  0  0  0  0  0  0  0
   41.4272  -21.0174   35.3974 O   0  0  0  0  0  0  0  0  0  0  0  0
   42.2362  -20.0811   37.5264 O   0  0  0  0  0  0  0  0  0  0  0  0
   41.5001  -18.3582   35.7148 N   0  0  0  0  0  0  0  0  0  0  0  0
   40.6131  -17.8286   35.8500 H   0  0  0  0  0  0  0  0  0  0  0  0
   42.4866  -17.6970   36.5704 C   0  0  0  0  0  0  0  0  0  0  0  0
   43.4824  -17.0267   35.6580 C   0  0  0  0  0  0  0  0  0  0  0  0
   44.3149  -18.0989   34.9992 C   0  0  0  0  0  0  0  0  0  0  0  0
   44.3489  -16.0379   36.3950 C   0  0  0  0  0  0  0  0  0  0  0  0
   42.8028  -16.3301   34.6675 O   0  0  0  0  0  0  0  0  0  0  0  0
   41.9454  -16.0036   35.0838 H   0  0  0  0  0  0  0  0  0  0  0  0
 17 18  1  0  0  0
 18 19  2  0  0  0
 19 20  1  0  0  0
 20 21  2  0  0  0
 21 22  1  0  0  0
 22 23  2  0  0  0
 20  8  1  0  0  0
  8  9  2  0  0  0
  9 10  1  0  0  0
 10 11  2  0  0  0
 11 12  1  0  0  0
 12 13  2  0  0  0
 13 14  1  0  0  0
 10  1  1  0  0  0
  1  2  2  0  0  0
  2  3  1  0  0  0
  3  4  2  0  0  0
  4  5  1  0  0  0
  5  6  2  0  0  0
  6  7  1  0  0  0
  3 24  1  0  0  0
 24 25  2  0  0  0
 24 26  2  0  0  0
 24 27  1  0  0  0
 27 29  1  0  0  0
 29 30  1  0  0  0
 30 31  1  0  0  0
 30 32  1  0  0  0
 30 33  1  0  0  0
 23 18  1  0  0  0
 13  8  1  0  0  0
  6  1  1  0  0  0
 14 15  1  0  0  0
 14 16  1  0  0  0
 27 28  1  0  0  0
 33 34  1  0  0  0
M  END
> <minimizedAffinity>
-7.62986

> <CNNscore>
0.3855198622

> <CNNaffinity>
5.7023520470

> <CNN_VS>
2.1983699799

> <CNNaffinity_variance>
0.6121456623

$$$$
[H]OC(=O)[C@@]([H])(N([H])C(=O)[C@@]([H])(N([H])C(=O)[C@@]([H])(N([H])C(=O)c1c([H])c([H])c(S(=O)(=O)N([H])[H])c([H])c1[H])C([H])([H])c1c([H])c([H])c([H])c([H])c1[H])C([H])([H])c1c([H])c([H])c([H])c([H])c1[H])C([H])([H])c1c([H])c([H])c([H])c([H])c1[H]


 52 55  0  0  0  0  0  0  0  0999 V2000
   33.9156  -15.6480   35.7698 C   0  0  0  0  0  0  0  0  0  0  0  0
   33.3951  -15.7154   34.6458 O   0  0  0  0  0  0  0  0  0  0  0  0
   34.4659  -16.7782   36.3825 N   0  0  0  0  0  0  0  0  0  0  0  0
   34.8989  -16.6735   37.3397 H   0  0  0  0  0  0  0  0  0  0  0  0
   33.9545  -14.3359   36.4593 C   0  0  0  0  0  0  0  0  0  0  0  0
   32.3810  -12.6864   37.4507 C   0  0  0  0  0  0  0  0  0  0  0  0
   33.3681  -11.8846   37.5650 O   0  0  0  0  0  0  0  0  0  0  0  0
   32.6269  -13.9516   36.9037 N   0  0  0  0  0  0  0  0  0  0  0  0
   31.8491  -14.6312   36.8122 H   0  0  0  0  0  0  0  0  0  0  0  0
   28.5805  -11.2652   38.8539 C   0  0  0  0  0  0  0  0  0  0  0  0
   29.2248  -12.3285   39.4519 C   0  0  0  0  0  0  0  0  0  0  0  0
   30.4426  -12.7862   38.9851 C   0  0  0  0  0  0  0  0  0  0  0  0
   31.0800  -12.2054   37.8981 C   0  0  0  0  0  0  0  0  0  0  0  0
   30.4337  -11.1427   37.3000 C   0  0  0  0  0  0  0  0  0  0  0  0
   29.1978  -10.6759   37.7706 C   0  0  0  0  0  0  0  0  0  0  0  0
   25.7458  -11.1384   38.4260 N   0  0  0  0  0  0  0  0  0  0  0  0
   27.0326  -10.6791   39.4445 S   0  0  0  0  0  0  0  0  0  0  0  0
   26.8182  -11.2205   40.8455 O   0  0  0  0  0  0  0  0  0  0  0  0
   27.0393   -9.1698   39.5817 O   0  0  0  0  0  0  0  0  0  0  0  0
   24.8779  -11.4183   38.9749 H   0  0  0  0  0  0  0  0  0  0  0  0
   26.0309  -11.9918   37.8987 H   0  0  0  0  0  0  0  0  0  0  0  0
   34.8810  -14.5168   37.6473 C   0  0  0  0  0  0  0  0  0  0  0  0
   36.2001  -13.9244   37.4789 C   0  0  0  0  0  0  0  0  0  0  0  0
   37.2823  -14.4739   38.1245 C   0  0  0  0  0  0  0  0  0  0  0  0
   38.5612  -13.9433   37.9925 C   0  0  0  0  0  0  0  0  0  0  0  0
   38.7166  -12.8394   37.1885 C   0  0  0  0  0  0  0  0  0  0  0  0
   37.6606  -12.2751   36.5379 C   0  0  0  0  0  0  0  0  0  0  0  0
   36.3819  -12.8271   36.6852 C   0  0  0  0  0  0  0  0  0  0  0  0
   34.4793  -18.1016   35.7704 C   0  0  0  0  0  0  0  0  0  0  0  0
   33.2624  -18.8810   36.0095 C   0  0  0  0  0  0  0  0  0  0  0  0
   32.1627  -18.2372   35.9179 O   0  0  0  0  0  0  0  0  0  0  0  0
   33.2052  -20.2400   36.3239 N   0  0  0  0  0  0  0  0  0  0  0  0
   34.0647  -20.7966   36.4045 H   0  0  0  0  0  0  0  0  0  0  0  0
   31.9392  -20.9481   36.5555 C   0  0  0  0  0  0  0  0  0  0  0  0
   32.2131  -22.0194   37.5341 C   0  0  0  0  0  0  0  0  0  0  0  0
   31.3996  -22.3125   38.6164 O   0  0  0  0  0  0  0  0  0  0  0  0
   33.2494  -22.7582   37.4373 O   0  0  0  0  0  0  0  0  0  0  0  0
   31.7916  -22.6456   39.4956 H   0  0  0  0  0  0  0  0  0  0  0  0
   31.3508  -21.4040   35.2591 C   0  0  0  0  0  0  0  0  0  0  0  0
   30.2864  -22.4138   35.3565 C   0  0  0  0  0  0  0  0  0  0  0  0
   30.5317  -23.7430   35.0515 C   0  0  0  0  0  0  0  0  0  0  0  0
   29.5333  -24.6838   35.1588 C   0  0  0  0  0  0  0  0  0  0  0  0
   28.2479  -24.3157   35.5781 C   0  0  0  0  0  0  0  0  0  0  0  0
   27.9919  -22.9977   35.8835 C   0  0  0  0  0  0  0  0  0  0  0  0
   29.0107  -22.0891   35.7651 C   0  0  0  0  0  0  0  0  0  0  0  0
   35.7345  -18.8390   36.2230 C   0  0  0  0  0  0  0  0  0  0  0  0
   36.7809  -18.8905   35.1920 C   0  0  0  0  0  0  0  0  0  0  0  0
   37.6511  -19.9553   35.1445 C   0  0  0  0  0  0  0  0  0  0  0  0
   38.6136  -19.9560   34.1706 C   0  0  0  0  0  0  0  0  0  0  0  0
   38.7364  -18.9305   33.2435 C   0  0  0  0  0  0  0  0  0  0  0  0
   37.8500  -17.8644   33.3067 C   0  0  0  0  0  0  0  0  0  0  0  0
   36.8869  -17.8575   34.2765 C   0  0  0  0  0  0  0  0  0  0  0  0
 16 17  1  0  0  0
 17 18  2  0  0  0
 17 19  2  0  0  0
 17 10  1  0  0  0
 10 11  2  0  0  0
 11 12  1  0  0  0
 12 13  2  0  0  0
 13 14  1  0  0  0
 14 15  2  0  0  0
 13  6  1  0  0  0
  6  7  2  0  0  0
  6  8  1  0  0  0
  8  5  1  0  0  0
  5 22  1  0  0  0
 22 23  1  0  0  0
 23 24  2  0  0  0
 24 25  1  0  0  0
 25 26  2  0  0  0
 26 27  1  0  0  0
 27 28  2  0  0  0
  5  1  1  0  0  0
  1  2  2  0  0  0
  1  3  1  0  0  0
  3 29  1  0  0  0
 29 46  1  0  0  0
 46 47  1  0  0  0
 47 48  2  0  0  0
 48 49  1  0  0  0
 49 50  2  0  0  0
 50 51  1  0  0  0
 51 52  2  0  0  0
 29 30  1  0  0  0
 30 31  2  0  0  0
 30 32  1  0  0  0
 32 34  1  0  0  0
 34 39  1  0  0  0
 39 40  1  0  0  0
 40 41  2  0  0  0
 41 42  1  0  0  0
 42 43  2  0  0  0
 43 44  1  0  0  0
 44 45  2  0  0  0
 34 35  1  0  0  0
 35 36  1  0  0  0
 35 37  2  0  0  0
 15 10  1  0  0  0
 28 23  1  0  0  0
 52 47  1  0  0  0
 45 40  1  0  0  0
 16 20  1  0  0  0
 16 21  1  0  0  0
  8  9  1  0  0  0
  3  4  1  0  0  0
 32 33  1  0  0  0
 36 38  1  0  0  0
M  END
> <minimizedAffinity>
-7.14856

> <CNNscore>
0.3243414760

> <CNNaffinity>
6.2314014435

> <CNN_VS>
2.0211019516

> <CNNaffinity_variance>
0.2206813097

$$$$
[H]OC(=O)[C@@]([H])(N([H])C(=O)[C@@]([H])(N([H])C(=O)[C@@]([H])(N([H])C(=O)c1c([H])c([H])c(S(=O)(=O)N([H])[H])c([H])c1[H])C([H])([H])c1c([H])c([H])c([H])c([H])c1[H])C([H])([H])c1c([H])c([H])c([H])c([H])c1[H])C([H])([H])c1c([H])c([H])c([H])c([H])c1[H]


 52 55  0  0  0  0  0  0  0  0999 V2000
   33.9477  -15.5271   35.8578 C   0  0  0  0  0  0  0  0  0  0  0  0
   33.2501  -15.6391   34.8382 O   0  0  0  0  0  0  0  0  0  0  0  0
   34.7122  -16.5968   36.3338 N   0  0  0  0  0  0  0  0  0  0  0  0
   35.2914  -16.4555   37.2053 H   0  0  0  0  0  0  0  0  0  0  0  0
   33.9668  -14.2259   36.5685 C   0  0  0  0  0  0  0  0  0  0  0  0
   32.3392  -12.5972   37.5055 C   0  0  0  0  0  0  0  0  0  0  0  0
   33.2756  -11.7293   37.4981 O   0  0  0  0  0  0  0  0  0  0  0  0
   32.6405  -13.8873   37.0523 N   0  0  0  0  0  0  0  0  0  0  0  0
   31.9058  -14.6189   37.0607 H   0  0  0  0  0  0  0  0  0  0  0  0
   28.4613  -11.3125   38.8262 C   0  0  0  0  0  0  0  0  0  0  0  0
   29.1254  -10.6786   37.7963 C   0  0  0  0  0  0  0  0  0  0  0  0
   30.3787  -11.0924   37.3864 C   0  0  0  0  0  0  0  0  0  0  0  0
   31.0332  -12.1606   37.9829 C   0  0  0  0  0  0  0  0  0  0  0  0
   30.3684  -12.7928   39.0140 C   0  0  0  0  0  0  0  0  0  0  0  0
   29.0968  -12.3755   39.4328 C   0  0  0  0  0  0  0  0  0  0  0  0
   25.6456  -11.2925   38.2730 N   0  0  0  0  0  0  0  0  0  0  0  0
   26.8671  -10.7906   39.3501 S   0  0  0  0  0  0  0  0  0  0  0  0
   26.6120  -11.3491   40.7375 O   0  0  0  0  0  0  0  0  0  0  0  0
   26.8090   -9.2831   39.4949 O   0  0  0  0  0  0  0  0  0  0  0  0
   24.7658  -11.6094   38.7813 H   0  0  0  0  0  0  0  0  0  0  0  0
   25.9868  -12.1307   37.7548 H   0  0  0  0  0  0  0  0  0  0  0  0
   34.9280  -14.3994   37.7297 C   0  0  0  0  0  0  0  0  0  0  0  0
   36.2471  -13.8232   37.5118 C   0  0  0  0  0  0  0  0  0  0  0  0
   37.3466  -14.3896   38.1119 C   0  0  0  0  0  0  0  0  0  0  0  0
   38.6261  -13.8747   37.9318 C   0  0  0  0  0  0  0  0  0  0  0  0
   38.7640  -12.7691   37.1270 C   0  0  0  0  0  0  0  0  0  0  0  0
   37.6906  -12.1883   36.5210 C   0  0  0  0  0  0  0  0  0  0  0  0
   36.4116  -12.7245   36.7163 C   0  0  0  0  0  0  0  0  0  0  0  0
   34.7590  -17.9044   35.6902 C   0  0  0  0  0  0  0  0  0  0  0  0
   36.0972  -18.3030   35.2476 C   0  0  0  0  0  0  0  0  0  0  0  0
   36.3485  -18.1263   34.0076 O   0  0  0  0  0  0  0  0  0  0  0  0
   37.0995  -18.8500   36.0508 N   0  0  0  0  0  0  0  0  0  0  0  0
   36.9415  -19.0064   37.0536 H   0  0  0  0  0  0  0  0  0  0  0  0
   38.4178  -19.2302   35.5259 C   0  0  0  0  0  0  0  0  0  0  0  0
   38.3305  -20.6458   35.1153 C   0  0  0  0  0  0  0  0  0  0  0  0
   37.8049  -21.6551   35.9053 O   0  0  0  0  0  0  0  0  0  0  0  0
   38.7503  -21.0333   33.9739 O   0  0  0  0  0  0  0  0  0  0  0  0
   38.1769  -22.6025   35.8668 H   0  0  0  0  0  0  0  0  0  0  0  0
   39.4867  -18.9205   36.5241 C   0  0  0  0  0  0  0  0  0  0  0  0
   40.8440  -18.7578   35.9823 C   0  0  0  0  0  0  0  0  0  0  0  0
   41.0584  -18.6208   34.6202 C   0  0  0  0  0  0  0  0  0  0  0  0
   42.3307  -18.4550   34.1230 C   0  0  0  0  0  0  0  0  0  0  0  0
   43.4351  -18.4221   34.9848 C   0  0  0  0  0  0  0  0  0  0  0  0
   43.2346  -18.5578   36.3404 C   0  0  0  0  0  0  0  0  0  0  0  0
   41.9537  -18.7208   36.7989 C   0  0  0  0  0  0  0  0  0  0  0  0
   33.7446  -17.9281   34.5524 C   0  0  0  0  0  0  0  0  0  0  0  0
   32.8075  -19.0577   34.6338 C   0  0  0  0  0  0  0  0  0  0  0  0
   33.1866  -20.3024   34.1862 C   0  0  0  0  0  0  0  0  0  0  0  0
   32.2774  -21.3222   34.2760 C   0  0  0  0  0  0  0  0  0  0  0  0
   31.0038  -21.1414   34.7972 C   0  0  0  0  0  0  0  0  0  0  0  0
   30.6388  -19.8790   35.2438 C   0  0  0  0  0  0  0  0  0  0  0  0
   31.5417  -18.8566   35.1568 C   0  0  0  0  0  0  0  0  0  0  0  0
 16 17  1  0  0  0
 17 18  2  0  0  0
 17 19  2  0  0  0
 17 10  1  0  0  0
 10 11  2  0  0  0
 11 12  1  0  0  0
 12 13  2  0  0  0
 13 14  1  0  0  0
 14 15  2  0  0  0
 13  6  1  0  0  0
  6  7  2  0  0  0
  6  8  1  0  0  0
  8  5  1  0  0  0
  5 22  1  0  0  0
 22 23  1  0  0  0
 23 24  2  0  0  0
 24 25  1  0  0  0
 25 26  2  0  0  0
 26 27  1  0  0  0
 27 28  2  0  0  0
  5  1  1  0  0  0
  1  2  2  0  0  0
  1  3  1  0  0  0
  3 29  1  0  0  0
 29 46  1  0  0  0
 46 47  1  0  0  0
 47 48  2  0  0  0
 48 49  1  0  0  0
 49 50  2  0  0  0
 50 51  1  0  0  0
 51 52  2  0  0  0
 29 30  1  0  0  0
 30 31  2  0  0  0
 30 32  1  0  0  0
 32 34  1  0  0  0
 34 39  1  0  0  0
 39 40  1  0  0  0
 40 41  2  0  0  0
 41 42  1  0  0  0
 42 43  2  0  0  0
 43 44  1  0  0  0
 44 45  2  0  0  0
 34 35  1  0  0  0
 35 36  1  0  0  0
 35 37  2  0  0  0
 15 10  1  0  0  0
 28 23  1  0  0  0
 52 47  1  0  0  0
 45 40  1  0  0  0
 16 20  1  0  0  0
 16 21  1  0  0  0
  8  9  1  0  0  0
  3  4  1  0  0  0
 32 33  1  0  0  0
 36 38  1  0  0  0
M  END
> <minimizedAffinity>
-7.56610

> <CNNscore>
0.3014716804

> <CNNaffinity>
6.2804803848

> <CNN_VS>
1.8933869600

> <CNNaffinity_variance>
0.1803841889

$$$$
[H]OC(=O)[C@@]([H])(N([H])C(=O)[C@@]([H])(N([H])C(=O)[C@@]([H])(N([H])C(=O)c1c([H])c([H])c(S(=O)(=O)N([H])[H])c([H])c1[H])C([H])([H])c1c([H])c([H])c([H])c([H])c1[H])C([H])([H])c1c([H])c([H])c([H])c([H])c1[H])C([H])([H])c1c([H])c([H])c([H])c([H])c1[H]


 52 55  0  0  0  0  0  0  0  0999 V2000
   32.7104  -13.5620   36.1996 C   0  0  0  0  0  0  0  0  0  0  0  0
   32.2653  -13.2954   35.0728 O   0  0  0  0  0  0  0  0  0  0  0  0
   33.4827  -14.7064   36.4216 N   0  0  0  0  0  0  0  0  0  0  0  0
   33.8408  -14.8927   37.3972 H   0  0  0  0  0  0  0  0  0  0  0  0
   32.4160  -12.6355   37.3193 C   0  0  0  0  0  0  0  0  0  0  0  0
   30.7748  -12.9961   39.1512 C   0  0  0  0  0  0  0  0  0  0  0  0
   30.1407  -11.9752   38.7199 O   0  0  0  0  0  0  0  0  0  0  0  0
   31.9459  -13.3691   38.4806 N   0  0  0  0  0  0  0  0  0  0  0  0
   32.4921  -14.1841   38.8161 H   0  0  0  0  0  0  0  0  0  0  0  0
   29.1722  -15.1040   42.5308 C   0  0  0  0  0  0  0  0  0  0  0  0
   29.1524  -15.6438   41.2612 C   0  0  0  0  0  0  0  0  0  0  0  0
   29.6602  -14.9521   40.1777 C   0  0  0  0  0  0  0  0  0  0  0  0
   30.2144  -13.6865   40.3059 C   0  0  0  0  0  0  0  0  0  0  0  0
   30.2322  -13.1472   41.5762 C   0  0  0  0  0  0  0  0  0  0  0  0
   29.7177  -13.8459   42.6779 C   0  0  0  0  0  0  0  0  0  0  0  0
   29.5701  -15.9016   45.2584 N   0  0  0  0  0  0  0  0  0  0  0  0
   28.5288  -15.9801   43.9116 S   0  0  0  0  0  0  0  0  0  0  0  0
   27.1708  -15.3987   44.2576 O   0  0  0  0  0  0  0  0  0  0  0  0
   28.2792  -17.4340   43.5645 O   0  0  0  0  0  0  0  0  0  0  0  0
   29.0378  -15.7857   46.1728 H   0  0  0  0  0  0  0  0  0  0  0  0
   30.1617  -15.0476   45.1686 H   0  0  0  0  0  0  0  0  0  0  0  0
   33.7224  -11.9290   37.6299 C   0  0  0  0  0  0  0  0  0  0  0  0
   33.7797  -10.5442   37.1843 C   0  0  0  0  0  0  0  0  0  0  0  0
   32.7189   -9.7046   37.4283 C   0  0  0  0  0  0  0  0  0  0  0  0
   32.7291   -8.3741   37.0228 C   0  0  0  0  0  0  0  0  0  0  0  0
   33.8434   -7.9147   36.3621 C   0  0  0  0  0  0  0  0  0  0  0  0
   34.9080   -8.7261   36.1071 C   0  0  0  0  0  0  0  0  0  0  0  0
   34.8755  -10.0623   36.5256 C   0  0  0  0  0  0  0  0  0  0  0  0
   33.8275  -15.6623   35.3758 C   0  0  0  0  0  0  0  0  0  0  0  0
   33.4598  -17.0453   35.6881 C   0  0  0  0  0  0  0  0  0  0  0  0
   34.1281  -17.6004   36.6248 O   0  0  0  0  0  0  0  0  0  0  0  0
   32.4619  -17.7924   35.0597 N   0  0  0  0  0  0  0  0  0  0  0  0
   31.8984  -17.3846   34.3040 H   0  0  0  0  0  0  0  0  0  0  0  0
   32.1587  -19.1813   35.4298 C   0  0  0  0  0  0  0  0  0  0  0  0
   33.0992  -20.0442   34.6873 C   0  0  0  0  0  0  0  0  0  0  0  0
   32.9054  -20.4652   33.3819 O   0  0  0  0  0  0  0  0  0  0  0  0
   34.1773  -20.4672   35.2239 O   0  0  0  0  0  0  0  0  0  0  0  0
   33.2284  -21.3793   33.0693 H   0  0  0  0  0  0  0  0  0  0  0  0
   30.7104  -19.4771   35.2070 C   0  0  0  0  0  0  0  0  0  0  0  0
   30.2038  -20.7105   35.8269 C   0  0  0  0  0  0  0  0  0  0  0  0
   30.9658  -21.4138   36.7460 C   0  0  0  0  0  0  0  0  0  0  0  0
   30.4783  -22.5596   37.3318 C   0  0  0  0  0  0  0  0  0  0  0  0
   29.2014  -23.0382   37.0096 C   0  0  0  0  0  0  0  0  0  0  0  0
   28.4350  -22.3481   36.0971 C   0  0  0  0  0  0  0  0  0  0  0  0
   28.9534  -21.2113   35.5346 C   0  0  0  0  0  0  0  0  0  0  0  0
   35.3097  -15.5194   35.0493 C   0  0  0  0  0  0  0  0  0  0  0  0
   36.0830  -14.8859   36.1269 C   0  0  0  0  0  0  0  0  0  0  0  0
   36.4404  -15.6129   37.2391 C   0  0  0  0  0  0  0  0  0  0  0  0
   37.1545  -14.9782   38.2199 C   0  0  0  0  0  0  0  0  0  0  0  0
   37.5236  -13.6434   38.1276 C   0  0  0  0  0  0  0  0  0  0  0  0
   37.1544  -12.9257   36.9986 C   0  0  0  0  0  0  0  0  0  0  0  0
   36.4412  -13.5533   36.0159 C   0  0  0  0  0  0  0  0  0  0  0  0
 16 17  1  0  0  0
 17 18  2  0  0  0
 17 19  2  0  0  0
 17 10  1  0  0  0
 10 11  2  0  0  0
 11 12  1  0  0  0
 12 13  2  0  0  0
 13 14  1  0  0  0
 14 15  2  0  0  0
 13  6  1  0  0  0
  6  7  2  0  0  0
  6  8  1  0  0  0
  8  5  1  0  0  0
  5 22  1  0  0  0
 22 23  1  0  0  0
 23 24  2  0  0  0
 24 25  1  0  0  0
 25 26  2  0  0  0
 26 27  1  0  0  0
 27 28  2  0  0  0
  5  1  1  0  0  0
  1  2  2  0  0  0
  1  3  1  0  0  0
  3 29  1  0  0  0
 29 46  1  0  0  0
 46 47  1  0  0  0
 47 48  2  0  0  0
 48 49  1  0  0  0
 49 50  2  0  0  0
 50 51  1  0  0  0
 51 52  2  0  0  0
 29 30  1  0  0  0
 30 31  2  0  0  0
 30 32  1  0  0  0
 32 34  1  0  0  0
 34 39  1  0  0  0
 39 40  1  0  0  0
 40 41  2  0  0  0
 41 42  1  0  0  0
 42 43  2  0  0  0
 43 44  1  0  0  0
 44 45  2  0  0  0
 34 35  1  0  0  0
 35 36  1  0  0  0
 35 37  2  0  0  0
 15 10  1  0  0  0
 28 23  1  0  0  0
 52 47  1  0  0  0
 45 40  1  0  0  0
 16 20  1  0  0  0
 16 21  1  0  0  0
  8  9  1  0  0  0
  3  4  1  0  0  0
 32 33  1  0  0  0
 36 38  1  0  0  0
M  END
> <minimizedAffinity>
-7.80145

> <CNNscore>
0.2736548483

> <CNNaffinity>
6.5465688705

> <CNN_VS>
1.7915003300

> <CNNaffinity_variance>
0.2865091264

$$$$
[H]OC(=O)[C@@]([H])(N([H])C(=O)[C@@]([H])(N([H])C(=O)[C@@]([H])(N([H])C(=O)c1c([H])c([H])c(S(=O)(=O)N([H])[H])c([H])c1[H])C([H])([H])c1c([H])c([H])c([H])c([H])c1[H])C([H])([H])c1c([H])c([H])c([H])c([H])c1[H])C([H])([H])c1c([H])c([H])c([H])c([H])c1[H]


 52 55  0  0  0  0  0  0  0  0999 V2000
   33.5482  -15.4693   35.2854 C   0  0  0  0  0  0  0  0  0  0  0  0
   32.9016  -15.2565   34.2484 O   0  0  0  0  0  0  0  0  0  0  0  0
   34.0547  -16.7400   35.5757 N   0  0  0  0  0  0  0  0  0  0  0  0
   34.5997  -16.8744   36.4700 H   0  0  0  0  0  0  0  0  0  0  0  0
   33.7868  -14.3430   36.2199 C   0  0  0  0  0  0  0  0  0  0  0  0
   32.3962  -12.5776   37.2824 C   0  0  0  0  0  0  0  0  0  0  0  0
   33.4113  -11.8058   37.2180 O   0  0  0  0  0  0  0  0  0  0  0  0
   32.5367  -13.8836   36.7977 N   0  0  0  0  0  0  0  0  0  0  0  0
   31.7354  -14.5396   36.8503 H   0  0  0  0  0  0  0  0  0  0  0  0
   28.8369  -10.9498   39.0472 C   0  0  0  0  0  0  0  0  0  0  0  0
   29.4012  -12.1245   39.5003 C   0  0  0  0  0  0  0  0  0  0  0  0
   30.5405  -12.6465   38.9175 C   0  0  0  0  0  0  0  0  0  0  0  0
   31.1755  -12.0225   37.8533 C   0  0  0  0  0  0  0  0  0  0  0  0
   30.6091  -10.8483   37.4002 C   0  0  0  0  0  0  0  0  0  0  0  0
   29.4530  -10.3158   37.9887 C   0  0  0  0  0  0  0  0  0  0  0  0
   27.1941  -10.8053   41.3956 N   0  0  0  0  0  0  0  0  0  0  0  0
   27.3889  -10.2816   39.7856 S   0  0  0  0  0  0  0  0  0  0  0  0
   27.4765   -8.7680   39.7280 O   0  0  0  0  0  0  0  0  0  0  0  0
   26.1527  -10.6541   38.9921 O   0  0  0  0  0  0  0  0  0  0  0  0
   26.8380  -10.0294   42.0312 H   0  0  0  0  0  0  0  0  0  0  0  0
   28.1302  -11.0683   41.7724 H   0  0  0  0  0  0  0  0  0  0  0  0
   34.7042  -14.8851   37.3002 C   0  0  0  0  0  0  0  0  0  0  0  0
   36.0163  -14.2561   37.3484 C   0  0  0  0  0  0  0  0  0  0  0  0
   36.2619  -13.1319   36.5965 C   0  0  0  0  0  0  0  0  0  0  0  0
   37.4991  -12.4962   36.6116 C   0  0  0  0  0  0  0  0  0  0  0  0
   38.4833  -13.0297   37.4092 C   0  0  0  0  0  0  0  0  0  0  0  0
   38.2660  -14.1433   38.1637 C   0  0  0  0  0  0  0  0  0  0  0  0
   37.0119  -14.7661   38.1331 C   0  0  0  0  0  0  0  0  0  0  0  0
   33.8755  -17.8976   34.7073 C   0  0  0  0  0  0  0  0  0  0  0  0
   33.3531  -19.0817   35.3932 C   0  0  0  0  0  0  0  0  0  0  0  0
   32.5538  -18.8549   36.3637 O   0  0  0  0  0  0  0  0  0  0  0  0
   33.6509  -20.4097   35.0825 N   0  0  0  0  0  0  0  0  0  0  0  0
   34.2862  -20.6378   34.3083 H   0  0  0  0  0  0  0  0  0  0  0  0
   33.0876  -21.5442   35.8265 C   0  0  0  0  0  0  0  0  0  0  0  0
   31.7127  -21.7507   35.3291 C   0  0  0  0  0  0  0  0  0  0  0  0
   30.6183  -21.0026   35.7310 O   0  0  0  0  0  0  0  0  0  0  0  0
   31.4451  -22.6610   34.4753 O   0  0  0  0  0  0  0  0  0  0  0  0
   29.6918  -21.4199   35.8020 H   0  0  0  0  0  0  0  0  0  0  0  0
   33.2049  -21.3133   37.2989 C   0  0  0  0  0  0  0  0  0  0  0  0
   34.5616  -21.4082   37.8579 C   0  0  0  0  0  0  0  0  0  0  0  0
   35.0695  -20.4110   38.6751 C   0  0  0  0  0  0  0  0  0  0  0  0
   36.3351  -20.5145   39.2053 C   0  0  0  0  0  0  0  0  0  0  0  0
   37.1358  -21.6306   38.9284 C   0  0  0  0  0  0  0  0  0  0  0  0
   36.6422  -22.6277   38.1170 C   0  0  0  0  0  0  0  0  0  0  0  0
   35.3777  -22.4903   37.6075 C   0  0  0  0  0  0  0  0  0  0  0  0
   35.1898  -18.1804   33.9886 C   0  0  0  0  0  0  0  0  0  0  0  0
   36.2936  -18.5043   34.9036 C   0  0  0  0  0  0  0  0  0  0  0  0
   36.7095  -17.5825   35.8368 C   0  0  0  0  0  0  0  0  0  0  0  0
   37.7459  -17.9266   36.6627 C   0  0  0  0  0  0  0  0  0  0  0  0
   38.3804  -19.1588   36.5886 C   0  0  0  0  0  0  0  0  0  0  0  0
   37.9476  -20.0760   35.6413 C   0  0  0  0  0  0  0  0  0  0  0  0
   36.9135  -19.7387   34.8135 C   0  0  0  0  0  0  0  0  0  0  0  0
 16 17  1  0  0  0
 17 18  2  0  0  0
 17 19  2  0  0  0
 17 10  1  0  0  0
 10 11  2  0  0  0
 11 12  1  0  0  0
 12 13  2  0  0  0
 13 14  1  0  0  0
 14 15  2  0  0  0
 13  6  1  0  0  0
  6  7  2  0  0  0
  6  8  1  0  0  0
  8  5  1  0  0  0
  5 22  1  0  0  0
 22 23  1  0  0  0
 23 24  2  0  0  0
 24 25  1  0  0  0
 25 26  2  0  0  0
 26 27  1  0  0  0
 27 28  2  0  0  0
  5  1  1  0  0  0
  1  2  2  0  0  0
  1  3  1  0  0  0
  3 29  1  0  0  0
 29 46  1  0  0  0
 46 47  1  0  0  0
 47 48  2  0  0  0
 48 49  1  0  0  0
 49 50  2  0  0  0
 50 51  1  0  0  0
 51 52  2  0  0  0
 29 30  1  0  0  0
 30 31  2  0  0  0
 30 32  1  0  0  0
 32 34  1  0  0  0
 34 39  1  0  0  0
 39 40  1  0  0  0
 40 41  2  0  0  0
 41 42  1  0  0  0
 42 43  2  0  0  0
 43 44  1  0  0  0
 44 45  2  0  0  0
 34 35  1  0  0  0
 35 36  1  0  0  0
 35 37  2  0  0  0
 15 10  1  0  0  0
 28 23  1  0  0  0
 52 47  1  0  0  0
 45 40  1  0  0  0
 16 20  1  0  0  0
 16 21  1  0  0  0
  8  9  1  0  0  0
  3  4  1  0  0  0
 32 33  1  0  0  0
 36 38  1  0  0  0
M  END
> <minimizedAffinity>
-6.74658

> <CNNscore>
0.2673272789

> <CNNaffinity>
6.2759985924

> <CNN_VS>
1.6777455807

> <CNNaffinity_variance>
0.3347934783

$$$$
[H]OC(=O)[C@@]([H])(N([H])C(=O)[C@@]([H])(N([H])C(=O)[C@@]([H])(N([H])C(=O)c1c([H])c([H])c(S(=O)(=O)N([H])[H])c([H])c1[H])C([H])([H])c1c([H])c([H])c([H])c([H])c1[H])C([H])([H])c1c([H])c([H])c([H])c([H])c1[H])C([H])([H])c1c([H])c([H])c([H])c([H])c1[H]


 52 55  0  0  0  0  0  0  0  0999 V2000
   33.0428  -13.5789   36.4323 C   0  0  0  0  0  0  0  0  0  0  0  0
   32.6561  -13.4915   35.2569 O   0  0  0  0  0  0  0  0  0  0  0  0
   33.9764  -14.5458   36.8180 N   0  0  0  0  0  0  0  0  0  0  0  0
   34.2770  -14.5828   37.8295 H   0  0  0  0  0  0  0  0  0  0  0  0
   32.5017  -12.6277   37.4328 C   0  0  0  0  0  0  0  0  0  0  0  0
   30.7561  -13.0038   39.1623 C   0  0  0  0  0  0  0  0  0  0  0  0
   30.1020  -12.0373   38.6443 O   0  0  0  0  0  0  0  0  0  0  0  0
   31.9894  -13.3387   38.5904 N   0  0  0  0  0  0  0  0  0  0  0  0
   32.5520  -14.1085   38.9978 H   0  0  0  0  0  0  0  0  0  0  0  0
   29.0169  -15.0643   42.5033 C   0  0  0  0  0  0  0  0  0  0  0  0
   28.9199  -15.5535   41.2169 C   0  0  0  0  0  0  0  0  0  0  0  0
   29.4730  -14.8765   40.1464 C   0  0  0  0  0  0  0  0  0  0  0  0
   30.1520  -13.6769   40.3051 C   0  0  0  0  0  0  0  0  0  0  0  0
   30.2470  -13.1880   41.5922 C   0  0  0  0  0  0  0  0  0  0  0  0
   29.6867  -13.8719   42.6808 C   0  0  0  0  0  0  0  0  0  0  0  0
   27.0548  -15.0384   44.5971 N   0  0  0  0  0  0  0  0  0  0  0  0
   28.3162  -15.9221   43.8676 S   0  0  0  0  0  0  0  0  0  0  0  0
   27.8079  -17.2656   43.3791 O   0  0  0  0  0  0  0  0  0  0  0  0
   29.3689  -16.2340   44.9122 O   0  0  0  0  0  0  0  0  0  0  0  0
   26.2436  -15.6619   44.8904 H   0  0  0  0  0  0  0  0  0  0  0  0
   26.6610  -14.3808   43.8900 H   0  0  0  0  0  0  0  0  0  0  0  0
   33.6625  -11.7343   37.8287 C   0  0  0  0  0  0  0  0  0  0  0  0
   33.5613  -10.3647   37.3456 C   0  0  0  0  0  0  0  0  0  0  0  0
   34.6489   -9.7681   36.7531 C   0  0  0  0  0  0  0  0  0  0  0  0
   34.5987   -8.4627   36.2754 C   0  0  0  0  0  0  0  0  0  0  0  0
   33.4165   -7.7753   36.4137 C   0  0  0  0  0  0  0  0  0  0  0  0
   32.3241   -8.3431   36.9976 C   0  0  0  0  0  0  0  0  0  0  0  0
   32.3977   -9.6593   37.4706 C   0  0  0  0  0  0  0  0  0  0  0  0
   34.5657  -15.5108   35.8972 C   0  0  0  0  0  0  0  0  0  0  0  0
   34.0394  -16.8700   36.0413 C   0  0  0  0  0  0  0  0  0  0  0  0
   34.4442  -17.5175   37.0656 O   0  0  0  0  0  0  0  0  0  0  0  0
   33.1519  -17.5045   35.1701 N   0  0  0  0  0  0  0  0  0  0  0  0
   32.7988  -17.0200   34.3361 H   0  0  0  0  0  0  0  0  0  0  0  0
   32.6752  -18.8774   35.3841 C   0  0  0  0  0  0  0  0  0  0  0  0
   33.7283  -19.7855   34.8874 C   0  0  0  0  0  0  0  0  0  0  0  0
   34.4105  -20.6943   35.6797 O   0  0  0  0  0  0  0  0  0  0  0  0
   34.0834  -19.7830   33.6615 O   0  0  0  0  0  0  0  0  0  0  0  0
   35.3867  -20.9223   35.4994 H   0  0  0  0  0  0  0  0  0  0  0  0
   31.3275  -19.0649   34.7650 C   0  0  0  0  0  0  0  0  0  0  0  0
   30.5649  -20.2338   35.2279 C   0  0  0  0  0  0  0  0  0  0  0  0
   29.3302  -20.0856   35.8391 C   0  0  0  0  0  0  0  0  0  0  0  0
   28.6170  -21.1858   36.2567 C   0  0  0  0  0  0  0  0  0  0  0  0
   29.1261  -22.4783   36.0727 C   0  0  0  0  0  0  0  0  0  0  0  0
   30.3524  -22.6382   35.4671 C   0  0  0  0  0  0  0  0  0  0  0  0
   31.0335  -21.5196   35.0642 C   0  0  0  0  0  0  0  0  0  0  0  0
   36.0828  -15.4618   36.0393 C   0  0  0  0  0  0  0  0  0  0  0  0
   36.7400  -16.7282   35.6860 C   0  0  0  0  0  0  0  0  0  0  0  0
   36.6407  -17.2236   34.4061 C   0  0  0  0  0  0  0  0  0  0  0  0
   37.2639  -18.4102   34.1259 C   0  0  0  0  0  0  0  0  0  0  0  0
   37.9823  -19.1180   35.0795 C   0  0  0  0  0  0  0  0  0  0  0  0
   38.0717  -18.6031   36.3652 C   0  0  0  0  0  0  0  0  0  0  0  0
   37.4518  -17.4191   36.6516 C   0  0  0  0  0  0  0  0  0  0  0  0
 16 17  1  0  0  0
 17 18  2  0  0  0
 17 19  2  0  0  0
 17 10  1  0  0  0
 10 11  2  0  0  0
 11 12  1  0  0  0
 12 13  2  0  0  0
 13 14  1  0  0  0
 14 15  2  0  0  0
 13  6  1  0  0  0
  6  7  2  0  0  0
  6  8  1  0  0  0
  8  5  1  0  0  0
  5 22  1  0  0  0
 22 23  1  0  0  0
 23 24  2  0  0  0
 24 25  1  0  0  0
 25 26  2  0  0  0
 26 27  1  0  0  0
 27 28  2  0  0  0
  5  1  1  0  0  0
  1  2  2  0  0  0
  1  3  1  0  0  0
  3 29  1  0  0  0
 29 46  1  0  0  0
 46 47  1  0  0  0
 47 48  2  0  0  0
 48 49  1  0  0  0
 49 50  2  0  0  0
 50 51  1  0  0  0
 51 52  2  0  0  0
 29 30  1  0  0  0
 30 31  2  0  0  0
 30 32  1  0  0  0
 32 34  1  0  0  0
 34 39  1  0  0  0
 39 40  1  0  0  0
 40 41  2  0  0  0
 41 42  1  0  0  0
 42 43  2  0  0  0
 43 44  1  0  0  0
 44 45  2  0  0  0
 34 35  1  0  0  0
 35 36  1  0  0  0
 35 37  2  0  0  0
 15 10  1  0  0  0
 28 23  1  0  0  0
 52 47  1  0  0  0
 45 40  1  0  0  0
 16 20  1  0  0  0
 16 21  1  0  0  0
  8  9  1  0  0  0
  3  4  1  0  0  0
 32 33  1  0  0  0
 36 38  1  0  0  0
M  END
> <minimizedAffinity>
-8.54273

> <CNNscore>
0.2098141015

> <CNNaffinity>
6.5155134201

> <CNN_VS>
1.3670465946

> <CNNaffinity_variance>
0.2266205102

$$$$
[H]OC(=O)[C@@]([H])(N([H])C(=O)[C@@]([H])(N([H])C(=O)[C@@]([H])(N([H])C(=O)c1c([H])c([H])c(S(=O)(=O)N([H])[H])c([H])c1[H])C([H])([H])c1c([H])c([H])c([H])c([H])c1[H])C([H])([H])c1c([H])c([H])c([H])c([H])c1[H])C([H])([H])c1c([H])c([H])c([H])c([H])c1[H]


 52 55  0  0  0  0  0  0  0  0999 V2000
   38.1128  -20.2005   36.5551 C   0  0  0  0  0  0  0  0  0  0  0  0
   37.8358  -20.9689   35.6214 O   0  0  0  0  0  0  0  0  0  0  0  0
   37.8851  -20.5653   37.8857 N   0  0  0  0  0  0  0  0  0  0  0  0
   38.1368  -19.8793   38.6478 H   0  0  0  0  0  0  0  0  0  0  0  0
   38.7034  -18.8779   36.2379 C   0  0  0  0  0  0  0  0  0  0  0  0
   36.9403  -17.1624   35.8802 C   0  0  0  0  0  0  0  0  0  0  0  0
   36.8937  -17.5332   34.6593 O   0  0  0  0  0  0  0  0  0  0  0  0
   37.8522  -17.8072   36.7246 N   0  0  0  0  0  0  0  0  0  0  0  0
   37.9252  -17.5181   37.7177 H   0  0  0  0  0  0  0  0  0  0  0  0
   34.3193  -13.9676   37.0452 C   0  0  0  0  0  0  0  0  0  0  0  0
   35.6477  -13.9904   37.4173 C   0  0  0  0  0  0  0  0  0  0  0  0
   36.4804  -15.0296   37.0471 C   0  0  0  0  0  0  0  0  0  0  0  0
   36.0303  -16.0988   36.2859 C   0  0  0  0  0  0  0  0  0  0  0  0
   34.7009  -16.0753   35.9156 C   0  0  0  0  0  0  0  0  0  0  0  0
   33.8529  -15.0228   36.2896 C   0  0  0  0  0  0  0  0  0  0  0  0
   31.8434  -12.5998   36.5619 N   0  0  0  0  0  0  0  0  0  0  0  0
   33.2570  -12.6480   37.5125 S   0  0  0  0  0  0  0  0  0  0  0  0
   32.9037  -12.8135   38.9787 O   0  0  0  0  0  0  0  0  0  0  0  0
   33.9686  -11.3141   37.4073 O   0  0  0  0  0  0  0  0  0  0  0  0
   30.9802  -12.3587   37.1359 H   0  0  0  0  0  0  0  0  0  0  0  0
   31.6690  -13.5550   36.1816 H   0  0  0  0  0  0  0  0  0  0  0  0
   40.0504  -18.8449   36.9357 C   0  0  0  0  0  0  0  0  0  0  0  0
   41.1793  -18.5817   36.0550 C   0  0  0  0  0  0  0  0  0  0  0  0
   42.3237  -18.0146   36.5636 C   0  0  0  0  0  0  0  0  0  0  0  0
   43.4275  -17.7462   35.7610 C   0  0  0  0  0  0  0  0  0  0  0  0
   43.3426  -18.0671   34.4273 C   0  0  0  0  0  0  0  0  0  0  0  0
   42.2200  -18.6294   33.8979 C   0  0  0  0  0  0  0  0  0  0  0  0
   41.1209  -18.8914   34.7255 C   0  0  0  0  0  0  0  0  0  0  0  0
   37.3192  -21.8486   38.2848 C   0  0  0  0  0  0  0  0  0  0  0  0
   36.8713  -21.8945   39.6786 C   0  0  0  0  0  0  0  0  0  0  0  0
   37.4403  -21.0716   40.4730 O   0  0  0  0  0  0  0  0  0  0  0  0
   35.8958  -22.7459   40.2008 N   0  0  0  0  0  0  0  0  0  0  0  0
   35.4108  -23.4209   39.5974 H   0  0  0  0  0  0  0  0  0  0  0  0
   35.5074  -22.7329   41.6175 C   0  0  0  0  0  0  0  0  0  0  0  0
   35.8696  -24.0493   42.1796 C   0  0  0  0  0  0  0  0  0  0  0  0
   37.1053  -24.3481   42.7300 O   0  0  0  0  0  0  0  0  0  0  0  0
   35.0395  -25.0189   42.1883 O   0  0  0  0  0  0  0  0  0  0  0  0
   37.5089  -25.2794   42.6452 H   0  0  0  0  0  0  0  0  0  0  0  0
   34.0689  -22.3521   41.7613 C   0  0  0  0  0  0  0  0  0  0  0  0
   33.8095  -21.0436   42.3800 C   0  0  0  0  0  0  0  0  0  0  0  0
   32.5656  -20.7362   42.9075 C   0  0  0  0  0  0  0  0  0  0  0  0
   32.3356  -19.5143   43.4971 C   0  0  0  0  0  0  0  0  0  0  0  0
   33.3551  -18.5562   43.5750 C   0  0  0  0  0  0  0  0  0  0  0  0
   34.5954  -18.8500   43.0538 C   0  0  0  0  0  0  0  0  0  0  0  0
   34.7873  -20.0768   42.4745 C   0  0  0  0  0  0  0  0  0  0  0  0
   38.3247  -22.9491   37.9657 C   0  0  0  0  0  0  0  0  0  0  0  0
   39.4376  -23.0141   38.9237 C   0  0  0  0  0  0  0  0  0  0  0  0
   40.4843  -22.1262   38.8266 C   0  0  0  0  0  0  0  0  0  0  0  0
   41.5016  -22.2298   39.7372 C   0  0  0  0  0  0  0  0  0  0  0  0
   41.5090  -23.1889   40.7405 C   0  0  0  0  0  0  0  0  0  0  0  0
   40.4449  -24.0760   40.8230 C   0  0  0  0  0  0  0  0  0  0  0  0
   39.4262  -23.9782   39.9170 C   0  0  0  0  0  0  0  0  0  0  0  0
 16 17  1  0  0  0
 17 18  2  0  0  0
 17 19  2  0  0  0
 17 10  1  0  0  0
 10 11  2  0  0  0
 11 12  1  0  0  0
 12 13  2  0  0  0
 13 14  1  0  0  0
 14 15  2  0  0  0
 13  6  1  0  0  0
  6  7  2  0  0  0
  6  8  1  0  0  0
  8  5  1  0  0  0
  5 22  1  0  0  0
 22 23  1  0  0  0
 23 24  2  0  0  0
 24 25  1  0  0  0
 25 26  2  0  0  0
 26 27  1  0  0  0
 27 28  2  0  0  0
  5  1  1  0  0  0
  1  2  2  0  0  0
  1  3  1  0  0  0
  3 29  1  0  0  0
 29 46  1  0  0  0
 46 47  1  0  0  0
 47 48  2  0  0  0
 48 49  1  0  0  0
 49 50  2  0  0  0
 50 51  1  0  0  0
 51 52  2  0  0  0
 29 30  1  0  0  0
 30 31  2  0  0  0
 30 32  1  0  0  0
 32 34  1  0  0  0
 34 39  1  0  0  0
 39 40  1  0  0  0
 40 41  2  0  0  0
 41 42  1  0  0  0
 42 43  2  0  0  0
 43 44  1  0  0  0
 44 45  2  0  0  0
 34 35  1  0  0  0
 35 36  1  0  0  0
 35 37  2  0  0  0
 15 10  1  0  0  0
 28 23  1  0  0  0
 52 47  1  0  0  0
 45 40  1  0  0  0
 16 20  1  0  0  0
 16 21  1  0  0  0
  8  9  1  0  0  0
  3  4  1  0  0  0
 32 33  1  0  0  0
 36 38  1  0  0  0
M  END
> <minimizedAffinity>
-6.69685

> <CNNscore>
0.1733920276

> <CNNaffinity>
5.7406830788

> <CNN_VS>
0.9953886867

> <CNNaffinity_variance>
0.3804744482

$$$$
[H]OC(=O)[C@@]([H])(N([H])C(=O)[C@@]([H])(N([H])C(=O)[C@@]([H])(N([H])C(=O)c1c([H])c([H])c(S(=O)(=O)N([H])[H])c([H])c1[H])C([H])([H])c1c([H])c([H])c([H])c([H])c1[H])C([H])([H])c1c([H])c([H])c([H])c([H])c1[H])C([H])([H])c1c([H])c([H])c([H])c([H])c1[H]


 52 55  0  0  0  0  0  0  0  0999 V2000
   35.2467  -21.3845   37.9134 C   0  0  0  0  0  0  0  0  0  0  0  0
   35.9612  -21.8386   37.0067 O   0  0  0  0  0  0  0  0  0  0  0  0
   34.1013  -20.6352   37.6269 N   0  0  0  0  0  0  0  0  0  0  0  0
   33.5229  -20.2691   38.4308 H   0  0  0  0  0  0  0  0  0  0  0  0
   35.6232  -21.6572   39.3214 C   0  0  0  0  0  0  0  0  0  0  0  0
   33.6021  -21.9296   40.7427 C   0  0  0  0  0  0  0  0  0  0  0  0
   33.5872  -20.6605   40.8822 O   0  0  0  0  0  0  0  0  0  0  0  0
   34.6239  -22.4896   39.9665 N   0  0  0  0  0  0  0  0  0  0  0  0
   34.6727  -23.5185   39.8471 H   0  0  0  0  0  0  0  0  0  0  0  0
   30.5083  -24.2209   42.6430 C   0  0  0  0  0  0  0  0  0  0  0  0
   30.6456  -24.1824   41.2707 C   0  0  0  0  0  0  0  0  0  0  0  0
   31.6376  -23.4321   40.6681 C   0  0  0  0  0  0  0  0  0  0  0  0
   32.5440  -22.6825   41.4043 C   0  0  0  0  0  0  0  0  0  0  0  0
   32.4045  -22.7209   42.7768 C   0  0  0  0  0  0  0  0  0  0  0  0
   31.3990  -23.4808   43.3918 C   0  0  0  0  0  0  0  0  0  0  0  0
   29.8929  -26.3452   44.4715 N   0  0  0  0  0  0  0  0  0  0  0  0
   29.2492  -25.1743   43.4138 S   0  0  0  0  0  0  0  0  0  0  0  0
   28.3268  -24.2323   44.1647 O   0  0  0  0  0  0  0  0  0  0  0  0
   28.3817  -25.8655   42.3811 O   0  0  0  0  0  0  0  0  0  0  0  0
   29.3180  -26.4431   45.3619 H   0  0  0  0  0  0  0  0  0  0  0  0
   30.8365  -26.0268   44.7812 H   0  0  0  0  0  0  0  0  0  0  0  0
   36.9578  -22.3768   39.2638 C   0  0  0  0  0  0  0  0  0  0  0  0
   37.9921  -21.7975   40.1089 C   0  0  0  0  0  0  0  0  0  0  0  0
   39.1810  -21.3915   39.5508 C   0  0  0  0  0  0  0  0  0  0  0  0
   40.1971  -20.8315   40.3180 C   0  0  0  0  0  0  0  0  0  0  0  0
   39.9782  -20.6933   41.6679 C   0  0  0  0  0  0  0  0  0  0  0  0
   38.8092  -21.0882   42.2461 C   0  0  0  0  0  0  0  0  0  0  0  0
   37.7998  -21.6488   41.4534 C   0  0  0  0  0  0  0  0  0  0  0  0
   33.6542  -20.3308   36.2727 C   0  0  0  0  0  0  0  0  0  0  0  0
   34.2960  -19.1530   35.6841 C   0  0  0  0  0  0  0  0  0  0  0  0
   33.5873  -18.4908   34.8526 O   0  0  0  0  0  0  0  0  0  0  0  0
   35.5910  -18.7040   35.9492 N   0  0  0  0  0  0  0  0  0  0  0  0
   36.1943  -19.2042   36.6131 H   0  0  0  0  0  0  0  0  0  0  0  0
   36.1639  -17.5122   35.3095 C   0  0  0  0  0  0  0  0  0  0  0  0
   37.2237  -17.9779   34.3928 C   0  0  0  0  0  0  0  0  0  0  0  0
   37.2108  -17.7789   33.0220 O   0  0  0  0  0  0  0  0  0  0  0  0
   38.2432  -18.6131   34.8245 O   0  0  0  0  0  0  0  0  0  0  0  0
   37.6072  -18.4683   32.3854 H   0  0  0  0  0  0  0  0  0  0  0  0
   36.6030  -16.5248   36.3425 C   0  0  0  0  0  0  0  0  0  0  0  0
   35.8090  -15.2903   36.4297 C   0  0  0  0  0  0  0  0  0  0  0  0
   36.4017  -14.0804   36.7538 C   0  0  0  0  0  0  0  0  0  0  0  0
   35.6535  -12.9274   36.8196 C   0  0  0  0  0  0  0  0  0  0  0  0
   34.2766  -12.9544   36.5606 C   0  0  0  0  0  0  0  0  0  0  0  0
   33.6763  -14.1509   36.2380 C   0  0  0  0  0  0  0  0  0  0  0  0
   34.4532  -15.2781   36.1818 C   0  0  0  0  0  0  0  0  0  0  0  0
   32.1337  -20.2204   36.2708 C   0  0  0  0  0  0  0  0  0  0  0  0
   31.4633  -21.4463   35.8144 C   0  0  0  0  0  0  0  0  0  0  0  0
   32.1494  -22.3662   35.0553 C   0  0  0  0  0  0  0  0  0  0  0  0
   31.4811  -23.4896   34.6476 C   0  0  0  0  0  0  0  0  0  0  0  0
   30.1523  -23.7253   34.9721 C   0  0  0  0  0  0  0  0  0  0  0  0
   29.4762  -22.7863   35.7385 C   0  0  0  0  0  0  0  0  0  0  0  0
   30.1375  -21.6626   36.1486 C   0  0  0  0  0  0  0  0  0  0  0  0
 16 17  1  0  0  0
 17 18  2  0  0  0
 17 19  2  0  0  0
 17 10  1  0  0  0
 10 11  2  0  0  0
 11 12  1  0  0  0
 12 13  2  0  0  0
 13 14  1  0  0  0
 14 15  2  0  0  0
 13  6  1  0  0  0
  6  7  2  0  0  0
  6  8  1  0  0  0
  8  5  1  0  0  0
  5 22  1  0  0  0
 22 23  1  0  0  0
 23 24  2  0  0  0
 24 25  1  0  0  0
 25 26  2  0  0  0
 26 27  1  0  0  0
 27 28  2  0  0  0
  5  1  1  0  0  0
  1  2  2  0  0  0
  1  3  1  0  0  0
  3 29  1  0  0  0
 29 46  1  0  0  0
 46 47  1  0  0  0
 47 48  2  0  0  0
 48 49  1  0  0  0
 49 50  2  0  0  0
 50 51  1  0  0  0
 51 52  2  0  0  0
 29 30  1  0  0  0
 30 31  2  0  0  0
 30 32  1  0  0  0
 32 34  1  0  0  0
 34 39  1  0  0  0
 39 40  1  0  0  0
 40 41  2  0  0  0
 41 42  1  0  0  0
 42 43  2  0  0  0
 43 44  1  0  0  0
 44 45  2  0  0  0
 34 35  1  0  0  0
 35 36  1  0  0  0
 35 37  2  0  0  0
 15 10  1  0  0  0
 28 23  1  0  0  0
 52 47  1  0  0  0
 45 40  1  0  0  0
 16 20  1  0  0  0
 16 21  1  0  0  0
  8  9  1  0  0  0
  3  4  1  0  0  0
 32 33  1  0  0  0
 36 38  1  0  0  0
M  END
> <minimizedAffinity>
-6.28409

> <CNNscore>
0.1260558218

> <CNNaffinity>
5.5008749962

> <CNN_VS>
0.6934173107

> <CNNaffinity_variance>
0.3119511902

$$$$
[H]OC(=O)[C@@]([H])(N([H])C(=O)[C@@]([H])(N([H])C(=O)[C@@]([H])(N([H])C(=O)c1c([H])c([H])c(S(=O)(=O)N([H])[H])c([H])c1[H])C([H])([H])c1c([H])c([H])c([H])c([H])c1[H])C([H])([H])c1c([H])c([H])c([H])c([H])c1[H])C([H])([H])c1c([H])c([H])c([H])c([H])c1[H]


 52 55  0  0  0  0  0  0  0  0999 V2000
   34.7198  -14.3187   36.2204 C   0  0  0  0  0  0  0  0  0  0  0  0
   35.9470  -14.3372   36.0404 O   0  0  0  0  0  0  0  0  0  0  0  0
   33.9573  -15.4879   36.1365 N   0  0  0  0  0  0  0  0  0  0  0  0
   32.9158  -15.4245   36.2977 H   0  0  0  0  0  0  0  0  0  0  0  0
   34.0658  -13.0263   36.5378 C   0  0  0  0  0  0  0  0  0  0  0  0
   31.8979  -12.6831   37.7047 C   0  0  0  0  0  0  0  0  0  0  0  0
   31.4714  -12.1139   36.6444 O   0  0  0  0  0  0  0  0  0  0  0  0
   33.2155  -13.1564   37.7074 N   0  0  0  0  0  0  0  0  0  0  0  0
   33.5966  -13.6093   38.5588 H   0  0  0  0  0  0  0  0  0  0  0  0
   29.2049  -12.9505   41.0378 C   0  0  0  0  0  0  0  0  0  0  0  0
   30.5621  -13.1524   41.1818 C   0  0  0  0  0  0  0  0  0  0  0  0
   31.4193  -13.0758   40.1003 C   0  0  0  0  0  0  0  0  0  0  0  0
   30.9658  -12.7930   38.8198 C   0  0  0  0  0  0  0  0  0  0  0  0
   29.6078  -12.5927   38.6770 C   0  0  0  0  0  0  0  0  0  0  0  0
   28.7350  -12.6699   39.7719 C   0  0  0  0  0  0  0  0  0  0  0  0
   26.5650  -13.6000   41.9564 N   0  0  0  0  0  0  0  0  0  0  0  0
   28.1113  -13.0456   42.4101 S   0  0  0  0  0  0  0  0  0  0  0  0
   28.7222  -13.9702   43.4464 O   0  0  0  0  0  0  0  0  0  0  0  0
   27.9731  -11.6980   43.0895 O   0  0  0  0  0  0  0  0  0  0  0  0
   26.1494  -14.2666   42.6745 H   0  0  0  0  0  0  0  0  0  0  0  0
   26.6583  -14.1561   41.0792 H   0  0  0  0  0  0  0  0  0  0  0  0
   35.1913  -12.0445   36.8055 C   0  0  0  0  0  0  0  0  0  0  0  0
   34.8368  -10.6485   36.5935 C   0  0  0  0  0  0  0  0  0  0  0  0
   35.5170   -9.9064   35.6573 C   0  0  0  0  0  0  0  0  0  0  0  0
   35.2125   -8.5702   35.4194 C   0  0  0  0  0  0  0  0  0  0  0  0
   34.1996   -8.0034   36.1556 C   0  0  0  0  0  0  0  0  0  0  0  0
   33.5102   -8.7165   37.0898 C   0  0  0  0  0  0  0  0  0  0  0  0
   33.8338  -10.0610   37.3118 C   0  0  0  0  0  0  0  0  0  0  0  0
   34.5216  -16.7995   35.8405 C   0  0  0  0  0  0  0  0  0  0  0  0
   33.5961  -17.9115   36.0690 C   0  0  0  0  0  0  0  0  0  0  0  0
   32.3591  -17.6532   35.8813 O   0  0  0  0  0  0  0  0  0  0  0  0
   33.9455  -19.2029   36.4680 N   0  0  0  0  0  0  0  0  0  0  0  0
   34.9284  -19.4551   36.6273 H   0  0  0  0  0  0  0  0  0  0  0  0
   32.9518  -20.2634   36.6821 C   0  0  0  0  0  0  0  0  0  0  0  0
   33.5460  -21.2321   37.6248 C   0  0  0  0  0  0  0  0  0  0  0  0
   34.8307  -21.7386   37.5147 O   0  0  0  0  0  0  0  0  0  0  0  0
   32.8882  -21.6744   38.6252 O   0  0  0  0  0  0  0  0  0  0  0  0
   35.0487  -22.6906   37.8041 H   0  0  0  0  0  0  0  0  0  0  0  0
   32.5088  -20.8360   35.3742 C   0  0  0  0  0  0  0  0  0  0  0  0
   31.2453  -21.5877   35.3969 C   0  0  0  0  0  0  0  0  0  0  0  0
   31.2195  -22.9506   35.1480 C   0  0  0  0  0  0  0  0  0  0  0  0
   30.0343  -23.6487   35.1850 C   0  0  0  0  0  0  0  0  0  0  0  0
   28.8294  -22.9946   35.4747 C   0  0  0  0  0  0  0  0  0  0  0  0
   28.8423  -21.6403   35.7232 C   0  0  0  0  0  0  0  0  0  0  0  0
   30.0412  -20.9785   35.6778 C   0  0  0  0  0  0  0  0  0  0  0  0
   35.8217  -16.9618   36.6199 C   0  0  0  0  0  0  0  0  0  0  0  0
   36.8685  -17.6630   35.8629 C   0  0  0  0  0  0  0  0  0  0  0  0
   36.8785  -17.6101   34.4879 C   0  0  0  0  0  0  0  0  0  0  0  0
   37.8693  -18.2846   33.8259 C   0  0  0  0  0  0  0  0  0  0  0  0
   38.8495  -19.0092   34.4897 C   0  0  0  0  0  0  0  0  0  0  0  0
   38.8236  -19.0513   35.8767 C   0  0  0  0  0  0  0  0  0  0  0  0
   37.8371  -18.3804   36.5437 C   0  0  0  0  0  0  0  0  0  0  0  0
 16 17  1  0  0  0
 17 18  2  0  0  0
 17 19  2  0  0  0
 17 10  1  0  0  0
 10 11  2  0  0  0
 11 12  1  0  0  0
 12 13  2  0  0  0
 13 14  1  0  0  0
 14 15  2  0  0  0
 13  6  1  0  0  0
  6  7  2  0  0  0
  6  8  1  0  0  0
  8  5  1  0  0  0
  5 22  1  0  0  0
 22 23  1  0  0  0
 23 24  2  0  0  0
 24 25  1  0  0  0
 25 26  2  0  0  0
 26 27  1  0  0  0
 27 28  2  0  0  0
  5  1  1  0  0  0
  1  2  2  0  0  0
  1  3  1  0  0  0
  3 29  1  0  0  0
 29 46  1  0  0  0
 46 47  1  0  0  0
 47 48  2  0  0  0
 48 49  1  0  0  0
 49 50  2  0  0  0
 50 51  1  0  0  0
 51 52  2  0  0  0
 29 30  1  0  0  0
 30 31  2  0  0  0
 30 32  1  0  0  0
 32 34  1  0  0  0
 34 39  1  0  0  0
 39 40  1  0  0  0
 40 41  2  0  0  0
 41 42  1  0  0  0
 42 43  2  0  0  0
 43 44  1  0  0  0
 44 45  2  0  0  0
 34 35  1  0  0  0
 35 36  1  0  0  0
 35 37  2  0  0  0
 15 10  1  0  0  0
 28 23  1  0  0  0
 52 47  1  0  0  0
 45 40  1  0  0  0
 16 20  1  0  0  0
 16 21  1  0  0  0
  8  9  1  0  0  0
  3  4  1  0  0  0
 32 33  1  0  0  0
 36 38  1  0  0  0
M  END
> <minimizedAffinity>
-8.50942

> <CNNscore>
0.1124499440

> <CNNaffinity>
6.2246489525

> <CNN_VS>
0.6999614239

> <CNNaffinity_variance>
0.2239461690

$$$$
[H]OC(=O)[C@@]([H])(N([H])C(=O)[C@@]([H])(N([H])C(=O)[C@@]([H])(N([H])C(=O)c1c([H])c([H])c(S(=O)(=O)N([H])[H])c([H])c1[H])C([H])([H])c1c([H])c([H])c([H])c([H])c1[H])C([H])([H])c1c([H])c([H])c([H])c([H])c1[H])C([H])([H])c1c([H])c([H])c([H])c([H])c1[H]


 52 55  0  0  0  0  0  0  0  0999 V2000
   33.8666  -14.5735   36.3426 C   0  0  0  0  0  0  0  0  0  0  0  0
   34.5519  -14.9382   37.3102 O   0  0  0  0  0  0  0  0  0  0  0  0
   33.4174  -15.4897   35.3865 N   0  0  0  0  0  0  0  0  0  0  0  0
   32.8363  -15.1340   34.5799 H   0  0  0  0  0  0  0  0  0  0  0  0
   33.5192  -13.1375   36.2166 C   0  0  0  0  0  0  0  0  0  0  0  0
   31.9023  -12.7958   38.0736 C   0  0  0  0  0  0  0  0  0  0  0  0
   32.8751  -12.9508   38.8860 O   0  0  0  0  0  0  0  0  0  0  0  0
   32.1737  -12.8918   36.7034 N   0  0  0  0  0  0  0  0  0  0  0  0
   31.4021  -12.7863   36.0187 H   0  0  0  0  0  0  0  0  0  0  0  0
   28.0809  -11.9897   39.8568 C   0  0  0  0  0  0  0  0  0  0  0  0
   28.9527  -12.9148   40.3932 C   0  0  0  0  0  0  0  0  0  0  0  0
   30.1758  -13.1757   39.8047 C   0  0  0  0  0  0  0  0  0  0  0  0
   30.5917  -12.5261   38.6514 C   0  0  0  0  0  0  0  0  0  0  0  0
   29.7180  -11.6021   38.1152 C   0  0  0  0  0  0  0  0  0  0  0  0
   28.4761  -11.3349   38.7092 C   0  0  0  0  0  0  0  0  0  0  0  0
   25.5000  -13.0148   40.5799 N   0  0  0  0  0  0  0  0  0  0  0  0
   26.5252  -11.6537   40.6020 S   0  0  0  0  0  0  0  0  0  0  0  0
   26.7661  -11.1953   42.0281 O   0  0  0  0  0  0  0  0  0  0  0  0
   25.8287  -10.4996   39.9095 O   0  0  0  0  0  0  0  0  0  0  0  0
   24.9440  -13.1150   41.4819 H   0  0  0  0  0  0  0  0  0  0  0  0
   26.0909  -13.8719   40.5186 H   0  0  0  0  0  0  0  0  0  0  0  0
   34.5344  -12.3878   37.0591 C   0  0  0  0  0  0  0  0  0  0  0  0
   34.6780  -10.9796   36.7187 C   0  0  0  0  0  0  0  0  0  0  0  0
   33.8471  -10.0497   37.2973 C   0  0  0  0  0  0  0  0  0  0  0  0
   33.9480   -8.6938   37.0038 C   0  0  0  0  0  0  0  0  0  0  0  0
   34.9136   -8.3029   36.1072 C   0  0  0  0  0  0  0  0  0  0  0  0
   35.7494   -9.2042   35.5192 C   0  0  0  0  0  0  0  0  0  0  0  0
   35.6298  -10.5645   35.8306 C   0  0  0  0  0  0  0  0  0  0  0  0
   33.7040  -16.9183   35.4409 C   0  0  0  0  0  0  0  0  0  0  0  0
   35.1289  -17.2360   35.5602 C   0  0  0  0  0  0  0  0  0  0  0  0
   35.9330  -16.3865   35.0464 O   0  0  0  0  0  0  0  0  0  0  0  0
   35.6703  -18.3667   36.1744 N   0  0  0  0  0  0  0  0  0  0  0  0
   35.0608  -19.0737   36.6030 H   0  0  0  0  0  0  0  0  0  0  0  0
   37.1164  -18.6148   36.2464 C   0  0  0  0  0  0  0  0  0  0  0  0
   37.5792  -18.8901   34.8715 C   0  0  0  0  0  0  0  0  0  0  0  0
   36.7810  -19.4241   33.8731 O   0  0  0  0  0  0  0  0  0  0  0  0
   38.7800  -18.6468   34.5138 O   0  0  0  0  0  0  0  0  0  0  0  0
   37.1680  -20.0448   33.1643 H   0  0  0  0  0  0  0  0  0  0  0  0
   37.4136  -19.6862   37.2457 C   0  0  0  0  0  0  0  0  0  0  0  0
   36.2455  -20.3595   37.8324 C   0  0  0  0  0  0  0  0  0  0  0  0
   35.3756  -21.0972   37.0456 C   0  0  0  0  0  0  0  0  0  0  0  0
   34.2925  -21.7356   37.6051 C   0  0  0  0  0  0  0  0  0  0  0  0
   34.0476  -21.6514   38.9822 C   0  0  0  0  0  0  0  0  0  0  0  0
   34.9047  -20.9206   39.7743 C   0  0  0  0  0  0  0  0  0  0  0  0
   35.9725  -20.2989   39.1821 C   0  0  0  0  0  0  0  0  0  0  0  0
   33.0616  -17.5943   34.2349 C   0  0  0  0  0  0  0  0  0  0  0  0
   32.5362  -18.9345   34.5322 C   0  0  0  0  0  0  0  0  0  0  0  0
   33.1109  -20.0443   33.9565 C   0  0  0  0  0  0  0  0  0  0  0  0
   32.5828  -21.2711   34.2580 C   0  0  0  0  0  0  0  0  0  0  0  0
   31.5015  -21.4270   35.1140 C   0  0  0  0  0  0  0  0  0  0  0  0
   30.9346  -20.2964   35.6854 C   0  0  0  0  0  0  0  0  0  0  0  0
   31.4568  -19.0687   35.3885 C   0  0  0  0  0  0  0  0  0  0  0  0
 16 17  1  0  0  0
 17 18  2  0  0  0
 17 19  2  0  0  0
 17 10  1  0  0  0
 10 11  2  0  0  0
 11 12  1  0  0  0
 12 13  2  0  0  0
 13 14  1  0  0  0
 14 15  2  0  0  0
 13  6  1  0  0  0
  6  7  2  0  0  0
  6  8  1  0  0  0
  8  5  1  0  0  0
  5 22  1  0  0  0
 22 23  1  0  0  0
 23 24  2  0  0  0
 24 25  1  0  0  0
 25 26  2  0  0  0
 26 27  1  0  0  0
 27 28  2  0  0  0
  5  1  1  0  0  0
  1  2  2  0  0  0
  1  3  1  0  0  0
  3 29  1  0  0  0
 29 46  1  0  0  0
 46 47  1  0  0  0
 47 48  2  0  0  0
 48 49  1  0  0  0
 49 50  2  0  0  0
 50 51  1  0  0  0
 51 52  2  0  0  0
 29 30  1  0  0  0
 30 31  2  0  0  0
 30 32  1  0  0  0
 32 34  1  0  0  0
 34 39  1  0  0  0
 39 40  1  0  0  0
 40 41  2  0  0  0
 41 42  1  0  0  0
 42 43  2  0  0  0
 43 44  1  0  0  0
 44 45  2  0  0  0
 34 35  1  0  0  0
 35 36  1  0  0  0
 35 37  2  0  0  0
 15 10  1  0  0  0
 28 23  1  0  0  0
 52 47  1  0  0  0
 45 40  1  0  0  0
 16 20  1  0  0  0
 16 21  1  0  0  0
  8  9  1  0  0  0
  3  4  1  0  0  0
 32 33  1  0  0  0
 36 38  1  0  0  0
M  END
> <minimizedAffinity>
-8.85667

> <CNNscore>
0.1114800945

> <CNNaffinity>
6.4133081436

> <CNN_VS>
0.7149562240

> <CNNaffinity_variance>
0.3124727905

$$$$
[H]c1nc(N([H])c2c([H])c(N([H])C(=O)c3c([H])c([H])c(C([H])([H])N4C([H])([H])C([H])([H])N(C([H])([H])C([H])([H])[H])C([H])([H])C4([H])[H])c(C(F)(F)F)c3[H])c([H])c([H])c2C([H])([H])[H])nc(-c2c([H])nc([H])c([H])c2[H])c1[H]


 44 48  0  0  0  0  0  0  0  0999 V2000
   34.3072  -15.3596   36.0916 C   0  0  0  0  0  0  0  0  0  0  0  0
   35.3525  -14.9157   35.6114 O   0  0  0  0  0  0  0  0  0  0  0  0
   33.3556  -14.5441   36.7185 N   0  0  0  0  0  0  0  0  0  0  0  0
   32.4900  -15.0225   37.0873 H   0  0  0  0  0  0  0  0  0  0  0  0
   33.4576  -13.1462   36.8971 C   0  0  0  0  0  0  0  0  0  0  0  0
   34.6420  -12.5047   36.5670 C   0  0  0  0  0  0  0  0  0  0  0  0
   34.7281  -11.1444   36.6702 C   0  0  0  0  0  0  0  0  0  0  0  0
   33.7094  -10.3901   37.0771 C   0  0  0  0  0  0  0  0  0  0  0  0
   33.8645   -8.9144   37.2956 C   0  0  0  0  0  0  0  0  0  0  0  0
   32.4679  -11.0196   37.4210 C   0  0  0  0  0  0  0  0  0  0  0  0
   32.3746  -12.3763   37.3323 C   0  0  0  0  0  0  0  0  0  0  0  0
   31.4307  -10.1173   37.6010 N   0  0  0  0  0  0  0  0  0  0  0  0
   31.5941   -9.0882   37.6807 H   0  0  0  0  0  0  0  0  0  0  0  0
   30.0089  -10.5673   37.6982 C   0  0  0  0  0  0  0  0  0  0  0  0
   29.6676  -11.7933   37.4951 N   0  0  0  0  0  0  0  0  0  0  0  0
   28.6422  -12.2824   38.2847 C   0  0  0  0  0  0  0  0  0  0  0  0
   28.0252  -11.4984   39.2399 C   0  0  0  0  0  0  0  0  0  0  0  0
   28.4013  -10.2351   39.4237 C   0  0  0  0  0  0  0  0  0  0  0  0
   29.4047   -9.7441   38.6367 N   0  0  0  0  0  0  0  0  0  0  0  0
   28.0747   -9.3691   40.5428 C   0  0  0  0  0  0  0  0  0  0  0  0
   27.9409   -9.7849   41.8254 C   0  0  0  0  0  0  0  0  0  0  0  0
   27.2058   -9.0459   42.7382 C   0  0  0  0  0  0  0  0  0  0  0  0
   26.6115   -7.8652   42.3081 C   0  0  0  0  0  0  0  0  0  0  0  0
   26.7544   -7.4543   41.0354 N   0  0  0  0  0  0  0  0  0  0  0  0
   27.4549   -8.1622   40.1646 C   0  0  0  0  0  0  0  0  0  0  0  0
   33.8623  -19.5232   35.7549 C   0  0  0  0  0  0  0  0  0  0  0  0
   32.9536  -18.7173   35.1333 C   0  0  0  0  0  0  0  0  0  0  0  0
   33.0716  -17.3132   35.2499 C   0  0  0  0  0  0  0  0  0  0  0  0
   34.0929  -16.8000   35.9852 C   0  0  0  0  0  0  0  0  0  0  0  0
   34.9633  -17.6725   36.5906 C   0  0  0  0  0  0  0  0  0  0  0  0
   34.9168  -19.0188   36.5209 C   0  0  0  0  0  0  0  0  0  0  0  0
   35.8031  -19.8818   37.2896 C   0  0  0  0  0  0  0  0  0  0  0  0
   35.1291  -20.4107   38.4381 F   0  0  0  0  0  0  0  0  0  0  0  0
   36.7867  -19.0653   37.8868 F   0  0  0  0  0  0  0  0  0  0  0  0
   36.4817  -20.8539   36.6256 F   0  0  0  0  0  0  0  0  0  0  0  0
   33.9551  -20.9778   35.4938 C   0  0  0  0  0  0  0  0  0  0  0  0
   30.4734  -23.0455   36.6559 N   0  0  0  0  0  0  0  0  0  0  0  0
   31.7211  -23.0674   37.3821 C   0  0  0  0  0  0  0  0  0  0  0  0
   32.3999  -21.6793   37.1483 C   0  0  0  0  0  0  0  0  0  0  0  0
   32.8434  -21.7022   35.8019 N   0  0  0  0  0  0  0  0  0  0  0  0
   31.9957  -22.3208   34.9089 C   0  0  0  0  0  0  0  0  0  0  0  0
   30.5713  -22.2355   35.4903 C   0  0  0  0  0  0  0  0  0  0  0  0
   31.1176  -25.3587   36.8957 C   0  0  0  0  0  0  0  0  0  0  0  0
   30.1798  -24.4157   36.1971 C   0  0  0  0  0  0  0  0  0  0  0  0
 43 44  1  0  0  0
 44 37  1  0  0  0
 37 38  1  0  0  0
 38 39  1  0  0  0
 39 40  1  0  0  0
 40 36  1  0  0  0
 36 26  1  0  0  0
 26 27  2  0  0  0
 27 28  1  0  0  0
 28 29  2  0  0  0
 29 30  1  0  0  0
 30 31  2  0  0  0
 31 32  1  0  0  0
 32 33  1  0  0  0
 32 34  1  0  0  0
 32 35  1  0  0  0
 29  1  1  0  0  0
  1  2  2  0  0  0
  1  3  1  0  0  0
  3  5  1  0  0  0
  5  6  2  0  0  0
  6  7  1  0  0  0
  7  8  2  0  0  0
  8  9  1  0  0  0
  8 10  1  0  0  0
 10 12  1  0  0  0
 12 14  1  0  0  0
 14 15  2  0  0  0
 15 16  1  0  0  0
 16 17  2  0  0  0
 17 18  1  0  0  0
 18 19  2  0  0  0
 18 20  1  0  0  0
 20 21  2  0  0  0
 21 22  1  0  0  0
 22 23  2  0  0  0
 23 24  1  0  0  0
 24 25  2  0  0  0
 10 11  2  0  0  0
 40 41  1  0  0  0
 41 42  1  0  0  0
 42 37  1  0  0  0
 31 26  1  0  0  0
 11  5  1  0  0  0
 19 14  1  0  0  0
 25 20  1  0  0  0
  3  4  1  0  0  0
 12 13  1  0  0  0
M  END
> <minimizedAffinity>
-7.75295

> <CNNscore>
0.3921755254

> <CNNaffinity>
6.9001312256

> <CNN_VS>
2.7060625553

> <CNNaffinity_variance>
0.0797444433

$$$$
[H]c1nc(N([H])c2c([H])c(N([H])C(=O)c3c([H])c([H])c(C([H])([H])N4C([H])([H])C([H])([H])N(C([H])([H])C([H])([H])[H])C([H])([H])C4([H])[H])c(C(F)(F)F)c3[H])c([H])c([H])c2C([H])([H])[H])nc(-c2c([H])nc([H])c([H])c2[H])c1[H]


 44 48  0  0  0  0  0  0  0  0999 V2000
   35.4251  -20.6627   39.1336 C   0  0  0  0  0  0  0  0  0  0  0  0
   34.8520  -19.7035   39.6547 O   0  0  0  0  0  0  0  0  0  0  0  0
   35.0551  -21.1787   37.8844 N   0  0  0  0  0  0  0  0  0  0  0  0
   35.6172  -21.9958   37.5233 H   0  0  0  0  0  0  0  0  0  0  0  0
   34.0004  -20.7005   37.0748 C   0  0  0  0  0  0  0  0  0  0  0  0
   32.8374  -21.4478   36.9646 C   0  0  0  0  0  0  0  0  0  0  0  0
   31.7850  -20.9615   36.2403 C   0  0  0  0  0  0  0  0  0  0  0  0
   31.8216  -19.7809   35.6261 C   0  0  0  0  0  0  0  0  0  0  0  0
   30.7011  -19.3225   34.7407 C   0  0  0  0  0  0  0  0  0  0  0  0
   33.0063  -18.9792   35.7239 C   0  0  0  0  0  0  0  0  0  0  0  0
   34.0655  -19.4593   36.4342 C   0  0  0  0  0  0  0  0  0  0  0  0
   32.8332  -17.6901   35.2437 N   0  0  0  0  0  0  0  0  0  0  0  0
   31.9169  -17.3514   34.8724 H   0  0  0  0  0  0  0  0  0  0  0  0
   33.9562  -16.7043   35.2237 C   0  0  0  0  0  0  0  0  0  0  0  0
   33.9842  -15.6882   36.0160 N   0  0  0  0  0  0  0  0  0  0  0  0
   35.2292  -15.3168   36.4918 C   0  0  0  0  0  0  0  0  0  0  0  0
   36.3748  -16.0029   36.1390 C   0  0  0  0  0  0  0  0  0  0  0  0
   36.3111  -17.0480   35.3175 C   0  0  0  0  0  0  0  0  0  0  0  0
   35.0850  -17.4099   34.8346 N   0  0  0  0  0  0  0  0  0  0  0  0
   37.3413  -18.0406   35.0677 C   0  0  0  0  0  0  0  0  0  0  0  0
   37.7461  -18.4381   33.8372 C   0  0  0  0  0  0  0  0  0  0  0  0
   38.3677  -19.6630   33.6557 C   0  0  0  0  0  0  0  0  0  0  0  0
   38.5700  -20.4734   34.7668 C   0  0  0  0  0  0  0  0  0  0  0  0
   38.1725  -20.0696   35.9866 N   0  0  0  0  0  0  0  0  0  0  0  0
   37.5772  -18.9007   36.1578 C   0  0  0  0  0  0  0  0  0  0  0  0
   38.5587  -22.2685   41.4248 C   0  0  0  0  0  0  0  0  0  0  0  0
   38.7859  -21.9980   40.1069 C   0  0  0  0  0  0  0  0  0  0  0  0
   37.7399  -21.4764   39.3114 C   0  0  0  0  0  0  0  0  0  0  0  0
   36.5267  -21.2590   39.8841 C   0  0  0  0  0  0  0  0  0  0  0  0
   36.3689  -21.5643   41.2134 C   0  0  0  0  0  0  0  0  0  0  0  0
   37.3184  -22.0588   42.0339 C   0  0  0  0  0  0  0  0  0  0  0  0
   37.0436  -22.4725   43.4031 C   0  0  0  0  0  0  0  0  0  0  0  0
   37.1662  -23.8935   43.5403 F   0  0  0  0  0  0  0  0  0  0  0  0
   35.6664  -22.2804   43.6420 F   0  0  0  0  0  0  0  0  0  0  0  0
   37.6880  -21.8232   44.4078 F   0  0  0  0  0  0  0  0  0  0  0  0
   39.6468  -22.5866   42.3774 C   0  0  0  0  0  0  0  0  0  0  0  0
   42.6229  -19.6335   42.7901 N   0  0  0  0  0  0  0  0  0  0  0  0
   42.7800  -21.0157   43.1763 C   0  0  0  0  0  0  0  0  0  0  0  0
   41.9015  -21.8576   42.1957 C   0  0  0  0  0  0  0  0  0  0  0  0
   40.5612  -21.5967   42.5770 N   0  0  0  0  0  0  0  0  0  0  0  0
   40.2933  -20.2980   42.9516 C   0  0  0  0  0  0  0  0  0  0  0  0
   41.3272  -19.3940   42.2531 C   0  0  0  0  0  0  0  0  0  0  0  0
   43.3933  -19.6170   45.0770 C   0  0  0  0  0  0  0  0  0  0  0  0
   42.7423  -18.7978   43.9990 C   0  0  0  0  0  0  0  0  0  0  0  0
 43 44  1  0  0  0
 44 37  1  0  0  0
 37 38  1  0  0  0
 38 39  1  0  0  0
 39 40  1  0  0  0
 40 36  1  0  0  0
 36 26  1  0  0  0
 26 27  2  0  0  0
 27 28  1  0  0  0
 28 29  2  0  0  0
 29 30  1  0  0  0
 30 31  2  0  0  0
 31 32  1  0  0  0
 32 33  1  0  0  0
 32 34  1  0  0  0
 32 35  1  0  0  0
 29  1  1  0  0  0
  1  2  2  0  0  0
  1  3  1  0  0  0
  3  5  1  0  0  0
  5  6  2  0  0  0
  6  7  1  0  0  0
  7  8  2  0  0  0
  8  9  1  0  0  0
  8 10  1  0  0  0
 10 12  1  0  0  0
 12 14  1  0  0  0
 14 15  2  0  0  0
 15 16  1  0  0  0
 16 17  2  0  0  0
 17 18  1  0  0  0
 18 19  2  0  0  0
 18 20  1  0  0  0
 20 21  2  0  0  0
 21 22  1  0  0  0
 22 23  2  0  0  0
 23 24  1  0  0  0
 24 25  2  0  0  0
 10 11  2  0  0  0
 40 41  1  0  0  0
 41 42  1  0  0  0
 42 37  1  0  0  0
 31 26  1  0  0  0
 11  5  1  0  0  0
 19 14  1  0  0  0
 25 20  1  0  0  0
  3  4  1  0  0  0
 12 13  1  0  0  0
M  END
> <minimizedAffinity>
-6.59169

> <CNNscore>
0.3160390258

> <CNNaffinity>
6.2843136787

> <CNN_VS>
1.9860883951

> <CNNaffinity_variance>
0.0662009567

$$$$
[H]c1nc(N([H])c2c([H])c(N([H])C(=O)c3c([H])c([H])c(C([H])([H])N4C([H])([H])C([H])([H])N(C([H])([H])C([H])([H])[H])C([H])([H])C4([H])[H])c(C(F)(F)F)c3[H])c([H])c([H])c2C([H])([H])[H])nc(-c2c([H])nc([H])c([H])c2[H])c1[H]


 44 48  0  0  0  0  0  0  0  0999 V2000
   36.1034  -19.4594   36.9151 C   0  0  0  0  0  0  0  0  0  0  0  0
   35.5283  -18.7126   37.7097 O   0  0  0  0  0  0  0  0  0  0  0  0
   35.4499  -20.0583   35.8298 N   0  0  0  0  0  0  0  0  0  0  0  0
   36.0362  -20.6730   35.2033 H   0  0  0  0  0  0  0  0  0  0  0  0
   34.0823  -19.9094   35.5071 C   0  0  0  0  0  0  0  0  0  0  0  0
   33.6555  -18.7480   34.8808 C   0  0  0  0  0  0  0  0  0  0  0  0
   32.3481  -18.6231   34.5019 C   0  0  0  0  0  0  0  0  0  0  0  0
   31.4474  -19.5819   34.7060 C   0  0  0  0  0  0  0  0  0  0  0  0
   29.9960  -19.3748   34.3896 C   0  0  0  0  0  0  0  0  0  0  0  0
   31.8553  -20.7985   35.3457 C   0  0  0  0  0  0  0  0  0  0  0  0
   33.1539  -20.9293   35.7375 C   0  0  0  0  0  0  0  0  0  0  0  0
   30.8920  -21.7941   35.2881 N   0  0  0  0  0  0  0  0  0  0  0  0
   30.7159  -22.3505   34.4212 H   0  0  0  0  0  0  0  0  0  0  0  0
   30.0391  -22.1281   36.4690 C   0  0  0  0  0  0  0  0  0  0  0  0
   29.5945  -21.2187   37.2666 N   0  0  0  0  0  0  0  0  0  0  0  0
   28.3251  -21.4205   37.7786 C   0  0  0  0  0  0  0  0  0  0  0  0
   27.5775  -22.5333   37.4466 C   0  0  0  0  0  0  0  0  0  0  0  0
   28.0668  -23.4546   36.6203 C   0  0  0  0  0  0  0  0  0  0  0  0
   29.3255  -23.2659   36.1228 N   0  0  0  0  0  0  0  0  0  0  0  0
   27.3386  -24.5169   35.9492 C   0  0  0  0  0  0  0  0  0  0  0  0
   27.9162  -25.5351   35.2668 C   0  0  0  0  0  0  0  0  0  0  0  0
   27.2115  -26.2292   34.2966 C   0  0  0  0  0  0  0  0  0  0  0  0
   25.8961  -25.8590   34.0421 C   0  0  0  0  0  0  0  0  0  0  0  0
   25.3264  -24.8522   34.7284 N   0  0  0  0  0  0  0  0  0  0  0  0
   26.0013  -24.1891   35.6529 C   0  0  0  0  0  0  0  0  0  0  0  0
   40.1529  -20.1776   37.7715 C   0  0  0  0  0  0  0  0  0  0  0  0
   39.8401  -19.2174   36.8541 C   0  0  0  0  0  0  0  0  0  0  0  0
   38.4847  -18.9726   36.5349 C   0  0  0  0  0  0  0  0  0  0  0  0
   37.5227  -19.7072   37.1529 C   0  0  0  0  0  0  0  0  0  0  0  0
   37.9128  -20.6633   38.0578 C   0  0  0  0  0  0  0  0  0  0  0  0
   39.1816  -20.9494   38.4152 C   0  0  0  0  0  0  0  0  0  0  0  0
   39.5252  -22.0606   39.2919 C   0  0  0  0  0  0  0  0  0  0  0  0
   40.4404  -22.9544   38.6464 F   0  0  0  0  0  0  0  0  0  0  0  0
   38.3793  -22.8728   39.4255 F   0  0  0  0  0  0  0  0  0  0  0  0
   39.9263  -21.7745   40.5582 F   0  0  0  0  0  0  0  0  0  0  0  0
   41.5127  -20.3349   38.3361 C   0  0  0  0  0  0  0  0  0  0  0  0
   44.6280  -18.0243   36.6916 N   0  0  0  0  0  0  0  0  0  0  0  0
   43.4586  -17.4808   37.3410 C   0  0  0  0  0  0  0  0  0  0  0  0
   43.0341  -18.5119   38.4359 C   0  0  0  0  0  0  0  0  0  0  0  0
   42.4906  -19.6107   37.7238 N   0  0  0  0  0  0  0  0  0  0  0  0
   43.1359  -19.9343   36.5500 C   0  0  0  0  0  0  0  0  0  0  0  0
   44.5921  -19.4466   36.6748 C   0  0  0  0  0  0  0  0  0  0  0  0
   43.5917  -16.5028   35.1313 C   0  0  0  0  0  0  0  0  0  0  0  0
   44.6244  -17.5830   35.2847 C   0  0  0  0  0  0  0  0  0  0  0  0
 43 44  1  0  0  0
 44 37  1  0  0  0
 37 38  1  0  0  0
 38 39  1  0  0  0
 39 40  1  0  0  0
 40 36  1  0  0  0
 36 26  1  0  0  0
 26 27  2  0  0  0
 27 28  1  0  0  0
 28 29  2  0  0  0
 29 30  1  0  0  0
 30 31  2  0  0  0
 31 32  1  0  0  0
 32 33  1  0  0  0
 32 34  1  0  0  0
 32 35  1  0  0  0
 29  1  1  0  0  0
  1  2  2  0  0  0
  1  3  1  0  0  0
  3  5  1  0  0  0
  5  6  2  0  0  0
  6  7  1  0  0  0
  7  8  2  0  0  0
  8  9  1  0  0  0
  8 10  1  0  0  0
 10 12  1  0  0  0
 12 14  1  0  0  0
 14 15  2  0  0  0
 15 16  1  0  0  0
 16 17  2  0  0  0
 17 18  1  0  0  0
 18 19  2  0  0  0
 18 20  1  0  0  0
 20 21  2  0  0  0
 21 22  1  0  0  0
 22 23  2  0  0  0
 23 24  1  0  0  0
 24 25  2  0  0  0
 10 11  2  0  0  0
 40 41  1  0  0  0
 41 42  1  0  0  0
 42 37  1  0  0  0
 31 26  1  0  0  0
 11  5  1  0  0  0
 19 14  1  0  0  0
 25 20  1  0  0  0
  3  4  1  0  0  0
 12 13  1  0  0  0
M  END
> <minimizedAffinity>
-6.52983

> <CNNscore>
0.2964550257

> <CNNaffinity>
5.5932106972

> <CNN_VS>
1.6581354141

> <CNNaffinity_variance>
0.2202151120

$$$$
[H]c1nc(N([H])c2c([H])c(N([H])C(=O)c3c([H])c([H])c(C([H])([H])N4C([H])([H])C([H])([H])N(C([H])([H])C([H])([H])[H])C([H])([H])C4([H])[H])c(C(F)(F)F)c3[H])c([H])c([H])c2C([H])([H])[H])nc(-c2c([H])nc([H])c([H])c2[H])c1[H]


 44 48  0  0  0  0  0  0  0  0999 V2000
   36.2914  -16.8762   36.6776 C   0  0  0  0  0  0  0  0  0  0  0  0
   36.4575  -16.6226   35.4825 O   0  0  0  0  0  0  0  0  0  0  0  0
   35.8558  -15.9173   37.6019 N   0  0  0  0  0  0  0  0  0  0  0  0
   35.7359  -16.2401   38.5996 H   0  0  0  0  0  0  0  0  0  0  0  0
   35.5666  -14.5649   37.3120 C   0  0  0  0  0  0  0  0  0  0  0  0
   36.6025  -13.7071   36.9738 C   0  0  0  0  0  0  0  0  0  0  0  0
   36.3260  -12.4149   36.6241 C   0  0  0  0  0  0  0  0  0  0  0  0
   35.0863  -11.9309   36.5887 C   0  0  0  0  0  0  0  0  0  0  0  0
   34.8182  -10.4803   36.3179 C   0  0  0  0  0  0  0  0  0  0  0  0
   33.9907  -12.7917   36.9268 C   0  0  0  0  0  0  0  0  0  0  0  0
   34.2558  -14.0788   37.2876 C   0  0  0  0  0  0  0  0  0  0  0  0
   32.7534  -12.2421   36.6279 N   0  0  0  0  0  0  0  0  0  0  0  0
   32.2513  -12.4504   35.7354 H   0  0  0  0  0  0  0  0  0  0  0  0
   32.0632  -11.3083   37.5687 C   0  0  0  0  0  0  0  0  0  0  0  0
   32.1573  -10.0286   37.4489 N   0  0  0  0  0  0  0  0  0  0  0  0
   31.0228   -9.2994   37.7580 C   0  0  0  0  0  0  0  0  0  0  0  0
   29.8550   -9.9134   38.1666 C   0  0  0  0  0  0  0  0  0  0  0  0
   29.7916  -11.2378   38.2810 C   0  0  0  0  0  0  0  0  0  0  0  0
   30.9139  -11.9608   37.9895 N   0  0  0  0  0  0  0  0  0  0  0  0
   28.6006  -12.0577   38.4159 C   0  0  0  0  0  0  0  0  0  0  0  0
   27.3414  -11.6382   38.1430 C   0  0  0  0  0  0  0  0  0  0  0  0
   26.2447  -12.2720   38.7045 C   0  0  0  0  0  0  0  0  0  0  0  0
   26.4663  -13.3513   39.5520 C   0  0  0  0  0  0  0  0  0  0  0  0
   27.7185  -13.7673   39.8128 N   0  0  0  0  0  0  0  0  0  0  0  0
   28.7646  -13.1597   39.2775 C   0  0  0  0  0  0  0  0  0  0  0  0
   37.1523  -20.8464   37.7470 C   0  0  0  0  0  0  0  0  0  0  0  0
   36.0145  -20.2715   38.2332 C   0  0  0  0  0  0  0  0  0  0  0  0
   35.7148  -18.9298   37.9032 C   0  0  0  0  0  0  0  0  0  0  0  0
   36.5754  -18.2427   37.1068 C   0  0  0  0  0  0  0  0  0  0  0  0
   37.7058  -18.8832   36.6629 C   0  0  0  0  0  0  0  0  0  0  0  0
   38.0549  -20.1581   36.9316 C   0  0  0  0  0  0  0  0  0  0  0  0
   39.3306  -20.7315   36.5252 C   0  0  0  0  0  0  0  0  0  0  0  0
   40.2324  -20.8063   37.6362 F   0  0  0  0  0  0  0  0  0  0  0  0
   39.9785  -19.7931   35.6944 F   0  0  0  0  0  0  0  0  0  0  0  0
   39.3132  -21.8962   35.8256 F   0  0  0  0  0  0  0  0  0  0  0  0
   37.4211  -22.2994   37.8434 C   0  0  0  0  0  0  0  0  0  0  0  0
   37.7366  -24.0381   41.6677 N   0  0  0  0  0  0  0  0  0  0  0  0
   36.5085  -23.5469   41.0889 C   0  0  0  0  0  0  0  0  0  0  0  0
   36.6260  -23.7559   39.5447 C   0  0  0  0  0  0  0  0  0  0  0  0
   37.5647  -22.7878   39.1069 N   0  0  0  0  0  0  0  0  0  0  0  0
   38.6311  -22.5712   39.9522 C   0  0  0  0  0  0  0  0  0  0  0  0
   38.8326  -23.8559   40.7788 C   0  0  0  0  0  0  0  0  0  0  0  0
   36.7353  -22.7162   43.4208 C   0  0  0  0  0  0  0  0  0  0  0  0
   38.0316  -23.2427   42.8737 C   0  0  0  0  0  0  0  0  0  0  0  0
 43 44  1  0  0  0
 44 37  1  0  0  0
 37 38  1  0  0  0
 38 39  1  0  0  0
 39 40  1  0  0  0
 40 36  1  0  0  0
 36 26  1  0  0  0
 26 27  2  0  0  0
 27 28  1  0  0  0
 28 29  2  0  0  0
 29 30  1  0  0  0
 30 31  2  0  0  0
 31 32  1  0  0  0
 32 33  1  0  0  0
 32 34  1  0  0  0
 32 35  1  0  0  0
 29  1  1  0  0  0
  1  2  2  0  0  0
  1  3  1  0  0  0
  3  5  1  0  0  0
  5  6  2  0  0  0
  6  7  1  0  0  0
  7  8  2  0  0  0
  8  9  1  0  0  0
  8 10  1  0  0  0
 10 12  1  0  0  0
 12 14  1  0  0  0
 14 15  2  0  0  0
 15 16  1  0  0  0
 16 17  2  0  0  0
 17 18  1  0  0  0
 18 19  2  0  0  0
 18 20  1  0  0  0
 20 21  2  0  0  0
 21 22  1  0  0  0
 22 23  2  0  0  0
 23 24  1  0  0  0
 24 25  2  0  0  0
 10 11  2  0  0  0
 40 41  1  0  0  0
 41 42  1  0  0  0
 42 37  1  0  0  0
 31 26  1  0  0  0
 11  5  1  0  0  0
 19 14  1  0  0  0
 25 20  1  0  0  0
  3  4  1  0  0  0
 12 13  1  0  0  0
M  END
> <minimizedAffinity>
-7.55012

> <CNNscore>
0.2379632592

> <CNNaffinity>
6.5714430809

> <CNN_VS>
1.5637620687

> <CNNaffinity_variance>
0.1705843508

$$$$
[H]c1nc(N([H])c2c([H])c(N([H])C(=O)c3c([H])c([H])c(C([H])([H])N4C([H])([H])C([H])([H])N(C([H])([H])C([H])([H])[H])C([H])([H])C4([H])[H])c(C(F)(F)F)c3[H])c([H])c([H])c2C([H])([H])[H])nc(-c2c([H])nc([H])c([H])c2[H])c1[H]


 44 48  0  0  0  0  0  0  0  0999 V2000
   34.9348  -21.7532   37.8686 C   0  0  0  0  0  0  0  0  0  0  0  0
   35.9139  -22.5024   37.8628 O   0  0  0  0  0  0  0  0  0  0  0  0
   33.6701  -22.1631   38.3117 N   0  0  0  0  0  0  0  0  0  0  0  0
   32.9009  -21.4407   38.2850 H   0  0  0  0  0  0  0  0  0  0  0  0
   33.3413  -23.4525   38.7867 C   0  0  0  0  0  0  0  0  0  0  0  0
   32.9086  -24.4165   37.8885 C   0  0  0  0  0  0  0  0  0  0  0  0
   32.6546  -25.6862   38.3265 C   0  0  0  0  0  0  0  0  0  0  0  0
   32.8082  -26.0506   39.5977 C   0  0  0  0  0  0  0  0  0  0  0  0
   32.4102  -27.4153   40.0760 C   0  0  0  0  0  0  0  0  0  0  0  0
   33.2597  -25.0809   40.5525 C   0  0  0  0  0  0  0  0  0  0  0  0
   33.5053  -23.8092   40.1287 C   0  0  0  0  0  0  0  0  0  0  0  0
   33.5990  -25.6377   41.7761 N   0  0  0  0  0  0  0  0  0  0  0  0
   32.9611  -26.2870   42.2896 H   0  0  0  0  0  0  0  0  0  0  0  0
   34.9035  -25.3354   42.4396 C   0  0  0  0  0  0  0  0  0  0  0  0
   36.0286  -25.6960   41.9249 N   0  0  0  0  0  0  0  0  0  0  0  0
   37.0866  -24.8198   42.0903 C   0  0  0  0  0  0  0  0  0  0  0  0
   36.9392  -23.6239   42.7654 C   0  0  0  0  0  0  0  0  0  0  0  0
   35.7631  -23.2818   43.2859 C   0  0  0  0  0  0  0  0  0  0  0  0
   34.7189  -24.1506   43.1365 N   0  0  0  0  0  0  0  0  0  0  0  0
   35.3559  -21.9735   43.7669 C   0  0  0  0  0  0  0  0  0  0  0  0
   34.0802  -21.6230   44.0600 C   0  0  0  0  0  0  0  0  0  0  0  0
   33.6933  -20.2927   44.0670 C   0  0  0  0  0  0  0  0  0  0  0  0
   34.6458  -19.3249   43.7698 C   0  0  0  0  0  0  0  0  0  0  0  0
   35.9122  -19.6791   43.4870 N   0  0  0  0  0  0  0  0  0  0  0  0
   36.2795  -20.9499   43.4788 C   0  0  0  0  0  0  0  0  0  0  0  0
   35.6076  -17.9051   36.3236 C   0  0  0  0  0  0  0  0  0  0  0  0
   35.9060  -18.1440   37.6333 C   0  0  0  0  0  0  0  0  0  0  0  0
   35.6686  -19.4259   38.1804 C   0  0  0  0  0  0  0  0  0  0  0  0
   35.1435  -20.3924   37.3820 C   0  0  0  0  0  0  0  0  0  0  0  0
   34.8590  -20.0764   36.0765 C   0  0  0  0  0  0  0  0  0  0  0  0
   35.0616  -18.8811   35.4852 C   0  0  0  0  0  0  0  0  0  0  0  0
   34.6221  -18.5849   34.1286 C   0  0  0  0  0  0  0  0  0  0  0  0
   33.4549  -17.7539   34.1414 F   0  0  0  0  0  0  0  0  0  0  0  0
   34.1170  -19.7780   33.5703 F   0  0  0  0  0  0  0  0  0  0  0  0
   35.5454  -18.1239   33.2447 F   0  0  0  0  0  0  0  0  0  0  0  0
   36.0398  -16.6800   35.6130 C   0  0  0  0  0  0  0  0  0  0  0  0
   34.3905  -12.9665   36.7255 N   0  0  0  0  0  0  0  0  0  0  0  0
   35.6653  -13.4674   37.1819 C   0  0  0  0  0  0  0  0  0  0  0  0
   36.2404  -14.3482   36.0263 C   0  0  0  0  0  0  0  0  0  0  0  0
   35.4475  -15.5235   36.0223 N   0  0  0  0  0  0  0  0  0  0  0  0
   34.1054  -15.3342   36.2704 C   0  0  0  0  0  0  0  0  0  0  0  0
   33.7576  -13.8931   35.8507 C   0  0  0  0  0  0  0  0  0  0  0  0
   33.0459  -11.3864   37.9580 C   0  0  0  0  0  0  0  0  0  0  0  0
   33.5059  -12.8152   37.8954 C   0  0  0  0  0  0  0  0  0  0  0  0
 43 44  1  0  0  0
 44 37  1  0  0  0
 37 38  1  0  0  0
 38 39  1  0  0  0
 39 40  1  0  0  0
 40 36  1  0  0  0
 36 26  1  0  0  0
 26 27  2  0  0  0
 27 28  1  0  0  0
 28 29  2  0  0  0
 29 30  1  0  0  0
 30 31  2  0  0  0
 31 32  1  0  0  0
 32 33  1  0  0  0
 32 34  1  0  0  0
 32 35  1  0  0  0
 29  1  1  0  0  0
  1  2  2  0  0  0
  1  3  1  0  0  0
  3  5  1  0  0  0
  5  6  2  0  0  0
  6  7  1  0  0  0
  7  8  2  0  0  0
  8  9  1  0  0  0
  8 10  1  0  0  0
 10 12  1  0  0  0
 12 14  1  0  0  0
 14 15  2  0  0  0
 15 16  1  0  0  0
 16 17  2  0  0  0
 17 18  1  0  0  0
 18 19  2  0  0  0
 18 20  1  0  0  0
 20 21  2  0  0  0
 21 22  1  0  0  0
 22 23  2  0  0  0
 23 24  1  0  0  0
 24 25  2  0  0  0
 10 11  2  0  0  0
 40 41  1  0  0  0
 41 42  1  0  0  0
 42 37  1  0  0  0
 31 26  1  0  0  0
 11  5  1  0  0  0
 19 14  1  0  0  0
 25 20  1  0  0  0
  3  4  1  0  0  0
 12 13  1  0  0  0
M  END
> <minimizedAffinity>
-5.81330

> <CNNscore>
0.2175711542

> <CNNaffinity>
6.3974289894

> <CNN_VS>
1.3918960094

> <CNNaffinity_variance>
0.1534257829

$$$$
[H]c1nc(N([H])c2c([H])c(N([H])C(=O)c3c([H])c([H])c(C([H])([H])N4C([H])([H])C([H])([H])N(C([H])([H])C([H])([H])[H])C([H])([H])C4([H])[H])c(C(F)(F)F)c3[H])c([H])c([H])c2C([H])([H])[H])nc(-c2c([H])nc([H])c([H])c2[H])c1[H]


 44 48  0  0  0  0  0  0  0  0999 V2000
   32.4032  -20.2064   36.2357 C   0  0  0  0  0  0  0  0  0  0  0  0
   31.5997  -19.3618   35.8343 O   0  0  0  0  0  0  0  0  0  0  0  0
   32.0459  -21.5413   36.4683 N   0  0  0  0  0  0  0  0  0  0  0  0
   32.8120  -22.1862   36.8017 H   0  0  0  0  0  0  0  0  0  0  0  0
   30.7559  -22.0912   36.2955 C   0  0  0  0  0  0  0  0  0  0  0  0
   30.5896  -23.1790   35.4515 C   0  0  0  0  0  0  0  0  0  0  0  0
   29.3591  -23.7619   35.3309 C   0  0  0  0  0  0  0  0  0  0  0  0
   28.2921  -23.3298   35.9997 C   0  0  0  0  0  0  0  0  0  0  0  0
   26.9294  -23.9093   35.7612 C   0  0  0  0  0  0  0  0  0  0  0  0
   28.4292  -22.2108   36.8856 C   0  0  0  0  0  0  0  0  0  0  0  0
   29.6490  -21.6152   37.0049 C   0  0  0  0  0  0  0  0  0  0  0  0
   27.3158  -22.0109   37.6874 N   0  0  0  0  0  0  0  0  0  0  0  0
   26.4650  -22.6141   37.6211 H   0  0  0  0  0  0  0  0  0  0  0  0
   27.2647  -20.9096   38.6963 C   0  0  0  0  0  0  0  0  0  0  0  0
   26.3813  -19.9731   38.6375 N   0  0  0  0  0  0  0  0  0  0  0  0
   25.8965  -19.5116   39.8485 C   0  0  0  0  0  0  0  0  0  0  0  0
   26.3338  -20.0323   41.0507 C   0  0  0  0  0  0  0  0  0  0  0  0
   27.2483  -20.9988   41.0763 C   0  0  0  0  0  0  0  0  0  0  0  0
   27.7396  -21.4482   39.8829 N   0  0  0  0  0  0  0  0  0  0  0  0
   27.6096  -21.8449   42.1999 C   0  0  0  0  0  0  0  0  0  0  0  0
   28.8158  -22.4413   42.3588 C   0  0  0  0  0  0  0  0  0  0  0  0
   28.9539  -23.5602   43.1642 C   0  0  0  0  0  0  0  0  0  0  0  0
   27.8260  -24.0548   43.8088 C   0  0  0  0  0  0  0  0  0  0  0  0
   26.6330  -23.4536   43.6527 N   0  0  0  0  0  0  0  0  0  0  0  0
   26.5026  -22.3866   42.8817 C   0  0  0  0  0  0  0  0  0  0  0  0
   36.3350  -18.8220   36.7564 C   0  0  0  0  0  0  0  0  0  0  0  0
   36.0607  -20.1289   37.0364 C   0  0  0  0  0  0  0  0  0  0  0  0
   34.7402  -20.6118   36.8882 C   0  0  0  0  0  0  0  0  0  0  0  0
   33.7719  -19.7547   36.4700 C   0  0  0  0  0  0  0  0  0  0  0  0
   34.1199  -18.4510   36.2166 C   0  0  0  0  0  0  0  0  0  0  0  0
   35.3550  -17.9210   36.3309 C   0  0  0  0  0  0  0  0  0  0  0  0
   35.6248  -16.4997   36.1617 C   0  0  0  0  0  0  0  0  0  0  0  0
   35.9630  -15.8928   37.4148 F   0  0  0  0  0  0  0  0  0  0  0  0
   34.4029  -15.8636   35.8570 F   0  0  0  0  0  0  0  0  0  0  0  0
   36.4910  -16.1262   35.1837 F   0  0  0  0  0  0  0  0  0  0  0  0
   37.7156  -18.2962   36.6548 C   0  0  0  0  0  0  0  0  0  0  0  0
   40.2317  -20.4651   34.0639 N   0  0  0  0  0  0  0  0  0  0  0  0
   40.6690  -19.8111   35.2745 C   0  0  0  0  0  0  0  0  0  0  0  0
   39.4647  -19.8583   36.2693 C   0  0  0  0  0  0  0  0  0  0  0  0
   38.5216  -18.9309   35.7587 N   0  0  0  0  0  0  0  0  0  0  0  0
   38.4041  -18.8997   34.3861 C   0  0  0  0  0  0  0  0  0  0  0  0
   38.8366  -20.2798   33.8548 C   0  0  0  0  0  0  0  0  0  0  0  0
   41.8598  -18.7913   33.4546 C   0  0  0  0  0  0  0  0  0  0  0  0
   40.9195  -19.8350   32.9220 C   0  0  0  0  0  0  0  0  0  0  0  0
 43 44  1  0  0  0
 44 37  1  0  0  0
 37 38  1  0  0  0
 38 39  1  0  0  0
 39 40  1  0  0  0
 40 36  1  0  0  0
 36 26  1  0  0  0
 26 27  2  0  0  0
 27 28  1  0  0  0
 28 29  2  0  0  0
 29 30  1  0  0  0
 30 31  2  0  0  0
 31 32  1  0  0  0
 32 33  1  0  0  0
 32 34  1  0  0  0
 32 35  1  0  0  0
 29  1  1  0  0  0
  1  2  2  0  0  0
  1  3  1  0  0  0
  3  5  1  0  0  0
  5  6  2  0  0  0
  6  7  1  0  0  0
  7  8  2  0  0  0
  8  9  1  0  0  0
  8 10  1  0  0  0
 10 12  1  0  0  0
 12 14  1  0  0  0
 14 15  2  0  0  0
 15 16  1  0  0  0
 16 17  2  0  0  0
 17 18  1  0  0  0
 18 19  2  0  0  0
 18 20  1  0  0  0
 20 21  2  0  0  0
 21 22  1  0  0  0
 22 23  2  0  0  0
 23 24  1  0  0  0
 24 25  2  0  0  0
 10 11  2  0  0  0
 40 41  1  0  0  0
 41 42  1  0  0  0
 42 37  1  0  0  0
 31 26  1  0  0  0
 11  5  1  0  0  0
 19 14  1  0  0  0
 25 20  1  0  0  0
  3  4  1  0  0  0
 12 13  1  0  0  0
M  END
> <minimizedAffinity>
-6.49422

> <CNNscore>
0.1854602098

> <CNNaffinity>
5.8111348152

> <CNN_VS>
1.0777342319

> <CNNaffinity_variance>
0.4075045586

$$$$
[H]c1nc(N([H])c2c([H])c(N([H])C(=O)c3c([H])c([H])c(C([H])([H])N4C([H])([H])C([H])([H])N(C([H])([H])C([H])([H])[H])C([H])([H])C4([H])[H])c(C(F)(F)F)c3[H])c([H])c([H])c2C([H])([H])[H])nc(-c2c([H])nc([H])c([H])c2[H])c1[H]


 44 48  0  0  0  0  0  0  0  0999 V2000
   32.1285  -20.8077   36.5113 C   0  0  0  0  0  0  0  0  0  0  0  0
   30.9274  -20.6359   36.2929 O   0  0  0  0  0  0  0  0  0  0  0  0
   32.6277  -21.9587   37.1357 N   0  0  0  0  0  0  0  0  0  0  0  0
   33.6737  -22.0116   37.2666 H   0  0  0  0  0  0  0  0  0  0  0  0
   31.8537  -23.0452   37.6012 C   0  0  0  0  0  0  0  0  0  0  0  0
   31.5071  -24.0582   36.7198 C   0  0  0  0  0  0  0  0  0  0  0  0
   30.8181  -25.1474   37.1755 C   0  0  0  0  0  0  0  0  0  0  0  0
   30.4593  -25.2874   38.4498 C   0  0  0  0  0  0  0  0  0  0  0  0
   29.6023  -26.4322   38.9020 C   0  0  0  0  0  0  0  0  0  0  0  0
   30.8064  -24.2619   39.3898 C   0  0  0  0  0  0  0  0  0  0  0  0
   31.4835  -23.1665   38.9441 C   0  0  0  0  0  0  0  0  0  0  0  0
   30.5845  -24.6325   40.7073 N   0  0  0  0  0  0  0  0  0  0  0  0
   30.9721  -25.5148   41.1115 H   0  0  0  0  0  0  0  0  0  0  0  0
   29.7675  -23.7887   41.6314 C   0  0  0  0  0  0  0  0  0  0  0  0
   28.9452  -24.3064   42.4779 N   0  0  0  0  0  0  0  0  0  0  0  0
   28.8408  -23.6664   43.7002 C   0  0  0  0  0  0  0  0  0  0  0  0
   29.5824  -22.5391   43.9943 C   0  0  0  0  0  0  0  0  0  0  0  0
   30.4225  -22.0291   43.0969 C   0  0  0  0  0  0  0  0  0  0  0  0
   30.5187  -22.6503   41.8835 N   0  0  0  0  0  0  0  0  0  0  0  0
   31.4677  -21.0465   43.3222 C   0  0  0  0  0  0  0  0  0  0  0  0
   31.2502  -19.7611   43.6916 C   0  0  0  0  0  0  0  0  0  0  0  0
   32.2015  -18.7828   43.4514 C   0  0  0  0  0  0  0  0  0  0  0  0
   33.3867  -19.1517   42.8257 C   0  0  0  0  0  0  0  0  0  0  0  0
   33.5994  -20.4308   42.4683 N   0  0  0  0  0  0  0  0  0  0  0  0
   32.6891  -21.3632   42.6965 C   0  0  0  0  0  0  0  0  0  0  0  0
   34.7467  -17.6928   35.4675 C   0  0  0  0  0  0  0  0  0  0  0  0
   33.6306  -17.8895   34.7078 C   0  0  0  0  0  0  0  0  0  0  0  0
   32.7458  -18.9448   35.0280 C   0  0  0  0  0  0  0  0  0  0  0  0
   33.0338  -19.7422   36.0902 C   0  0  0  0  0  0  0  0  0  0  0  0
   34.1801  -19.4905   36.8028 C   0  0  0  0  0  0  0  0  0  0  0  0
   35.0666  -18.5032   36.5603 C   0  0  0  0  0  0  0  0  0  0  0  0
   36.3232  -18.3727   37.2850 C   0  0  0  0  0  0  0  0  0  0  0  0
   36.4585  -19.4126   38.2614 F   0  0  0  0  0  0  0  0  0  0  0  0
   36.2319  -17.2253   38.1008 F   0  0  0  0  0  0  0  0  0  0  0  0
   37.4644  -18.2239   36.5625 F   0  0  0  0  0  0  0  0  0  0  0  0
   35.5919  -16.4823   35.3528 C   0  0  0  0  0  0  0  0  0  0  0  0
   34.1942  -12.8441   36.9519 N   0  0  0  0  0  0  0  0  0  0  0  0
   35.4488  -13.4661   37.3033 C   0  0  0  0  0  0  0  0  0  0  0  0
   35.9404  -14.2320   36.0329 C   0  0  0  0  0  0  0  0  0  0  0  0
   35.0798  -15.3525   35.9157 N   0  0  0  0  0  0  0  0  0  0  0  0
   33.7581  -15.1204   36.2288 C   0  0  0  0  0  0  0  0  0  0  0  0
   33.4851  -13.6222   35.9947 C   0  0  0  0  0  0  0  0  0  0  0  0
   32.0081  -12.2349   37.7727 C   0  0  0  0  0  0  0  0  0  0  0  0
   33.3510  -12.7859   38.1601 C   0  0  0  0  0  0  0  0  0  0  0  0
 43 44  1  0  0  0
 44 37  1  0  0  0
 37 38  1  0  0  0
 38 39  1  0  0  0
 39 40  1  0  0  0
 40 36  1  0  0  0
 36 26  1  0  0  0
 26 27  2  0  0  0
 27 28  1  0  0  0
 28 29  2  0  0  0
 29 30  1  0  0  0
 30 31  2  0  0  0
 31 32  1  0  0  0
 32 33  1  0  0  0
 32 34  1  0  0  0
 32 35  1  0  0  0
 29  1  1  0  0  0
  1  2  2  0  0  0
  1  3  1  0  0  0
  3  5  1  0  0  0
  5  6  2  0  0  0
  6  7  1  0  0  0
  7  8  2  0  0  0
  8  9  1  0  0  0
  8 10  1  0  0  0
 10 12  1  0  0  0
 12 14  1  0  0  0
 14 15  2  0  0  0
 15 16  1  0  0  0
 16 17  2  0  0  0
 17 18  1  0  0  0
 18 19  2  0  0  0
 18 20  1  0  0  0
 20 21  2  0  0  0
 21 22  1  0  0  0
 22 23  2  0  0  0
 23 24  1  0  0  0
 24 25  2  0  0  0
 10 11  2  0  0  0
 40 41  1  0  0  0
 41 42  1  0  0  0
 42 37  1  0  0  0
 31 26  1  0  0  0
 11  5  1  0  0  0
 19 14  1  0  0  0
 25 20  1  0  0  0
  3  4  1  0  0  0
 12 13  1  0  0  0
M  END
> <minimizedAffinity>
-6.32449

> <CNNscore>
0.1803791374

> <CNNaffinity>
6.0379872322

> <CNN_VS>
1.0891269445

> <CNNaffinity_variance>
0.0986533239

$$$$
[H]c1nc(N([H])c2c([H])c(N([H])C(=O)c3c([H])c([H])c(C([H])([H])N4C([H])([H])C([H])([H])N(C([H])([H])C([H])([H])[H])C([H])([H])C4([H])[H])c(C(F)(F)F)c3[H])c([H])c([H])c2C([H])([H])[H])nc(-c2c([H])nc([H])c([H])c2[H])c1[H]


 44 48  0  0  0  0  0  0  0  0999 V2000
   32.1391  -20.4464   35.8933 C   0  0  0  0  0  0  0  0  0  0  0  0
   31.5698  -19.9944   34.8975 O   0  0  0  0  0  0  0  0  0  0  0  0
   31.5746  -21.4421   36.7018 N   0  0  0  0  0  0  0  0  0  0  0  0
   32.1493  -21.7669   37.5254 H   0  0  0  0  0  0  0  0  0  0  0  0
   30.3102  -22.0423   36.5082 C   0  0  0  0  0  0  0  0  0  0  0  0
   30.2069  -23.1585   35.6917 C   0  0  0  0  0  0  0  0  0  0  0  0
   29.0015  -23.7880   35.5530 C   0  0  0  0  0  0  0  0  0  0  0  0
   27.9008  -23.3756   36.1781 C   0  0  0  0  0  0  0  0  0  0  0  0
   26.5668  -24.0097   35.9176 C   0  0  0  0  0  0  0  0  0  0  0  0
   27.9726  -22.2281   37.0347 C   0  0  0  0  0  0  0  0  0  0  0  0
   29.1669  -21.5863   37.1716 C   0  0  0  0  0  0  0  0  0  0  0  0
   26.8296  -22.0456   37.7981 N   0  0  0  0  0  0  0  0  0  0  0  0
   25.9274  -21.7207   37.3829 H   0  0  0  0  0  0  0  0  0  0  0  0
   26.8227  -22.2990   39.2710 C   0  0  0  0  0  0  0  0  0  0  0  0
   27.4404  -23.3029   39.7918 N   0  0  0  0  0  0  0  0  0  0  0  0
   28.0324  -23.0859   41.0234 C   0  0  0  0  0  0  0  0  0  0  0  0
   27.9672  -21.8585   41.6533 C   0  0  0  0  0  0  0  0  0  0  0  0
   27.3202  -20.8420   41.0882 C   0  0  0  0  0  0  0  0  0  0  0  0
   26.7226  -21.0559   39.8780 N   0  0  0  0  0  0  0  0  0  0  0  0
   27.3865  -19.4383   41.4545 C   0  0  0  0  0  0  0  0  0  0  0  0
   27.1633  -18.4084   40.6028 C   0  0  0  0  0  0  0  0  0  0  0  0
   27.6711  -17.1465   40.8664 C   0  0  0  0  0  0  0  0  0  0  0  0
   28.4121  -16.9607   42.0277 C   0  0  0  0  0  0  0  0  0  0  0  0
   28.6236  -17.9856   42.8726 N   0  0  0  0  0  0  0  0  0  0  0  0
   28.1399  -19.1903   42.6183 C   0  0  0  0  0  0  0  0  0  0  0  0
   35.9155  -18.7690   36.6499 C   0  0  0  0  0  0  0  0  0  0  0  0
   35.7131  -20.0842   36.9517 C   0  0  0  0  0  0  0  0  0  0  0  0
   34.4441  -20.6647   36.7247 C   0  0  0  0  0  0  0  0  0  0  0  0
   33.4519  -19.8913   36.2105 C   0  0  0  0  0  0  0  0  0  0  0  0
   33.7259  -18.5732   35.9406 C   0  0  0  0  0  0  0  0  0  0  0  0
   34.9091  -17.9528   36.1261 C   0  0  0  0  0  0  0  0  0  0  0  0
   35.0908  -16.5209   35.9308 C   0  0  0  0  0  0  0  0  0  0  0  0
   35.2760  -15.8551   37.1860 F   0  0  0  0  0  0  0  0  0  0  0  0
   33.8576  -15.9856   35.5029 F   0  0  0  0  0  0  0  0  0  0  0  0
   36.0093  -16.1128   35.0165 F   0  0  0  0  0  0  0  0  0  0  0  0
   37.2597  -18.1482   36.6307 C   0  0  0  0  0  0  0  0  0  0  0  0
   40.0830  -19.9237   34.0569 N   0  0  0  0  0  0  0  0  0  0  0  0
   38.6521  -19.9937   33.8779 C   0  0  0  0  0  0  0  0  0  0  0  0
   38.0629  -18.6662   34.4548 C   0  0  0  0  0  0  0  0  0  0  0  0
   38.1888  -18.7821   35.8622 N   0  0  0  0  0  0  0  0  0  0  0  0
   39.3456  -19.3848   36.3064 C   0  0  0  0  0  0  0  0  0  0  0  0
   40.4194  -19.1779   35.2210 C   0  0  0  0  0  0  0  0  0  0  0  0
   41.5657  -21.6076   33.1684 C   0  0  0  0  0  0  0  0  0  0  0  0
   40.5915  -21.2916   34.2675 C   0  0  0  0  0  0  0  0  0  0  0  0
 43 44  1  0  0  0
 44 37  1  0  0  0
 37 38  1  0  0  0
 38 39  1  0  0  0
 39 40  1  0  0  0
 40 36  1  0  0  0
 36 26  1  0  0  0
 26 27  2  0  0  0
 27 28  1  0  0  0
 28 29  2  0  0  0
 29 30  1  0  0  0
 30 31  2  0  0  0
 31 32  1  0  0  0
 32 33  1  0  0  0
 32 34  1  0  0  0
 32 35  1  0  0  0
 29  1  1  0  0  0
  1  2  2  0  0  0
  1  3  1  0  0  0
  3  5  1  0  0  0
  5  6  2  0  0  0
  6  7  1  0  0  0
  7  8  2  0  0  0
  8  9  1  0  0  0
  8 10  1  0  0  0
 10 12  1  0  0  0
 12 14  1  0  0  0
 14 15  2  0  0  0
 15 16  1  0  0  0
 16 17  2  0  0  0
 17 18  1  0  0  0
 18 19  2  0  0  0
 18 20  1  0  0  0
 20 21  2  0  0  0
 21 22  1  0  0  0
 22 23  2  0  0  0
 23 24  1  0  0  0
 24 25  2  0  0  0
 10 11  2  0  0  0
 40 41  1  0  0  0
 41 42  1  0  0  0
 42 37  1  0  0  0
 31 26  1  0  0  0
 11  5  1  0  0  0
 19 14  1  0  0  0
 25 20  1  0  0  0
  3  4  1  0  0  0
 12 13  1  0  0  0
M  END
> <minimizedAffinity>
-6.26753

> <CNNscore>
0.1639232934

> <CNNaffinity>
5.7447295189

> <CNN_VS>
0.9416949749

> <CNNaffinity_variance>
0.4705907404

$$$$
[H]c1nc(N([H])c2c([H])c(N([H])C(=O)c3c([H])c([H])c(C([H])([H])N4C([H])([H])C([H])([H])N(C([H])([H])C([H])([H])[H])C([H])([H])C4([H])[H])c(C(F)(F)F)c3[H])c([H])c([H])c2C([H])([H])[H])nc(-c2c([H])nc([H])c([H])c2[H])c1[H]


 44 48  0  0  0  0  0  0  0  0999 V2000
   33.2688  -13.4547   37.4631 C   0  0  0  0  0  0  0  0  0  0  0  0
   34.1943  -13.4238   38.2771 O   0  0  0  0  0  0  0  0  0  0  0  0
   33.2398  -14.3467   36.3827 N   0  0  0  0  0  0  0  0  0  0  0  0
   32.3965  -14.2981   35.7499 H   0  0  0  0  0  0  0  0  0  0  0  0
   34.2377  -15.2977   36.0722 C   0  0  0  0  0  0  0  0  0  0  0  0
   35.5729  -14.9337   36.1614 C   0  0  0  0  0  0  0  0  0  0  0  0
   36.5465  -15.8651   35.9307 C   0  0  0  0  0  0  0  0  0  0  0  0
   36.2701  -17.1301   35.6215 C   0  0  0  0  0  0  0  0  0  0  0  0
   37.3521  -18.1027   35.2569 C   0  0  0  0  0  0  0  0  0  0  0  0
   34.9002  -17.5425   35.5264 C   0  0  0  0  0  0  0  0  0  0  0  0
   33.9215  -16.6195   35.7436 C   0  0  0  0  0  0  0  0  0  0  0  0
   34.7504  -18.9176   35.4308 N   0  0  0  0  0  0  0  0  0  0  0  0
   35.5681  -19.5680   35.4140 H   0  0  0  0  0  0  0  0  0  0  0  0
   33.4013  -19.5541   35.3399 C   0  0  0  0  0  0  0  0  0  0  0  0
   32.8940  -19.9158   34.2118 N   0  0  0  0  0  0  0  0  0  0  0  0
   32.1397  -21.0757   34.2233 C   0  0  0  0  0  0  0  0  0  0  0  0
   31.9482  -21.8049   35.3806 C   0  0  0  0  0  0  0  0  0  0  0  0
   32.4856  -21.4029   36.5298 C   0  0  0  0  0  0  0  0  0  0  0  0
   33.2202  -20.2506   36.5255 N   0  0  0  0  0  0  0  0  0  0  0  0
   32.6286  -22.1692   37.7550 C   0  0  0  0  0  0  0  0  0  0  0  0
   31.7496  -23.1066   38.1846 C   0  0  0  0  0  0  0  0  0  0  0  0
   31.6864  -23.4603   39.5227 C   0  0  0  0  0  0  0  0  0  0  0  0
   32.5491  -22.8333   40.4143 C   0  0  0  0  0  0  0  0  0  0  0  0
   33.4244  -21.9090   39.9801 N   0  0  0  0  0  0  0  0  0  0  0  0
   33.4820  -21.5710   38.7025 C   0  0  0  0  0  0  0  0  0  0  0  0
   30.2490  -10.6125   38.1337 C   0  0  0  0  0  0  0  0  0  0  0  0
   29.9649  -11.9297   38.3484 C   0  0  0  0  0  0  0  0  0  0  0  0
   30.9596  -12.9058   38.1095 C   0  0  0  0  0  0  0  0  0  0  0  0
   32.1800  -12.5034   37.6671 C   0  0  0  0  0  0  0  0  0  0  0  0
   32.3903  -11.1619   37.4639 C   0  0  0  0  0  0  0  0  0  0  0  0
   31.4942  -10.1757   37.6735 C   0  0  0  0  0  0  0  0  0  0  0  0
   31.7498   -8.7861   37.3197 C   0  0  0  0  0  0  0  0  0  0  0  0
   31.3463   -8.5214   35.9706 F   0  0  0  0  0  0  0  0  0  0  0  0
   33.1477   -8.6134   37.2386 F   0  0  0  0  0  0  0  0  0  0  0  0
   31.3055   -7.8199   38.1655 F   0  0  0  0  0  0  0  0  0  0  0  0
   29.3580   -9.5170   38.5795 C   0  0  0  0  0  0  0  0  0  0  0  0
   26.2149  -10.4961   41.2082 N   0  0  0  0  0  0  0  0  0  0  0  0
   27.6004  -10.8416   41.4218 C   0  0  0  0  0  0  0  0  0  0  0  0
   28.4513   -9.7054   40.7682 C   0  0  0  0  0  0  0  0  0  0  0  0
   28.3142   -9.8932   39.3697 N   0  0  0  0  0  0  0  0  0  0  0  0
   27.0620  -10.2791   38.9432 C   0  0  0  0  0  0  0  0  0  0  0  0
   26.0453   -9.7824   39.9890 C   0  0  0  0  0  0  0  0  0  0  0  0
   26.0419  -12.7694   41.9991 C   0  0  0  0  0  0  0  0  0  0  0  0
   25.4401  -11.7441   41.0807 C   0  0  0  0  0  0  0  0  0  0  0  0
 43 44  1  0  0  0
 44 37  1  0  0  0
 37 38  1  0  0  0
 38 39  1  0  0  0
 39 40  1  0  0  0
 40 36  1  0  0  0
 36 26  1  0  0  0
 26 27  2  0  0  0
 27 28  1  0  0  0
 28 29  2  0  0  0
 29 30  1  0  0  0
 30 31  2  0  0  0
 31 32  1  0  0  0
 32 33  1  0  0  0
 32 34  1  0  0  0
 32 35  1  0  0  0
 29  1  1  0  0  0
  1  2  2  0  0  0
  1  3  1  0  0  0
  3  5  1  0  0  0
  5  6  2  0  0  0
  6  7  1  0  0  0
  7  8  2  0  0  0
  8  9  1  0  0  0
  8 10  1  0  0  0
 10 12  1  0  0  0
 12 14  1  0  0  0
 14 15  2  0  0  0
 15 16  1  0  0  0
 16 17  2  0  0  0
 17 18  1  0  0  0
 18 19  2  0  0  0
 18 20  1  0  0  0
 20 21  2  0  0  0
 21 22  1  0  0  0
 22 23  2  0  0  0
 23 24  1  0  0  0
 24 25  2  0  0  0
 10 11  2  0  0  0
 40 41  1  0  0  0
 41 42  1  0  0  0
 42 37  1  0  0  0
 31 26  1  0  0  0
 11  5  1  0  0  0
 19 14  1  0  0  0
 25 20  1  0  0  0
  3  4  1  0  0  0
 12 13  1  0  0  0
M  END
> <minimizedAffinity>
-8.54085

> <CNNscore>
0.1630946398

> <CNNaffinity>
6.4667024612

> <CNN_VS>
1.0546845198

> <CNNaffinity_variance>
0.2779777646

$$$$
[H]c1c([H])c(N([H])C(=O)c2c(C([H])([H])[H])c(C(=O)C(=O)N([H])C3(c4nnn([H])c4[H])C([H])([H])C3([H])[H])c3n2C([H])([H])C([H])([H])C3([H])[H])c([H])c(C([H])(F)F)c1F


 38 42  0  0  0  0  0  0  0  0999 V2000
   37.0874  -15.0698   36.8670 C   0  0  0  0  0  0  0  0  0  0  0  0
   36.1111  -16.1368   36.4673 C   0  0  0  0  0  0  0  0  0  0  0  0
   34.8206  -15.8664   36.1159 C   0  0  0  0  0  0  0  0  0  0  0  0
   34.3003  -17.1814   35.7857 C   0  0  0  0  0  0  0  0  0  0  0  0
   33.0337  -17.8121   35.3257 C   0  0  0  0  0  0  0  0  0  0  0  0
   33.2426  -19.2224   35.9235 C   0  0  0  0  0  0  0  0  0  0  0  0
   34.7193  -19.4093   35.6262 C   0  0  0  0  0  0  0  0  0  0  0  0
   35.2376  -18.0696   35.9527 N   0  0  0  0  0  0  0  0  0  0  0  0
   36.4117  -17.4682   36.3847 C   0  0  0  0  0  0  0  0  0  0  0  0
   37.5838  -18.2639   36.5660 C   0  0  0  0  0  0  0  0  0  0  0  0
   37.4676  -19.1780   37.5165 O   0  0  0  0  0  0  0  0  0  0  0  0
   38.8190  -18.2873   35.9357 N   0  0  0  0  0  0  0  0  0  0  0  0
   39.0802  -17.6120   35.2047 H   0  0  0  0  0  0  0  0  0  0  0  0
   39.8117  -19.2788   36.2851 C   0  0  0  0  0  0  0  0  0  0  0  0
   39.8472  -20.5238   35.6560 C   0  0  0  0  0  0  0  0  0  0  0  0
   40.7523  -21.4911   36.0100 C   0  0  0  0  0  0  0  0  0  0  0  0
   41.6802  -21.2497   37.0301 C   0  0  0  0  0  0  0  0  0  0  0  0
   42.5843  -22.2075   37.4136 F   0  0  0  0  0  0  0  0  0  0  0  0
   41.6763  -20.0406   37.6697 C   0  0  0  0  0  0  0  0  0  0  0  0
   40.7392  -19.0980   37.2741 C   0  0  0  0  0  0  0  0  0  0  0  0
   42.6427  -19.7433   38.7607 C   0  0  0  0  0  0  0  0  0  0  0  0
   43.8048  -19.3203   38.0909 F   0  0  0  0  0  0  0  0  0  0  0  0
   42.2408  -18.6664   39.5260 F   0  0  0  0  0  0  0  0  0  0  0  0
   33.9035  -14.7749   36.1404 C   0  0  0  0  0  0  0  0  0  0  0  0
   33.2258  -14.5315   35.0549 O   0  0  0  0  0  0  0  0  0  0  0  0
   33.6253  -13.8483   37.2361 C   0  0  0  0  0  0  0  0  0  0  0  0
   34.4490  -13.6746   38.1386 O   0  0  0  0  0  0  0  0  0  0  0  0
   32.3569  -13.1933   37.1195 N   0  0  0  0  0  0  0  0  0  0  0  0
   31.7989  -13.4296   36.2253 H   0  0  0  0  0  0  0  0  0  0  0  0
   31.7970  -12.2700   38.0328 C   0  0  0  0  0  0  0  0  0  0  0  0
   32.0790  -10.7959   37.8398 C   0  0  0  0  0  0  0  0  0  0  0  0
   30.8191  -11.3135   37.2937 C   0  0  0  0  0  0  0  0  0  0  0  0
   31.2211  -12.6717   39.3348 C   0  0  0  0  0  0  0  0  0  0  0  0
   29.8836  -13.0219   39.5955 C   0  0  0  0  0  0  0  0  0  0  0  0
   29.7256  -13.2843   40.9049 N   0  0  0  0  0  0  0  0  0  0  0  0
   30.9007  -13.1176   41.4675 N   0  0  0  0  0  0  0  0  0  0  0  0
   31.8075  -12.7473   40.5360 N   0  0  0  0  0  0  0  0  0  0  0  0
   28.8107  -13.5645   41.3101 H   0  0  0  0  0  0  0  0  0  0  0  0
  1  2  1  0  0  0
  2  3  1  0  0  0
  3 24  1  0  0  0
 24 25  2  0  0  0
 24 26  1  0  0  0
 26 27  2  0  0  0
 26 28  1  0  0  0
 28 30  1  0  0  0
 30 31  1  0  0  0
 31 32  1  0  0  0
 30 33  1  0  0  0
 33 34  2  0  0  0
 34 35  1  0  0  0
 35 36  1  0  0  0
 36 37  2  0  0  0
  3  4  2  0  0  0
  4  5  1  0  0  0
  5  6  1  0  0  0
  6  7  1  0  0  0
  7  8  1  0  0  0
  8  9  1  0  0  0
  9 10  1  0  0  0
 10 11  2  0  0  0
 10 12  1  0  0  0
 12 14  1  0  0  0
 14 15  2  0  0  0
 15 16  1  0  0  0
 16 17  2  0  0  0
 17 18  1  0  0  0
 17 19  1  0  0  0
 19 20  2  0  0  0
 19 21  1  0  0  0
 21 22  1  0  0  0
 21 23  1  0  0  0
  9  2  2  0  0  0
 20 14  1  0  0  0
 32 30  1  0  0  0
 37 33  1  0  0  0
  8  4  1  0  0  0
 28 29  1  0  0  0
 35 38  1  0  0  0
 12 13  1  0  0  0
M  END
> <minimizedAffinity>
-7.86699

> <CNNscore>
0.5714006424

> <CNNaffinity>
6.3993291855

> <CNN_VS>
3.6565809250

> <CNNaffinity_variance>
0.0364773199

$$$$
[H]c1c([H])c(N([H])C(=O)c2c(C([H])([H])[H])c(C(=O)C(=O)N([H])C3(c4nnn([H])c4[H])C([H])([H])C3([H])[H])c3n2C([H])([H])C([H])([H])C3([H])[H])c([H])c(C([H])(F)F)c1F


 38 42  0  0  0  0  0  0  0  0999 V2000
   37.1118  -15.2047   36.9365 C   0  0  0  0  0  0  0  0  0  0  0  0
   36.1814  -16.2614   36.4176 C   0  0  0  0  0  0  0  0  0  0  0  0
   34.9075  -15.9917   36.0097 C   0  0  0  0  0  0  0  0  0  0  0  0
   34.4336  -17.2925   35.5712 C   0  0  0  0  0  0  0  0  0  0  0  0
   33.2080  -17.9150   35.0019 C   0  0  0  0  0  0  0  0  0  0  0  0
   33.4115  -19.3557   35.5243 C   0  0  0  0  0  0  0  0  0  0  0  0
   34.9061  -19.4990   35.3016 C   0  0  0  0  0  0  0  0  0  0  0  0
   35.3779  -18.1734   35.7377 N   0  0  0  0  0  0  0  0  0  0  0  0
   36.5132  -17.5800   36.2720 C   0  0  0  0  0  0  0  0  0  0  0  0
   37.6893  -18.3654   36.4718 C   0  0  0  0  0  0  0  0  0  0  0  0
   37.5489  -19.3160   37.3823 O   0  0  0  0  0  0  0  0  0  0  0  0
   38.9492  -18.3478   35.8923 N   0  0  0  0  0  0  0  0  0  0  0  0
   39.2293  -17.6420   35.1981 H   0  0  0  0  0  0  0  0  0  0  0  0
   39.9422  -19.3377   36.2454 C   0  0  0  0  0  0  0  0  0  0  0  0
   40.4898  -19.3917   37.5277 C   0  0  0  0  0  0  0  0  0  0  0  0
   41.4664  -20.2937   37.8633 C   0  0  0  0  0  0  0  0  0  0  0  0
   41.9477  -21.1995   36.9105 C   0  0  0  0  0  0  0  0  0  0  0  0
   42.9360  -22.1001   37.2175 F   0  0  0  0  0  0  0  0  0  0  0  0
   41.4347  -21.1772   35.6427 C   0  0  0  0  0  0  0  0  0  0  0  0
   40.4499  -20.2440   35.3554 C   0  0  0  0  0  0  0  0  0  0  0  0
   41.9193  -22.1198   34.5991 C   0  0  0  0  0  0  0  0  0  0  0  0
   41.0261  -23.2041   34.6674 F   0  0  0  0  0  0  0  0  0  0  0  0
   41.7768  -21.5991   33.3280 F   0  0  0  0  0  0  0  0  0  0  0  0
   33.9685  -14.9195   36.0475 C   0  0  0  0  0  0  0  0  0  0  0  0
   33.2825  -14.6796   34.9665 O   0  0  0  0  0  0  0  0  0  0  0  0
   33.6751  -14.0093   37.1529 C   0  0  0  0  0  0  0  0  0  0  0  0
   34.3789  -14.0020   38.1667 O   0  0  0  0  0  0  0  0  0  0  0  0
   32.5445  -13.1643   36.9096 N   0  0  0  0  0  0  0  0  0  0  0  0
   32.0905  -13.2741   35.9357 H   0  0  0  0  0  0  0  0  0  0  0  0
   32.0005  -12.2065   37.7968 C   0  0  0  0  0  0  0  0  0  0  0  0
   32.8639  -11.6915   38.9277 C   0  0  0  0  0  0  0  0  0  0  0  0
   32.8041  -10.8785   37.7076 C   0  0  0  0  0  0  0  0  0  0  0  0
   30.5527  -11.9146   37.8798 C   0  0  0  0  0  0  0  0  0  0  0  0
   29.6434  -12.4119   38.8313 C   0  0  0  0  0  0  0  0  0  0  0  0
   28.4052  -11.9627   38.5602 N   0  0  0  0  0  0  0  0  0  0  0  0
   28.5036  -11.2083   37.4895 N   0  0  0  0  0  0  0  0  0  0  0  0
   29.7879  -11.1727   37.0693 N   0  0  0  0  0  0  0  0  0  0  0  0
   27.5824  -12.2118   39.1439 H   0  0  0  0  0  0  0  0  0  0  0  0
  1  2  1  0  0  0
  2  3  1  0  0  0
  3 24  1  0  0  0
 24 25  2  0  0  0
 24 26  1  0  0  0
 26 27  2  0  0  0
 26 28  1  0  0  0
 28 30  1  0  0  0
 30 31  1  0  0  0
 31 32  1  0  0  0
 30 33  1  0  0  0
 33 34  2  0  0  0
 34 35  1  0  0  0
 35 36  1  0  0  0
 36 37  2  0  0  0
  3  4  2  0  0  0
  4  5  1  0  0  0
  5  6  1  0  0  0
  6  7  1  0  0  0
  7  8  1  0  0  0
  8  9  1  0  0  0
  9 10  1  0  0  0
 10 11  2  0  0  0
 10 12  1  0  0  0
 12 14  1  0  0  0
 14 15  2  0  0  0
 15 16  1  0  0  0
 16 17  2  0  0  0
 17 18  1  0  0  0
 17 19  1  0  0  0
 19 20  2  0  0  0
 19 21  1  0  0  0
 21 22  1  0  0  0
 21 23  1  0  0  0
  9  2  2  0  0  0
 20 14  1  0  0  0
 32 30  1  0  0  0
 37 33  1  0  0  0
  8  4  1  0  0  0
 28 29  1  0  0  0
 35 38  1  0  0  0
 12 13  1  0  0  0
M  END
> <minimizedAffinity>
-7.73691

> <CNNscore>
0.4259376228

> <CNNaffinity>
6.3040952682

> <CNN_VS>
2.6851513386

> <CNNaffinity_variance>
0.0490086563

$$$$
[H]c1c([H])c(N([H])C(=O)c2c(C([H])([H])[H])c(C(=O)C(=O)N([H])C3(c4nnn([H])c4[H])C([H])([H])C3([H])[H])c3n2C([H])([H])C([H])([H])C3([H])[H])c([H])c(C([H])(F)F)c1F


 38 42  0  0  0  0  0  0  0  0999 V2000
   35.4925  -19.4268   38.5017 C   0  0  0  0  0  0  0  0  0  0  0  0
   36.3397  -19.3874   37.2639 C   0  0  0  0  0  0  0  0  0  0  0  0
   36.0870  -18.5464   36.2195 C   0  0  0  0  0  0  0  0  0  0  0  0
   37.1722  -18.8460   35.3022 C   0  0  0  0  0  0  0  0  0  0  0  0
   37.6690  -18.4252   33.9644 C   0  0  0  0  0  0  0  0  0  0  0  0
   38.3966  -19.7288   33.5629 C   0  0  0  0  0  0  0  0  0  0  0  0
   39.0320  -20.0866   34.8940 C   0  0  0  0  0  0  0  0  0  0  0  0
   37.9303  -19.7698   35.8191 N   0  0  0  0  0  0  0  0  0  0  0  0
   37.4536  -20.1550   37.0646 C   0  0  0  0  0  0  0  0  0  0  0  0
   38.1825  -21.1157   37.8300 C   0  0  0  0  0  0  0  0  0  0  0  0
   37.5453  -22.2647   37.9920 O   0  0  0  0  0  0  0  0  0  0  0  0
   39.4343  -21.0980   38.4267 N   0  0  0  0  0  0  0  0  0  0  0  0
   40.0358  -20.2633   38.4266 H   0  0  0  0  0  0  0  0  0  0  0  0
   39.9579  -22.2726   39.0875 C   0  0  0  0  0  0  0  0  0  0  0  0
   40.6421  -23.2606   38.3783 C   0  0  0  0  0  0  0  0  0  0  0  0
   41.1024  -24.4020   38.9828 C   0  0  0  0  0  0  0  0  0  0  0  0
   40.8935  -24.6088   40.3516 C   0  0  0  0  0  0  0  0  0  0  0  0
   41.3296  -25.7502   40.9754 F   0  0  0  0  0  0  0  0  0  0  0  0
   40.2272  -23.6623   41.0803 C   0  0  0  0  0  0  0  0  0  0  0  0
   39.7813  -22.5272   40.4199 C   0  0  0  0  0  0  0  0  0  0  0  0
   39.9813  -23.8431   42.5361 C   0  0  0  0  0  0  0  0  0  0  0  0
   39.1460  -22.7667   42.8846 F   0  0  0  0  0  0  0  0  0  0  0  0
   39.2477  -24.9837   42.7971 F   0  0  0  0  0  0  0  0  0  0  0  0
   35.0606  -17.6644   35.7705 C   0  0  0  0  0  0  0  0  0  0  0  0
   34.1753  -18.1406   34.9421 O   0  0  0  0  0  0  0  0  0  0  0  0
   34.8693  -16.2531   36.0995 C   0  0  0  0  0  0  0  0  0  0  0  0
   33.8826  -15.6379   35.6859 O   0  0  0  0  0  0  0  0  0  0  0  0
   35.9045  -15.7175   36.9320 N   0  0  0  0  0  0  0  0  0  0  0  0
   36.6564  -16.4276   37.2435 H   0  0  0  0  0  0  0  0  0  0  0  0
   36.0126  -14.3842   37.3914 C   0  0  0  0  0  0  0  0  0  0  0  0
   37.2485  -13.9809   38.1655 C   0  0  0  0  0  0  0  0  0  0  0  0
   37.2340  -13.6878   36.7277 C   0  0  0  0  0  0  0  0  0  0  0  0
   34.8651  -13.4518   37.4383 C   0  0  0  0  0  0  0  0  0  0  0  0
   34.6705  -12.3100   36.6396 C   0  0  0  0  0  0  0  0  0  0  0  0
   33.5348  -11.6867   37.0002 N   0  0  0  0  0  0  0  0  0  0  0  0
   33.0142  -12.3887   37.9808 N   0  0  0  0  0  0  0  0  0  0  0  0
   33.8046  -13.4504   38.2554 N   0  0  0  0  0  0  0  0  0  0  0  0
   33.2034  -10.8195   36.5336 H   0  0  0  0  0  0  0  0  0  0  0  0
  1  2  1  0  0  0
  2  3  1  0  0  0
  3 24  1  0  0  0
 24 25  2  0  0  0
 24 26  1  0  0  0
 26 27  2  0  0  0
 26 28  1  0  0  0
 28 30  1  0  0  0
 30 31  1  0  0  0
 31 32  1  0  0  0
 30 33  1  0  0  0
 33 34  2  0  0  0
 34 35  1  0  0  0
 35 36  1  0  0  0
 36 37  2  0  0  0
  3  4  2  0  0  0
  4  5  1  0  0  0
  5  6  1  0  0  0
  6  7  1  0  0  0
  7  8  1  0  0  0
  8  9  1  0  0  0
  9 10  1  0  0  0
 10 11  2  0  0  0
 10 12  1  0  0  0
 12 14  1  0  0  0
 14 15  2  0  0  0
 15 16  1  0  0  0
 16 17  2  0  0  0
 17 18  1  0  0  0
 17 19  1  0  0  0
 19 20  2  0  0  0
 19 21  1  0  0  0
 21 22  1  0  0  0
 21 23  1  0  0  0
  9  2  2  0  0  0
 20 14  1  0  0  0
 32 30  1  0  0  0
 37 33  1  0  0  0
  8  4  1  0  0  0
 28 29  1  0  0  0
 35 38  1  0  0  0
 12 13  1  0  0  0
M  END
> <minimizedAffinity>
-6.32856

> <CNNscore>
0.3388640285

> <CNNaffinity>
6.0133275986

> <CNN_VS>
2.0377004147

> <CNNaffinity_variance>
0.0255119912

$$$$
[H]c1c([H])c(N([H])C(=O)c2c(C([H])([H])[H])c(C(=O)C(=O)N([H])C3(c4nnn([H])c4[H])C([H])([H])C3([H])[H])c3n2C([H])([H])C([H])([H])C3([H])[H])c([H])c(C([H])(F)F)c1F


 38 42  0  0  0  0  0  0  0  0999 V2000
   38.2170  -20.6196   35.6422 C   0  0  0  0  0  0  0  0  0  0  0  0
   37.7993  -20.8652   37.0623 C   0  0  0  0  0  0  0  0  0  0  0  0
   38.6925  -21.0873   38.0696 C   0  0  0  0  0  0  0  0  0  0  0  0
   37.8315  -21.2295   39.2304 C   0  0  0  0  0  0  0  0  0  0  0  0
   37.9395  -21.4838   40.6924 C   0  0  0  0  0  0  0  0  0  0  0  0
   36.5564  -22.1355   40.9206 C   0  0  0  0  0  0  0  0  0  0  0  0
   35.7055  -21.2455   40.0330 C   0  0  0  0  0  0  0  0  0  0  0  0
   36.5892  -21.0969   38.8639 N   0  0  0  0  0  0  0  0  0  0  0  0
   36.5032  -20.8637   37.4982 C   0  0  0  0  0  0  0  0  0  0  0  0
   35.2262  -20.6250   36.9048 C   0  0  0  0  0  0  0  0  0  0  0  0
   34.7287  -19.4274   37.1707 O   0  0  0  0  0  0  0  0  0  0  0  0
   34.4040  -21.3875   36.0887 N   0  0  0  0  0  0  0  0  0  0  0  0
   34.6296  -22.3564   35.8262 H   0  0  0  0  0  0  0  0  0  0  0  0
   33.1714  -20.8450   35.5625 C   0  0  0  0  0  0  0  0  0  0  0  0
   33.1748  -19.8755   34.5588 C   0  0  0  0  0  0  0  0  0  0  0  0
   32.0160  -19.3175   34.0837 C   0  0  0  0  0  0  0  0  0  0  0  0
   30.7777  -19.7133   34.6032 C   0  0  0  0  0  0  0  0  0  0  0  0
   29.6058  -19.1575   34.1561 F   0  0  0  0  0  0  0  0  0  0  0  0
   30.7342  -20.6617   35.5879 C   0  0  0  0  0  0  0  0  0  0  0  0
   31.9352  -21.1927   36.0337 C   0  0  0  0  0  0  0  0  0  0  0  0
   29.4404  -21.1091   36.1697 C   0  0  0  0  0  0  0  0  0  0  0  0
   28.7374  -19.9158   36.4144 F   0  0  0  0  0  0  0  0  0  0  0  0
   28.6787  -21.8094   35.2551 F   0  0  0  0  0  0  0  0  0  0  0  0
   40.0841  -21.3486   38.2373 C   0  0  0  0  0  0  0  0  0  0  0  0
   40.4617  -22.5939   38.2959 O   0  0  0  0  0  0  0  0  0  0  0  0
   41.1765  -20.3880   38.3808 C   0  0  0  0  0  0  0  0  0  0  0  0
   41.2913  -19.7134   39.4079 O   0  0  0  0  0  0  0  0  0  0  0  0
   42.0542  -20.3510   37.2496 N   0  0  0  0  0  0  0  0  0  0  0  0
   41.8261  -21.0613   36.4684 H   0  0  0  0  0  0  0  0  0  0  0  0
   43.1776  -19.5086   37.0805 C   0  0  0  0  0  0  0  0  0  0  0  0
   44.4340  -19.8068   37.8692 C   0  0  0  0  0  0  0  0  0  0  0  0
   44.3690  -20.3181   36.4952 C   0  0  0  0  0  0  0  0  0  0  0  0
   43.1008  -18.1828   36.4288 C   0  0  0  0  0  0  0  0  0  0  0  0
   42.6279  -17.9038   35.1334 C   0  0  0  0  0  0  0  0  0  0  0  0
   42.7538  -16.5905   34.8727 N   0  0  0  0  0  0  0  0  0  0  0  0
   43.2780  -16.0417   35.9448 N   0  0  0  0  0  0  0  0  0  0  0  0
   43.4935  -16.9875   36.8862 N   0  0  0  0  0  0  0  0  0  0  0  0
   42.4613  -16.1721   33.9677 H   0  0  0  0  0  0  0  0  0  0  0  0
  1  2  1  0  0  0
  2  3  1  0  0  0
  3 24  1  0  0  0
 24 25  2  0  0  0
 24 26  1  0  0  0
 26 27  2  0  0  0
 26 28  1  0  0  0
 28 30  1  0  0  0
 30 31  1  0  0  0
 31 32  1  0  0  0
 30 33  1  0  0  0
 33 34  2  0  0  0
 34 35  1  0  0  0
 35 36  1  0  0  0
 36 37  2  0  0  0
  3  4  2  0  0  0
  4  5  1  0  0  0
  5  6  1  0  0  0
  6  7  1  0  0  0
  7  8  1  0  0  0
  8  9  1  0  0  0
  9 10  1  0  0  0
 10 11  2  0  0  0
 10 12  1  0  0  0
 12 14  1  0  0  0
 14 15  2  0  0  0
 15 16  1  0  0  0
 16 17  2  0  0  0
 17 18  1  0  0  0
 17 19  1  0  0  0
 19 20  2  0  0  0
 19 21  1  0  0  0
 21 22  1  0  0  0
 21 23  1  0  0  0
  9  2  2  0  0  0
 20 14  1  0  0  0
 32 30  1  0  0  0
 37 33  1  0  0  0
  8  4  1  0  0  0
 28 29  1  0  0  0
 35 38  1  0  0  0
 12 13  1  0  0  0
M  END
> <minimizedAffinity>
-6.40530

> <CNNscore>
0.3127282858

> <CNNaffinity>
5.5107960701

> <CNN_VS>
1.7233817577

> <CNNaffinity_variance>
0.1036305279

$$$$
[H]c1c([H])c(N([H])C(=O)c2c(C([H])([H])[H])c(C(=O)C(=O)N([H])C3(c4nnn([H])c4[H])C([H])([H])C3([H])[H])c3n2C([H])([H])C([H])([H])C3([H])[H])c([H])c(C([H])(F)F)c1F


 38 42  0  0  0  0  0  0  0  0999 V2000
   36.0053  -20.0679   34.2552 C   0  0  0  0  0  0  0  0  0  0  0  0
   35.9768  -18.7669   35.0023 C   0  0  0  0  0  0  0  0  0  0  0  0
   34.8292  -18.0605   35.2167 C   0  0  0  0  0  0  0  0  0  0  0  0
   35.2963  -16.9264   35.9941 C   0  0  0  0  0  0  0  0  0  0  0  0
   34.7559  -15.6977   36.6361 C   0  0  0  0  0  0  0  0  0  0  0  0
   36.0332  -14.8279   36.5917 C   0  0  0  0  0  0  0  0  0  0  0  0
   37.0688  -15.8768   36.9539 C   0  0  0  0  0  0  0  0  0  0  0  0
   36.5824  -17.0260   36.1710 N   0  0  0  0  0  0  0  0  0  0  0  0
   37.0732  -18.1740   35.5646 C   0  0  0  0  0  0  0  0  0  0  0  0
   38.4568  -18.5028   35.6975 C   0  0  0  0  0  0  0  0  0  0  0  0
   38.7743  -19.0116   36.8776 O   0  0  0  0  0  0  0  0  0  0  0  0
   39.5381  -18.4142   34.8336 N   0  0  0  0  0  0  0  0  0  0  0  0
   39.4637  -18.0011   33.8943 H   0  0  0  0  0  0  0  0  0  0  0  0
   40.8408  -18.9065   35.2225 C   0  0  0  0  0  0  0  0  0  0  0  0
   41.3002  -20.1554   34.8025 C   0  0  0  0  0  0  0  0  0  0  0  0
   42.5128  -20.6554   35.2020 C   0  0  0  0  0  0  0  0  0  0  0  0
   43.3354  -19.9123   36.0570 C   0  0  0  0  0  0  0  0  0  0  0  0
   44.5451  -20.3983   36.4840 F   0  0  0  0  0  0  0  0  0  0  0  0
   42.9191  -18.6831   36.4895 C   0  0  0  0  0  0  0  0  0  0  0  0
   41.6837  -18.2249   36.0568 C   0  0  0  0  0  0  0  0  0  0  0  0
   43.7604  -17.8617   37.4005 C   0  0  0  0  0  0  0  0  0  0  0  0
   43.3433  -16.5398   37.1624 F   0  0  0  0  0  0  0  0  0  0  0  0
   43.4748  -18.1090   38.7288 F   0  0  0  0  0  0  0  0  0  0  0  0
   33.4693  -18.0587   34.7880 C   0  0  0  0  0  0  0  0  0  0  0  0
   33.1076  -17.1462   33.9316 O   0  0  0  0  0  0  0  0  0  0  0  0
   32.3860  -18.9474   35.2041 C   0  0  0  0  0  0  0  0  0  0  0  0
   31.4099  -18.5065   35.8173 O   0  0  0  0  0  0  0  0  0  0  0  0
   32.5853  -20.3103   34.8113 N   0  0  0  0  0  0  0  0  0  0  0  0
   33.4742  -20.4938   34.2258 H   0  0  0  0  0  0  0  0  0  0  0  0
   31.7318  -21.4026   35.0918 C   0  0  0  0  0  0  0  0  0  0  0  0
   31.8521  -22.6533   34.2486 C   0  0  0  0  0  0  0  0  0  0  0  0
   32.5699  -22.6371   35.5285 C   0  0  0  0  0  0  0  0  0  0  0  0
   30.5257  -21.2866   35.9406 C   0  0  0  0  0  0  0  0  0  0  0  0
   29.2148  -21.0073   35.5129 C   0  0  0  0  0  0  0  0  0  0  0  0
   28.3921  -20.9355   36.5742 N   0  0  0  0  0  0  0  0  0  0  0  0
   29.1286  -21.1606   37.6382 N   0  0  0  0  0  0  0  0  0  0  0  0
   30.4127  -21.3708   37.2719 N   0  0  0  0  0  0  0  0  0  0  0  0
   27.3763  -20.7389   36.4788 H   0  0  0  0  0  0  0  0  0  0  0  0
  1  2  1  0  0  0
  2  3  1  0  0  0
  3 24  1  0  0  0
 24 25  2  0  0  0
 24 26  1  0  0  0
 26 27  2  0  0  0
 26 28  1  0  0  0
 28 30  1  0  0  0
 30 31  1  0  0  0
 31 32  1  0  0  0
 30 33  1  0  0  0
 33 34  2  0  0  0
 34 35  1  0  0  0
 35 36  1  0  0  0
 36 37  2  0  0  0
  3  4  2  0  0  0
  4  5  1  0  0  0
  5  6  1  0  0  0
  6  7  1  0  0  0
  7  8  1  0  0  0
  8  9  1  0  0  0
  9 10  1  0  0  0
 10 11  2  0  0  0
 10 12  1  0  0  0
 12 14  1  0  0  0
 14 15  2  0  0  0
 15 16  1  0  0  0
 16 17  2  0  0  0
 17 18  1  0  0  0
 17 19  1  0  0  0
 19 20  2  0  0  0
 19 21  1  0  0  0
 21 22  1  0  0  0
 21 23  1  0  0  0
  9  2  2  0  0  0
 20 14  1  0  0  0
 32 30  1  0  0  0
 37 33  1  0  0  0
  8  4  1  0  0  0
 28 29  1  0  0  0
 35 38  1  0  0  0
 12 13  1  0  0  0
M  END
> <minimizedAffinity>
-6.66855

> <CNNscore>
0.2805362940

> <CNNaffinity>
5.7044973373

> <CNN_VS>
1.6003185511

> <CNNaffinity_variance>
0.0693762824

$$$$
[H]c1c([H])c(N([H])C(=O)c2c(C([H])([H])[H])c(C(=O)C(=O)N([H])C3(c4nnn([H])c4[H])C([H])([H])C3([H])[H])c3n2C([H])([H])C([H])([H])C3([H])[H])c([H])c(C([H])(F)F)c1F


 38 42  0  0  0  0  0  0  0  0999 V2000
   33.5590  -16.8181   35.2956 C   0  0  0  0  0  0  0  0  0  0  0  0
   34.5979  -15.9461   35.9374 C   0  0  0  0  0  0  0  0  0  0  0  0
   34.3102  -14.7276   36.4800 C   0  0  0  0  0  0  0  0  0  0  0  0
   35.5983  -14.2988   36.9957 C   0  0  0  0  0  0  0  0  0  0  0  0
   36.1997  -13.1415   37.7117 C   0  0  0  0  0  0  0  0  0  0  0  0
   37.6521  -13.2771   37.1997 C   0  0  0  0  0  0  0  0  0  0  0  0
   37.8025  -14.7864   37.2563 C   0  0  0  0  0  0  0  0  0  0  0  0
   36.4896  -15.2135   36.7427 N   0  0  0  0  0  0  0  0  0  0  0  0
   35.9159  -16.2849   36.0721 C   0  0  0  0  0  0  0  0  0  0  0  0
   36.7142  -17.4268   35.7580 C   0  0  0  0  0  0  0  0  0  0  0  0
   36.6455  -17.7940   34.4880 O   0  0  0  0  0  0  0  0  0  0  0  0
   37.5646  -18.2233   36.5102 N   0  0  0  0  0  0  0  0  0  0  0  0
   37.6933  -18.0935   37.5227 H   0  0  0  0  0  0  0  0  0  0  0  0
   38.3203  -19.2907   35.8937 C   0  0  0  0  0  0  0  0  0  0  0  0
   38.0103  -20.6306   36.1303 C   0  0  0  0  0  0  0  0  0  0  0  0
   38.7475  -21.6531   35.5908 C   0  0  0  0  0  0  0  0  0  0  0  0
   39.8498  -21.3736   34.7743 C   0  0  0  0  0  0  0  0  0  0  0  0
   40.6128  -22.3791   34.2368 F   0  0  0  0  0  0  0  0  0  0  0  0
   40.1844  -20.0721   34.5191 C   0  0  0  0  0  0  0  0  0  0  0  0
   39.4068  -19.0761   35.0907 C   0  0  0  0  0  0  0  0  0  0  0  0
   41.3493  -19.7306   33.6595 C   0  0  0  0  0  0  0  0  0  0  0  0
   40.9507  -20.1111   32.3656 F   0  0  0  0  0  0  0  0  0  0  0  0
   41.5625  -18.3676   33.5981 F   0  0  0  0  0  0  0  0  0  0  0  0
   33.2317  -13.7962   36.5256 C   0  0  0  0  0  0  0  0  0  0  0  0
   32.7411  -13.3847   35.3912 O   0  0  0  0  0  0  0  0  0  0  0  0
   32.5955  -13.2019   37.6998 C   0  0  0  0  0  0  0  0  0  0  0  0
   33.1922  -13.1451   38.7786 O   0  0  0  0  0  0  0  0  0  0  0  0
   31.2766  -12.7060   37.4427 N   0  0  0  0  0  0  0  0  0  0  0  0
   30.9460  -12.7910   36.4179 H   0  0  0  0  0  0  0  0  0  0  0  0
   30.4028  -12.1073   38.3799 C   0  0  0  0  0  0  0  0  0  0  0  0
   30.2450  -10.6025   38.3672 C   0  0  0  0  0  0  0  0  0  0  0  0
   29.2395  -11.3871   37.6415 C   0  0  0  0  0  0  0  0  0  0  0  0
   29.8814  -12.8204   39.5665 C   0  0  0  0  0  0  0  0  0  0  0  0
   30.3970  -12.7739   40.8747 C   0  0  0  0  0  0  0  0  0  0  0  0
   29.6875  -13.5881   41.6760 N   0  0  0  0  0  0  0  0  0  0  0  0
   28.7551  -14.1338   40.9290 N   0  0  0  0  0  0  0  0  0  0  0  0
   28.8617  -13.6830   39.6591 N   0  0  0  0  0  0  0  0  0  0  0  0
   29.9026  -13.7008   42.6863 H   0  0  0  0  0  0  0  0  0  0  0  0
  1  2  1  0  0  0
  2  3  1  0  0  0
  3 24  1  0  0  0
 24 25  2  0  0  0
 24 26  1  0  0  0
 26 27  2  0  0  0
 26 28  1  0  0  0
 28 30  1  0  0  0
 30 31  1  0  0  0
 31 32  1  0  0  0
 30 33  1  0  0  0
 33 34  2  0  0  0
 34 35  1  0  0  0
 35 36  1  0  0  0
 36 37  2  0  0  0
  3  4  2  0  0  0
  4  5  1  0  0  0
  5  6  1  0  0  0
  6  7  1  0  0  0
  7  8  1  0  0  0
  8  9  1  0  0  0
  9 10  1  0  0  0
 10 11  2  0  0  0
 10 12  1  0  0  0
 12 14  1  0  0  0
 14 15  2  0  0  0
 15 16  1  0  0  0
 16 17  2  0  0  0
 17 18  1  0  0  0
 17 19  1  0  0  0
 19 20  2  0  0  0
 19 21  1  0  0  0
 21 22  1  0  0  0
 21 23  1  0  0  0
  9  2  2  0  0  0
 20 14  1  0  0  0
 32 30  1  0  0  0
 37 33  1  0  0  0
  8  4  1  0  0  0
 28 29  1  0  0  0
 35 38  1  0  0  0
 12 13  1  0  0  0
M  END
> <minimizedAffinity>
-7.69824

> <CNNscore>
0.2706285119

> <CNNaffinity>
6.1054115295

> <CNN_VS>
1.6522984505

> <CNNaffinity_variance>
0.0153039005

$$$$
[H]c1c([H])c(N([H])C(=O)c2c(C([H])([H])[H])c(C(=O)C(=O)N([H])C3(c4nnn([H])c4[H])C([H])([H])C3([H])[H])c3n2C([H])([H])C([H])([H])C3([H])[H])c([H])c(C([H])(F)F)c1F


 38 42  0  0  0  0  0  0  0  0999 V2000
   37.1035  -15.2264   36.9222 C   0  0  0  0  0  0  0  0  0  0  0  0
   36.1572  -16.3221   36.5279 C   0  0  0  0  0  0  0  0  0  0  0  0
   34.8792  -16.0840   36.1132 C   0  0  0  0  0  0  0  0  0  0  0  0
   34.3887  -17.4184   35.8172 C   0  0  0  0  0  0  0  0  0  0  0  0
   33.1497  -18.0847   35.3326 C   0  0  0  0  0  0  0  0  0  0  0  0
   33.3504  -19.4662   35.9967 C   0  0  0  0  0  0  0  0  0  0  0  0
   34.8402  -19.6451   35.7680 C   0  0  0  0  0  0  0  0  0  0  0  0
   35.3287  -18.2862   36.0591 N   0  0  0  0  0  0  0  0  0  0  0  0
   36.4767  -17.6517   36.5133 C   0  0  0  0  0  0  0  0  0  0  0  0
   37.6497  -18.4232   36.7752 C   0  0  0  0  0  0  0  0  0  0  0  0
   37.4704  -19.3813   37.6710 O   0  0  0  0  0  0  0  0  0  0  0  0
   38.9402  -18.3859   36.2684 N   0  0  0  0  0  0  0  0  0  0  0  0
   39.2500  -17.6722   35.5952 H   0  0  0  0  0  0  0  0  0  0  0  0
   39.9244  -19.3652   36.6718 C   0  0  0  0  0  0  0  0  0  0  0  0
   39.9262  -20.6550   36.1392 C   0  0  0  0  0  0  0  0  0  0  0  0
   40.8233  -21.6082   36.5472 C   0  0  0  0  0  0  0  0  0  0  0  0
   41.7773  -21.3062   37.5263 C   0  0  0  0  0  0  0  0  0  0  0  0
   42.6744  -22.2479   37.9629 F   0  0  0  0  0  0  0  0  0  0  0  0
   41.8069  -20.0521   38.0715 C   0  0  0  0  0  0  0  0  0  0  0  0
   40.8764  -19.1260   37.6246 C   0  0  0  0  0  0  0  0  0  0  0  0
   42.8019  -19.6897   39.1161 C   0  0  0  0  0  0  0  0  0  0  0  0
   43.8545  -19.0904   38.4015 F   0  0  0  0  0  0  0  0  0  0  0  0
   42.3240  -18.7115   39.9658 F   0  0  0  0  0  0  0  0  0  0  0  0
   33.9490  -15.0050   36.0547 C   0  0  0  0  0  0  0  0  0  0  0  0
   33.2094  -14.9028   34.9873 O   0  0  0  0  0  0  0  0  0  0  0  0
   33.7178  -13.9522   37.0420 C   0  0  0  0  0  0  0  0  0  0  0  0
   34.5904  -13.6556   37.8628 O   0  0  0  0  0  0  0  0  0  0  0  0
   32.4310  -13.3342   36.9243 N   0  0  0  0  0  0  0  0  0  0  0  0
   31.8253  -13.6882   36.1031 H   0  0  0  0  0  0  0  0  0  0  0  0
   31.9077  -12.3113   37.7490 C   0  0  0  0  0  0  0  0  0  0  0  0
   30.6781  -12.6065   38.5801 C   0  0  0  0  0  0  0  0  0  0  0  0
   31.9811  -12.7388   39.2421 C   0  0  0  0  0  0  0  0  0  0  0  0
   32.2922  -10.8894   37.6126 C   0  0  0  0  0  0  0  0  0  0  0  0
   31.4358   -9.8031   37.3560 C   0  0  0  0  0  0  0  0  0  0  0  0
   32.1517   -8.6693   37.2542 N   0  0  0  0  0  0  0  0  0  0  0  0
   33.4095   -8.9995   37.4391 N   0  0  0  0  0  0  0  0  0  0  0  0
   33.5081  -10.3306   37.6531 N   0  0  0  0  0  0  0  0  0  0  0  0
   31.7106   -7.7472   37.0673 H   0  0  0  0  0  0  0  0  0  0  0  0
  1  2  1  0  0  0
  2  3  1  0  0  0
  3 24  1  0  0  0
 24 25  2  0  0  0
 24 26  1  0  0  0
 26 27  2  0  0  0
 26 28  1  0  0  0
 28 30  1  0  0  0
 30 31  1  0  0  0
 31 32  1  0  0  0
 30 33  1  0  0  0
 33 34  2  0  0  0
 34 35  1  0  0  0
 35 36  1  0  0  0
 36 37  2  0  0  0
  3  4  2  0  0  0
  4  5  1  0  0  0
  5  6  1  0  0  0
  6  7  1  0  0  0
  7  8  1  0  0  0
  8  9  1  0  0  0
  9 10  1  0  0  0
 10 11  2  0  0  0
 10 12  1  0  0  0
 12 14  1  0  0  0
 14 15  2  0  0  0
 15 16  1  0  0  0
 16 17  2  0  0  0
 17 18  1  0  0  0
 17 19  1  0  0  0
 19 20  2  0  0  0
 19 21  1  0  0  0
 21 22  1  0  0  0
 21 23  1  0  0  0
  9  2  2  0  0  0
 20 14  1  0  0  0
 32 30  1  0  0  0
 37 33  1  0  0  0
  8  4  1  0  0  0
 28 29  1  0  0  0
 35 38  1  0  0  0
 12 13  1  0  0  0
M  END
> <minimizedAffinity>
-7.89846

> <CNNscore>
0.2218927592

> <CNNaffinity>
6.2830781937

> <CNN_VS>
1.3941695690

> <CNNaffinity_variance>
0.0478570946

$$$$
[H]c1c([H])c(N([H])C(=O)c2c(C([H])([H])[H])c(C(=O)C(=O)N([H])C3(c4nnn([H])c4[H])C([H])([H])C3([H])[H])c3n2C([H])([H])C([H])([H])C3([H])[H])c([H])c(C([H])(F)F)c1F


 38 42  0  0  0  0  0  0  0  0999 V2000
   37.6343  -16.9027   36.8670 C   0  0  0  0  0  0  0  0  0  0  0  0
   36.3546  -17.4664   36.3227 C   0  0  0  0  0  0  0  0  0  0  0  0
   36.2147  -18.7757   35.9649 C   0  0  0  0  0  0  0  0  0  0  0  0
   34.8263  -18.8422   35.5444 C   0  0  0  0  0  0  0  0  0  0  0  0
   33.8523  -19.8355   35.0167 C   0  0  0  0  0  0  0  0  0  0  0  0
   32.9238  -18.8684   34.2469 C   0  0  0  0  0  0  0  0  0  0  0  0
   32.8743  -17.7196   35.2376 C   0  0  0  0  0  0  0  0  0  0  0  0
   34.2823  -17.6657   35.6674 N   0  0  0  0  0  0  0  0  0  0  0  0
   35.2023  -16.7489   36.1571 C   0  0  0  0  0  0  0  0  0  0  0  0
   34.7854  -15.4096   36.4261 C   0  0  0  0  0  0  0  0  0  0  0  0
   33.8333  -14.9734   35.6164 O   0  0  0  0  0  0  0  0  0  0  0  0
   35.1630  -14.4735   37.3772 N   0  0  0  0  0  0  0  0  0  0  0  0
   35.9202  -14.6448   38.0523 H   0  0  0  0  0  0  0  0  0  0  0  0
   34.4976  -13.1926   37.4626 C   0  0  0  0  0  0  0  0  0  0  0  0
   33.3402  -13.0248   38.2238 C   0  0  0  0  0  0  0  0  0  0  0  0
   32.6720  -11.8287   38.2760 C   0  0  0  0  0  0  0  0  0  0  0  0
   33.1424  -10.7256   37.5536 C   0  0  0  0  0  0  0  0  0  0  0  0
   32.4819   -9.5235   37.5764 F   0  0  0  0  0  0  0  0  0  0  0  0
   34.2745  -10.8515   36.7963 C   0  0  0  0  0  0  0  0  0  0  0  0
   34.9111  -12.0834   36.7771 C   0  0  0  0  0  0  0  0  0  0  0  0
   34.8072   -9.7059   36.0112 C   0  0  0  0  0  0  0  0  0  0  0  0
   35.0033   -8.6913   36.9651 F   0  0  0  0  0  0  0  0  0  0  0  0
   36.0578   -9.9749   35.4908 F   0  0  0  0  0  0  0  0  0  0  0  0
   37.0267  -19.9304   35.7643 C   0  0  0  0  0  0  0  0  0  0  0  0
   37.7161  -19.9992   34.6612 O   0  0  0  0  0  0  0  0  0  0  0  0
   37.1812  -21.0933   36.6363 C   0  0  0  0  0  0  0  0  0  0  0  0
   36.8638  -21.0340   37.8274 O   0  0  0  0  0  0  0  0  0  0  0  0
   37.6983  -22.2460   35.9615 N   0  0  0  0  0  0  0  0  0  0  0  0
   37.8600  -22.1227   34.9007 H   0  0  0  0  0  0  0  0  0  0  0  0
   37.9833  -23.5049   36.5396 C   0  0  0  0  0  0  0  0  0  0  0  0
   37.0076  -24.6410   36.3232 C   0  0  0  0  0  0  0  0  0  0  0  0
   38.1674  -24.5746   35.4265 C   0  0  0  0  0  0  0  0  0  0  0  0
   39.0022  -23.6956   37.5951 C   0  0  0  0  0  0  0  0  0  0  0  0
   40.3963  -23.7686   37.4208 C   0  0  0  0  0  0  0  0  0  0  0  0
   40.9948  -23.9929   38.6040 N   0  0  0  0  0  0  0  0  0  0  0  0
   40.0398  -24.0586   39.5034 N   0  0  0  0  0  0  0  0  0  0  0  0
   38.8377  -23.8840   38.9103 N   0  0  0  0  0  0  0  0  0  0  0  0
   42.0259  -24.0798   38.6987 H   0  0  0  0  0  0  0  0  0  0  0  0
  1  2  1  0  0  0
  2  3  1  0  0  0
  3 24  1  0  0  0
 24 25  2  0  0  0
 24 26  1  0  0  0
 26 27  2  0  0  0
 26 28  1  0  0  0
 28 30  1  0  0  0
 30 31  1  0  0  0
 31 32  1  0  0  0
 30 33  1  0  0  0
 33 34  2  0  0  0
 34 35  1  0  0  0
 35 36  1  0  0  0
 36 37  2  0  0  0
  3  4  2  0  0  0
  4  5  1  0  0  0
  5  6  1  0  0  0
  6  7  1  0  0  0
  7  8  1  0  0  0
  8  9  1  0  0  0
  9 10  1  0  0  0
 10 11  2  0  0  0
 10 12  1  0  0  0
 12 14  1  0  0  0
 14 15  2  0  0  0
 15 16  1  0  0  0
 16 17  2  0  0  0
 17 18  1  0  0  0
 17 19  1  0  0  0
 19 20  2  0  0  0
 19 21  1  0  0  0
 21 22  1  0  0  0
 21 23  1  0  0  0
  9  2  2  0  0  0
 20 14  1  0  0  0
 32 30  1  0  0  0
 37 33  1  0  0  0
  8  4  1  0  0  0
 28 29  1  0  0  0
 35 38  1  0  0  0
 12 13  1  0  0  0
M  END
> <minimizedAffinity>
-6.58704

> <CNNscore>
0.1990630925

> <CNNaffinity>
5.6536693573

> <CNN_VS>
1.1254369020

> <CNNaffinity_variance>
0.0895441994

$$$$
[H]c1c([H])c(N([H])C(=O)c2c(C([H])([H])[H])c(C(=O)C(=O)N([H])C3(c4nnn([H])c4[H])C([H])([H])C3([H])[H])c3n2C([H])([H])C([H])([H])C3([H])[H])c([H])c(C([H])(F)F)c1F


 38 42  0  0  0  0  0  0  0  0999 V2000
   34.5692  -19.8553   37.4230 C   0  0  0  0  0  0  0  0  0  0  0  0
   36.0602  -19.8651   37.2545 C   0  0  0  0  0  0  0  0  0  0  0  0
   36.7979  -21.0130   37.2501 C   0  0  0  0  0  0  0  0  0  0  0  0
   38.1460  -20.5220   37.0260 C   0  0  0  0  0  0  0  0  0  0  0  0
   39.5308  -21.0477   36.8852 C   0  0  0  0  0  0  0  0  0  0  0  0
   40.3061  -19.8014   37.3705 C   0  0  0  0  0  0  0  0  0  0  0  0
   39.4842  -18.7139   36.7029 C   0  0  0  0  0  0  0  0  0  0  0  0
   38.1202  -19.2242   36.9244 N   0  0  0  0  0  0  0  0  0  0  0  0
   36.8238  -18.7474   37.0609 C   0  0  0  0  0  0  0  0  0  0  0  0
   36.5699  -17.3493   36.9161 C   0  0  0  0  0  0  0  0  0  0  0  0
   36.3897  -16.9659   35.6620 O   0  0  0  0  0  0  0  0  0  0  0  0
   36.4556  -16.3087   37.8258 N   0  0  0  0  0  0  0  0  0  0  0  0
   36.6108  -16.4361   38.8348 H   0  0  0  0  0  0  0  0  0  0  0  0
   36.1081  -14.9752   37.3879 C   0  0  0  0  0  0  0  0  0  0  0  0
   37.0729  -14.1016   36.8848 C   0  0  0  0  0  0  0  0  0  0  0  0
   36.7667  -12.8186   36.5105 C   0  0  0  0  0  0  0  0  0  0  0  0
   35.4547  -12.3440   36.6260 C   0  0  0  0  0  0  0  0  0  0  0  0
   35.1271  -11.0592   36.2740 F   0  0  0  0  0  0  0  0  0  0  0  0
   34.4813  -13.1715   37.1146 C   0  0  0  0  0  0  0  0  0  0  0  0
   34.8447  -14.4590   37.4800 C   0  0  0  0  0  0  0  0  0  0  0  0
   33.0754  -12.7071   37.2564 C   0  0  0  0  0  0  0  0  0  0  0  0
   32.5158  -13.5768   38.2095 F   0  0  0  0  0  0  0  0  0  0  0  0
   33.0030  -11.4461   37.8147 F   0  0  0  0  0  0  0  0  0  0  0  0
   36.6340  -22.4000   37.5373 C   0  0  0  0  0  0  0  0  0  0  0  0
   37.0172  -23.2534   36.6310 O   0  0  0  0  0  0  0  0  0  0  0  0
   36.0580  -23.0173   38.7305 C   0  0  0  0  0  0  0  0  0  0  0  0
   35.6422  -24.1789   38.7006 O   0  0  0  0  0  0  0  0  0  0  0  0
   36.0593  -22.1552   39.8743 N   0  0  0  0  0  0  0  0  0  0  0  0
   36.5223  -21.1913   39.7220 H   0  0  0  0  0  0  0  0  0  0  0  0
   35.5459  -22.4553   41.1576 C   0  0  0  0  0  0  0  0  0  0  0  0
   36.4966  -22.9642   42.2191 C   0  0  0  0  0  0  0  0  0  0  0  0
   36.1955  -21.5280   42.2231 C   0  0  0  0  0  0  0  0  0  0  0  0
   34.1002  -22.6042   41.4334 C   0  0  0  0  0  0  0  0  0  0  0  0
   33.4812  -23.6328   42.1671 C   0  0  0  0  0  0  0  0  0  0  0  0
   32.1479  -23.4575   42.1666 N   0  0  0  0  0  0  0  0  0  0  0  0
   31.9109  -22.3684   41.4716 N   0  0  0  0  0  0  0  0  0  0  0  0
   33.0749  -21.8472   41.0235 N   0  0  0  0  0  0  0  0  0  0  0  0
   31.5007  -24.1079   42.6543 H   0  0  0  0  0  0  0  0  0  0  0  0
  1  2  1  0  0  0
  2  3  1  0  0  0
  3 24  1  0  0  0
 24 25  2  0  0  0
 24 26  1  0  0  0
 26 27  2  0  0  0
 26 28  1  0  0  0
 28 30  1  0  0  0
 30 31  1  0  0  0
 31 32  1  0  0  0
 30 33  1  0  0  0
 33 34  2  0  0  0
 34 35  1  0  0  0
 35 36  1  0  0  0
 36 37  2  0  0  0
  3  4  2  0  0  0
  4  5  1  0  0  0
  5  6  1  0  0  0
  6  7  1  0  0  0
  7  8  1  0  0  0
  8  9  1  0  0  0
  9 10  1  0  0  0
 10 11  2  0  0  0
 10 12  1  0  0  0
 12 14  1  0  0  0
 14 15  2  0  0  0
 15 16  1  0  0  0
 16 17  2  0  0  0
 17 18  1  0  0  0
 17 19  1  0  0  0
 19 20  2  0  0  0
 19 21  1  0  0  0
 21 22  1  0  0  0
 21 23  1  0  0  0
  9  2  2  0  0  0
 20 14  1  0  0  0
 32 30  1  0  0  0
 37 33  1  0  0  0
  8  4  1  0  0  0
 28 29  1  0  0  0
 35 38  1  0  0  0
 12 13  1  0  0  0
M  END
> <minimizedAffinity>
-6.23159

> <CNNscore>
0.1854352355

> <CNNaffinity>
5.5914425850

> <CNN_VS>
1.0368504524

> <CNNaffinity_variance>
0.1384663433

$$$$
[H]c1nc(N2C([H])([H])C([H])([H])c3nc(-c4c([H])c([H])c([H])c([H])c4[H])nc(N([H])c4c([H])c([H])c(C(F)(F)F)c([H])c4[H])c3C([H])([H])C2([H])[H])c(C(F)(F)F)c([H])c1[H]


 39 43  0  0  0  0  0  0  0  0999 V2000
   36.8928  -20.3268   37.3616 C   0  0  0  0  0  0  0  0  0  0  0  0
   36.1661  -19.9610   38.4570 N   0  0  0  0  0  0  0  0  0  0  0  0
   35.8258  -20.8130   39.4284 C   0  0  0  0  0  0  0  0  0  0  0  0
   36.2447  -22.1001   39.3032 N   0  0  0  0  0  0  0  0  0  0  0  0
   36.9714  -22.5449   38.2369 C   0  0  0  0  0  0  0  0  0  0  0  0
   37.4349  -23.9176   38.3990 C   0  0  0  0  0  0  0  0  0  0  0  0
   38.2479  -24.5031   37.3256 C   0  0  0  0  0  0  0  0  0  0  0  0
   39.2606  -23.8319   36.6107 N   0  0  0  0  0  0  0  0  0  0  0  0
   39.2490  -22.4646   35.9663 C   0  0  0  0  0  0  0  0  0  0  0  0
   37.8535  -22.0180   35.9083 C   0  0  0  0  0  0  0  0  0  0  0  0
   37.2854  -21.6463   37.2547 C   0  0  0  0  0  0  0  0  0  0  0  0
   40.5551  -24.3562   36.3416 C   0  0  0  0  0  0  0  0  0  0  0  0
   40.6149  -25.2281   35.2587 N   0  0  0  0  0  0  0  0  0  0  0  0
   41.7455  -25.8682   34.9313 C   0  0  0  0  0  0  0  0  0  0  0  0
   42.8920  -25.6658   35.6732 C   0  0  0  0  0  0  0  0  0  0  0  0
   42.8517  -24.8095   36.7377 C   0  0  0  0  0  0  0  0  0  0  0  0
   41.6588  -24.1351   37.0869 C   0  0  0  0  0  0  0  0  0  0  0  0
   41.7269  -23.2355   38.2392 C   0  0  0  0  0  0  0  0  0  0  0  0
   40.8100  -23.5092   39.2428 F   0  0  0  0  0  0  0  0  0  0  0  0
   41.8605  -21.9078   37.9803 F   0  0  0  0  0  0  0  0  0  0  0  0
   42.9562  -23.5424   38.9259 F   0  0  0  0  0  0  0  0  0  0  0  0
   34.9314  -20.4764   40.5349 C   0  0  0  0  0  0  0  0  0  0  0  0
   35.0688  -19.3435   41.2987 C   0  0  0  0  0  0  0  0  0  0  0  0
   34.1728  -19.0708   42.3453 C   0  0  0  0  0  0  0  0  0  0  0  0
   33.1310  -19.9167   42.6425 C   0  0  0  0  0  0  0  0  0  0  0  0
   32.9815  -21.0645   41.8801 C   0  0  0  0  0  0  0  0  0  0  0  0
   33.8725  -21.2939   40.8752 C   0  0  0  0  0  0  0  0  0  0  0  0
   37.3737  -19.4503   36.4073 N   0  0  0  0  0  0  0  0  0  0  0  0
   36.6964  -18.9872   35.7123 H   0  0  0  0  0  0  0  0  0  0  0  0
   41.4399  -18.5148   35.6800 C   0  0  0  0  0  0  0  0  0  0  0  0
   40.8967  -18.4032   36.9303 C   0  0  0  0  0  0  0  0  0  0  0  0
   39.5413  -18.6722   37.1566 C   0  0  0  0  0  0  0  0  0  0  0  0
   38.7046  -19.0612   36.1235 C   0  0  0  0  0  0  0  0  0  0  0  0
   39.2608  -19.1595   34.8718 C   0  0  0  0  0  0  0  0  0  0  0  0
   40.6033  -18.8939   34.6553 C   0  0  0  0  0  0  0  0  0  0  0  0
   43.3953  -18.9284   34.3527 F   0  0  0  0  0  0  0  0  0  0  0  0
   42.9180  -18.2917   35.4636 C   0  0  0  0  0  0  0  0  0  0  0  0
   43.6084  -18.5681   36.6212 F   0  0  0  0  0  0  0  0  0  0  0  0
   43.1177  -16.9140   35.2249 F   0  0  0  0  0  0  0  0  0  0  0  0
 36 37  1  0  0  0
 37 38  1  0  0  0
 37 39  1  0  0  0
 37 30  1  0  0  0
 30 31  2  0  0  0
 31 32  1  0  0  0
 32 33  2  0  0  0
 33 28  1  0  0  0
 28  1  1  0  0  0
  1  2  2  0  0  0
  2  3  1  0  0  0
  3  4  2  0  0  0
  4  5  1  0  0  0
  5  6  1  0  0  0
  6  7  1  0  0  0
  7  8  1  0  0  0
  8  9  1  0  0  0
  9 10  1  0  0  0
 10 11  1  0  0  0
  8 12  1  0  0  0
 12 13  2  0  0  0
 13 14  1  0  0  0
 14 15  2  0  0  0
 15 16  1  0  0  0
 16 17  2  0  0  0
 17 18  1  0  0  0
 18 19  1  0  0  0
 18 20  1  0  0  0
 18 21  1  0  0  0
  3 22  1  0  0  0
 22 23  2  0  0  0
 23 24  1  0  0  0
 24 25  2  0  0  0
 25 26  1  0  0  0
 26 27  2  0  0  0
 33 34  1  0  0  0
 34 35  2  0  0  0
 35 30  1  0  0  0
 11  1  1  0  0  0
 17 12  1  0  0  0
 27 22  1  0  0  0
 11  5  2  0  0  0
 28 29  1  0  0  0
M  END
> <minimizedAffinity>
-3.28051

> <CNNscore>
0.4269082546

> <CNNaffinity>
6.8579187393

> <CNN_VS>
2.9277021885

> <CNNaffinity_variance>
3.3700931072

$$$$
[H]c1nc(N2C([H])([H])C([H])([H])c3nc(-c4c([H])c([H])c([H])c([H])c4[H])nc(N([H])c4c([H])c([H])c(C(F)(F)F)c([H])c4[H])c3C([H])([H])C2([H])[H])c(C(F)(F)F)c([H])c1[H]


 39 43  0  0  0  0  0  0  0  0999 V2000
   36.6802  -17.9396   35.0107 C   0  0  0  0  0  0  0  0  0  0  0  0
   36.4322  -17.3956   33.7843 N   0  0  0  0  0  0  0  0  0  0  0  0
   37.3012  -17.4468   32.7706 C   0  0  0  0  0  0  0  0  0  0  0  0
   38.4795  -18.0873   32.9921 N   0  0  0  0  0  0  0  0  0  0  0  0
   38.8039  -18.6537   34.1908 C   0  0  0  0  0  0  0  0  0  0  0  0
   40.0469  -19.4139   34.1414 C   0  0  0  0  0  0  0  0  0  0  0  0
   40.4916  -20.0905   35.3664 C   0  0  0  0  0  0  0  0  0  0  0  0
   39.6535  -20.7726   36.2716 N   0  0  0  0  0  0  0  0  0  0  0  0
   38.3406  -20.3460   36.8873 C   0  0  0  0  0  0  0  0  0  0  0  0
   38.1899  -18.9071   36.6478 C   0  0  0  0  0  0  0  0  0  0  0  0
   37.8950  -18.5655   35.2091 C   0  0  0  0  0  0  0  0  0  0  0  0
   39.9122  -22.0633   36.8105 C   0  0  0  0  0  0  0  0  0  0  0  0
   39.2697  -23.1070   36.1516 N   0  0  0  0  0  0  0  0  0  0  0  0
   39.3468  -24.3706   36.5903 C   0  0  0  0  0  0  0  0  0  0  0  0
   40.0827  -24.6642   37.7210 C   0  0  0  0  0  0  0  0  0  0  0  0
   40.7234  -23.6513   38.3778 C   0  0  0  0  0  0  0  0  0  0  0  0
   40.6409  -22.3164   37.9183 C   0  0  0  0  0  0  0  0  0  0  0  0
   41.3707  -21.3103   38.6909 C   0  0  0  0  0  0  0  0  0  0  0  0
   40.5676  -20.4017   39.3635 F   0  0  0  0  0  0  0  0  0  0  0  0
   42.4500  -20.7367   38.0960 F   0  0  0  0  0  0  0  0  0  0  0  0
   41.9636  -22.0023   39.8073 F   0  0  0  0  0  0  0  0  0  0  0  0
   37.1155  -16.7507   31.4985 C   0  0  0  0  0  0  0  0  0  0  0  0
   35.9276  -16.7415   30.8095 C   0  0  0  0  0  0  0  0  0  0  0  0
   35.8088  -16.0481   29.5938 C   0  0  0  0  0  0  0  0  0  0  0  0
   36.8648  -15.3552   29.0517 C   0  0  0  0  0  0  0  0  0  0  0  0
   38.0699  -15.3574   29.7364 C   0  0  0  0  0  0  0  0  0  0  0  0
   38.1451  -16.0434   30.9111 C   0  0  0  0  0  0  0  0  0  0  0  0
   35.7579  -18.0213   36.0369 N   0  0  0  0  0  0  0  0  0  0  0  0
   35.9745  -17.5763   36.9915 H   0  0  0  0  0  0  0  0  0  0  0  0
   32.0306  -20.0276   35.8937 C   0  0  0  0  0  0  0  0  0  0  0  0
   32.1690  -18.7493   35.4274 C   0  0  0  0  0  0  0  0  0  0  0  0
   33.3932  -18.0753   35.5168 C   0  0  0  0  0  0  0  0  0  0  0  0
   34.5057  -18.6796   36.0790 C   0  0  0  0  0  0  0  0  0  0  0  0
   34.3499  -19.9592   36.5521 C   0  0  0  0  0  0  0  0  0  0  0  0
   33.1363  -20.6210   36.4587 C   0  0  0  0  0  0  0  0  0  0  0  0
   29.7860  -20.0435   35.0465 F   0  0  0  0  0  0  0  0  0  0  0  0
   30.7248  -20.7678   35.7257 C   0  0  0  0  0  0  0  0  0  0  0  0
   30.3016  -21.2539   36.9413 F   0  0  0  0  0  0  0  0  0  0  0  0
   30.9723  -21.9074   34.9289 F   0  0  0  0  0  0  0  0  0  0  0  0
 36 37  1  0  0  0
 37 38  1  0  0  0
 37 39  1  0  0  0
 37 30  1  0  0  0
 30 31  2  0  0  0
 31 32  1  0  0  0
 32 33  2  0  0  0
 33 28  1  0  0  0
 28  1  1  0  0  0
  1  2  2  0  0  0
  2  3  1  0  0  0
  3  4  2  0  0  0
  4  5  1  0  0  0
  5  6  1  0  0  0
  6  7  1  0  0  0
  7  8  1  0  0  0
  8  9  1  0  0  0
  9 10  1  0  0  0
 10 11  1  0  0  0
  8 12  1  0  0  0
 12 13  2  0  0  0
 13 14  1  0  0  0
 14 15  2  0  0  0
 15 16  1  0  0  0
 16 17  2  0  0  0
 17 18  1  0  0  0
 18 19  1  0  0  0
 18 20  1  0  0  0
 18 21  1  0  0  0
  3 22  1  0  0  0
 22 23  2  0  0  0
 23 24  1  0  0  0
 24 25  2  0  0  0
 25 26  1  0  0  0
 26 27  2  0  0  0
 33 34  1  0  0  0
 34 35  2  0  0  0
 35 30  1  0  0  0
 11  1  1  0  0  0
 17 12  1  0  0  0
 27 22  1  0  0  0
 11  5  2  0  0  0
 28 29  1  0  0  0
M  END
> <minimizedAffinity>
0.86570

> <CNNscore>
0.4257723689

> <CNNaffinity>
6.4601669312

> <CNN_VS>
2.7505605221

> <CNNaffinity_variance>
0.8577190638

$$$$
[H]c1nc(N2C([H])([H])C([H])([H])c3nc(-c4c([H])c([H])c([H])c([H])c4[H])nc(N([H])c4c([H])c([H])c(C(F)(F)F)c([H])c4[H])c3C([H])([H])C2([H])[H])c(C(F)(F)F)c([H])c1[H]


 39 43  0  0  0  0  0  0  0  0999 V2000
   36.6046  -18.2363   34.9498 C   0  0  0  0  0  0  0  0  0  0  0  0
   36.4060  -17.6395   33.7390 N   0  0  0  0  0  0  0  0  0  0  0  0
   37.3560  -17.5447   32.8041 C   0  0  0  0  0  0  0  0  0  0  0  0
   38.5690  -18.0867   33.0916 N   0  0  0  0  0  0  0  0  0  0  0  0
   38.8478  -18.6968   34.2802 C   0  0  0  0  0  0  0  0  0  0  0  0
   40.1588  -19.3343   34.2971 C   0  0  0  0  0  0  0  0  0  0  0  0
   40.5655  -20.0446   35.5162 C   0  0  0  0  0  0  0  0  0  0  0  0
   39.7266  -20.8581   36.3045 N   0  0  0  0  0  0  0  0  0  0  0  0
   38.3323  -20.5951   36.8259 C   0  0  0  0  0  0  0  0  0  0  0  0
   38.0623  -19.1639   36.6556 C   0  0  0  0  0  0  0  0  0  0  0  0
   37.8543  -18.7588   35.2182 C   0  0  0  0  0  0  0  0  0  0  0  0
   40.0648  -22.1515   36.7903 C   0  0  0  0  0  0  0  0  0  0  0  0
   40.4243  -22.1914   38.1340 N   0  0  0  0  0  0  0  0  0  0  0  0
   40.8491  -23.3208   38.7163 C   0  0  0  0  0  0  0  0  0  0  0  0
   40.9339  -24.4861   37.9808 C   0  0  0  0  0  0  0  0  0  0  0  0
   40.5806  -24.4653   36.6606 C   0  0  0  0  0  0  0  0  0  0  0  0
   40.1348  -23.2737   36.0432 C   0  0  0  0  0  0  0  0  0  0  0  0
   39.7746  -23.3633   34.6276 C   0  0  0  0  0  0  0  0  0  0  0  0
   38.7070  -22.5631   34.2497 F   0  0  0  0  0  0  0  0  0  0  0  0
   39.7375  -24.6052   34.0762 F   0  0  0  0  0  0  0  0  0  0  0  0
   40.8407  -22.7302   33.8932 F   0  0  0  0  0  0  0  0  0  0  0  0
   37.2081  -16.7880   31.5619 C   0  0  0  0  0  0  0  0  0  0  0  0
   38.2344  -16.0863   30.9788 C   0  0  0  0  0  0  0  0  0  0  0  0
   38.0324  -15.3832   29.7798 C   0  0  0  0  0  0  0  0  0  0  0  0
   36.8126  -15.3717   29.1465 C   0  0  0  0  0  0  0  0  0  0  0  0
   35.7678  -16.0750   29.7250 C   0  0  0  0  0  0  0  0  0  0  0  0
   36.0037  -16.7425   30.8891 C   0  0  0  0  0  0  0  0  0  0  0  0
   35.6138  -18.4688   35.8849 N   0  0  0  0  0  0  0  0  0  0  0  0
   35.7706  -18.1977   36.9135 H   0  0  0  0  0  0  0  0  0  0  0  0
   31.8197  -20.3421   35.7008 C   0  0  0  0  0  0  0  0  0  0  0  0
   32.9352  -21.0310   36.0901 C   0  0  0  0  0  0  0  0  0  0  0  0
   34.1943  -20.4183   36.1076 C   0  0  0  0  0  0  0  0  0  0  0  0
   34.3534  -19.0943   35.7326 C   0  0  0  0  0  0  0  0  0  0  0  0
   33.2267  -18.4176   35.3346 C   0  0  0  0  0  0  0  0  0  0  0  0
   31.9836  -19.0294   35.3216 C   0  0  0  0  0  0  0  0  0  0  0  0
   29.9356  -21.0293   37.0177 F   0  0  0  0  0  0  0  0  0  0  0  0
   30.4582  -20.9937   35.7556 C   0  0  0  0  0  0  0  0  0  0  0  0
   30.4957  -22.2126   35.1184 F   0  0  0  0  0  0  0  0  0  0  0  0
   29.5673  -20.2000   34.9998 F   0  0  0  0  0  0  0  0  0  0  0  0
 36 37  1  0  0  0
 37 38  1  0  0  0
 37 39  1  0  0  0
 37 30  1  0  0  0
 30 31  2  0  0  0
 31 32  1  0  0  0
 32 33  2  0  0  0
 33 28  1  0  0  0
 28  1  1  0  0  0
  1  2  2  0  0  0
  2  3  1  0  0  0
  3  4  2  0  0  0
  4  5  1  0  0  0
  5  6  1  0  0  0
  6  7  1  0  0  0
  7  8  1  0  0  0
  8  9  1  0  0  0
  9 10  1  0  0  0
 10 11  1  0  0  0
  8 12  1  0  0  0
 12 13  2  0  0  0
 13 14  1  0  0  0
 14 15  2  0  0  0
 15 16  1  0  0  0
 16 17  2  0  0  0
 17 18  1  0  0  0
 18 19  1  0  0  0
 18 20  1  0  0  0
 18 21  1  0  0  0
  3 22  1  0  0  0
 22 23  2  0  0  0
 23 24  1  0  0  0
 24 25  2  0  0  0
 25 26  1  0  0  0
 26 27  2  0  0  0
 33 34  1  0  0  0
 34 35  2  0  0  0
 35 30  1  0  0  0
 11  1  1  0  0  0
 17 12  1  0  0  0
 27 22  1  0  0  0
 11  5  2  0  0  0
 28 29  1  0  0  0
M  END
> <minimizedAffinity>
0.87199

> <CNNscore>
0.4214965999

> <CNNaffinity>
6.4769105911

> <CNN_VS>
2.7299957275

> <CNNaffinity_variance>
1.2600305080

$$$$
[H]c1nc(N2C([H])([H])C([H])([H])c3nc(-c4c([H])c([H])c([H])c([H])c4[H])nc(N([H])c4c([H])c([H])c(C(F)(F)F)c([H])c4[H])c3C([H])([H])C2([H])[H])c(C(F)(F)F)c([H])c1[H]


 39 43  0  0  0  0  0  0  0  0999 V2000
   37.1213  -17.5895   34.9767 C   0  0  0  0  0  0  0  0  0  0  0  0
   36.7952  -17.0576   33.7632 N   0  0  0  0  0  0  0  0  0  0  0  0
   37.4526  -17.3461   32.6363 C   0  0  0  0  0  0  0  0  0  0  0  0
   38.4866  -18.2238   32.7256 N   0  0  0  0  0  0  0  0  0  0  0  0
   38.8768  -18.7958   33.9018 C   0  0  0  0  0  0  0  0  0  0  0  0
   39.9025  -19.8163   33.7238 C   0  0  0  0  0  0  0  0  0  0  0  0
   40.3894  -20.5213   34.9163 C   0  0  0  0  0  0  0  0  0  0  0  0
   39.5870  -20.9585   35.9897 N   0  0  0  0  0  0  0  0  0  0  0  0
   38.5166  -20.2225   36.7626 C   0  0  0  0  0  0  0  0  0  0  0  0
   38.6395  -18.7982   36.4359 C   0  0  0  0  0  0  0  0  0  0  0  0
   38.1898  -18.4621   35.0365 C   0  0  0  0  0  0  0  0  0  0  0  0
   39.6495  -22.2497   36.5832 C   0  0  0  0  0  0  0  0  0  0  0  0
   39.7290  -22.2469   37.9724 N   0  0  0  0  0  0  0  0  0  0  0  0
   39.8782  -23.3800   38.6717 C   0  0  0  0  0  0  0  0  0  0  0  0
   39.9517  -24.5915   38.0139 C   0  0  0  0  0  0  0  0  0  0  0  0
   39.8710  -24.6125   36.6497 C   0  0  0  0  0  0  0  0  0  0  0  0
   39.7166  -23.4175   35.9094 C   0  0  0  0  0  0  0  0  0  0  0  0
   39.6335  -23.5531   34.4546 C   0  0  0  0  0  0  0  0  0  0  0  0
   40.8348  -23.3713   33.7863 F   0  0  0  0  0  0  0  0  0  0  0  0
   38.5791  -22.9575   33.8372 F   0  0  0  0  0  0  0  0  0  0  0  0
   39.4009  -24.9498   34.1863 F   0  0  0  0  0  0  0  0  0  0  0  0
   37.2114  -16.6820   31.3563 C   0  0  0  0  0  0  0  0  0  0  0  0
   36.0101  -16.7350   30.6930 C   0  0  0  0  0  0  0  0  0  0  0  0
   35.8370  -16.0698   29.4681 C   0  0  0  0  0  0  0  0  0  0  0  0
   36.8517  -15.3439   28.8911 C   0  0  0  0  0  0  0  0  0  0  0  0
   38.0697  -15.2833   29.5496 C   0  0  0  0  0  0  0  0  0  0  0  0
   38.1980  -15.9437   30.7344 C   0  0  0  0  0  0  0  0  0  0  0  0
   36.3864  -17.4180   36.1346 N   0  0  0  0  0  0  0  0  0  0  0  0
   36.3171  -18.2169   36.8510 H   0  0  0  0  0  0  0  0  0  0  0  0
   34.2085  -13.9593   37.2448 C   0  0  0  0  0  0  0  0  0  0  0  0
   35.4588  -14.2031   37.7427 C   0  0  0  0  0  0  0  0  0  0  0  0
   36.1566  -15.3696   37.4060 C   0  0  0  0  0  0  0  0  0  0  0  0
   35.6058  -16.3156   36.5571 C   0  0  0  0  0  0  0  0  0  0  0  0
   34.3461  -16.0628   36.0727 C   0  0  0  0  0  0  0  0  0  0  0  0
   33.6621  -14.9055   36.4082 C   0  0  0  0  0  0  0  0  0  0  0  0
   32.3539  -12.4948   36.8301 F   0  0  0  0  0  0  0  0  0  0  0  0
   33.4975  -12.6643   37.5587 C   0  0  0  0  0  0  0  0  0  0  0  0
   34.3826  -11.6135   37.4849 F   0  0  0  0  0  0  0  0  0  0  0  0
   33.0823  -12.7140   38.9078 F   0  0  0  0  0  0  0  0  0  0  0  0
 36 37  1  0  0  0
 37 38  1  0  0  0
 37 39  1  0  0  0
 37 30  1  0  0  0
 30 31  2  0  0  0
 31 32  1  0  0  0
 32 33  2  0  0  0
 33 28  1  0  0  0
 28  1  1  0  0  0
  1  2  2  0  0  0
  2  3  1  0  0  0
  3  4  2  0  0  0
  4  5  1  0  0  0
  5  6  1  0  0  0
  6  7  1  0  0  0
  7  8  1  0  0  0
  8  9  1  0  0  0
  9 10  1  0  0  0
 10 11  1  0  0  0
  8 12  1  0  0  0
 12 13  2  0  0  0
 13 14  1  0  0  0
 14 15  2  0  0  0
 15 16  1  0  0  0
 16 17  2  0  0  0
 17 18  1  0  0  0
 18 19  1  0  0  0
 18 20  1  0  0  0
 18 21  1  0  0  0
  3 22  1  0  0  0
 22 23  2  0  0  0
 23 24  1  0  0  0
 24 25  2  0  0  0
 25 26  1  0  0  0
 26 27  2  0  0  0
 33 34  1  0  0  0
 34 35  2  0  0  0
 35 30  1  0  0  0
 11  1  1  0  0  0
 17 12  1  0  0  0
 27 22  1  0  0  0
 11  5  2  0  0  0
 28 29  1  0  0  0
M  END
> <minimizedAffinity>
-0.24601

> <CNNscore>
0.4186916053

> <CNNaffinity>
6.3368697166

> <CNN_VS>
2.6531941891

> <CNNaffinity_variance>
1.0484453440

$$$$
[H]c1nc(N2C([H])([H])C([H])([H])c3nc(-c4c([H])c([H])c([H])c([H])c4[H])nc(N([H])c4c([H])c([H])c(C(F)(F)F)c([H])c4[H])c3C([H])([H])C2([H])[H])c(C(F)(F)F)c([H])c1[H]


 39 43  0  0  0  0  0  0  0  0999 V2000
   37.0568  -17.6036   35.0161 C   0  0  0  0  0  0  0  0  0  0  0  0
   36.7491  -17.0538   33.8058 N   0  0  0  0  0  0  0  0  0  0  0  0
   37.3792  -17.3770   32.6727 C   0  0  0  0  0  0  0  0  0  0  0  0
   38.3644  -18.3102   32.7522 N   0  0  0  0  0  0  0  0  0  0  0  0
   38.7335  -18.9035   33.9246 C   0  0  0  0  0  0  0  0  0  0  0  0
   39.7001  -19.9786   33.7369 C   0  0  0  0  0  0  0  0  0  0  0  0
   40.1586  -20.7101   34.9246 C   0  0  0  0  0  0  0  0  0  0  0  0
   39.3435  -21.1034   36.0054 N   0  0  0  0  0  0  0  0  0  0  0  0
   38.3222  -20.3104   36.7884 C   0  0  0  0  0  0  0  0  0  0  0  0
   38.5199  -18.8948   36.4608 C   0  0  0  0  0  0  0  0  0  0  0  0
   38.0764  -18.5336   35.0658 C   0  0  0  0  0  0  0  0  0  0  0  0
   39.3406  -22.3965   36.5979 C   0  0  0  0  0  0  0  0  0  0  0  0
   38.3723  -23.2620   36.0982 N   0  0  0  0  0  0  0  0  0  0  0  0
   38.1886  -24.4857   36.6121 C   0  0  0  0  0  0  0  0  0  0  0  0
   38.9746  -24.9179   37.6615 C   0  0  0  0  0  0  0  0  0  0  0  0
   39.9331  -24.0819   38.1616 C   0  0  0  0  0  0  0  0  0  0  0  0
   40.1268  -22.7888   37.6228 C   0  0  0  0  0  0  0  0  0  0  0  0
   41.1848  -21.9779   38.2269 C   0  0  0  0  0  0  0  0  0  0  0  0
   40.7331  -20.9212   39.0030 F   0  0  0  0  0  0  0  0  0  0  0  0
   42.2415  -21.6516   37.4367 F   0  0  0  0  0  0  0  0  0  0  0  0
   41.7983  -22.7963   39.2422 F   0  0  0  0  0  0  0  0  0  0  0  0
   37.1629  -16.6998   31.3952 C   0  0  0  0  0  0  0  0  0  0  0  0
   35.9757  -16.7482   30.7067 C   0  0  0  0  0  0  0  0  0  0  0  0
   35.8264  -16.0704   29.4856 C   0  0  0  0  0  0  0  0  0  0  0  0
   36.8510  -15.3362   28.9375 C   0  0  0  0  0  0  0  0  0  0  0  0
   38.0550  -15.2800   29.6216 C   0  0  0  0  0  0  0  0  0  0  0  0
   38.1604  -15.9528   30.8017 C   0  0  0  0  0  0  0  0  0  0  0  0
   36.3431  -17.3930   36.1808 N   0  0  0  0  0  0  0  0  0  0  0  0
   36.2614  -18.1781   36.9110 H   0  0  0  0  0  0  0  0  0  0  0  0
   34.2836  -13.8559   37.2695 C   0  0  0  0  0  0  0  0  0  0  0  0
   35.5198  -14.1447   37.7785 C   0  0  0  0  0  0  0  0  0  0  0  0
   36.1774  -15.3363   37.4487 C   0  0  0  0  0  0  0  0  0  0  0  0
   35.5997  -16.2624   36.5957 C   0  0  0  0  0  0  0  0  0  0  0  0
   34.3543  -15.9641   36.1001 C   0  0  0  0  0  0  0  0  0  0  0  0
   33.7102  -14.7823   36.4288 C   0  0  0  0  0  0  0  0  0  0  0  0
   34.4087  -11.4600   37.2844 F   0  0  0  0  0  0  0  0  0  0  0  0
   33.6177  -12.5354   37.5763 C   0  0  0  0  0  0  0  0  0  0  0  0
   33.1209  -12.5475   38.8593 F   0  0  0  0  0  0  0  0  0  0  0  0
   32.4892  -12.4138   36.7357 F   0  0  0  0  0  0  0  0  0  0  0  0
 36 37  1  0  0  0
 37 38  1  0  0  0
 37 39  1  0  0  0
 37 30  1  0  0  0
 30 31  2  0  0  0
 31 32  1  0  0  0
 32 33  2  0  0  0
 33 28  1  0  0  0
 28  1  1  0  0  0
  1  2  2  0  0  0
  2  3  1  0  0  0
  3  4  2  0  0  0
  4  5  1  0  0  0
  5  6  1  0  0  0
  6  7  1  0  0  0
  7  8  1  0  0  0
  8  9  1  0  0  0
  9 10  1  0  0  0
 10 11  1  0  0  0
  8 12  1  0  0  0
 12 13  2  0  0  0
 13 14  1  0  0  0
 14 15  2  0  0  0
 15 16  1  0  0  0
 16 17  2  0  0  0
 17 18  1  0  0  0
 18 19  1  0  0  0
 18 20  1  0  0  0
 18 21  1  0  0  0
  3 22  1  0  0  0
 22 23  2  0  0  0
 23 24  1  0  0  0
 24 25  2  0  0  0
 25 26  1  0  0  0
 26 27  2  0  0  0
 33 34  1  0  0  0
 34 35  2  0  0  0
 35 30  1  0  0  0
 11  1  1  0  0  0
 17 12  1  0  0  0
 27 22  1  0  0  0
 11  5  2  0  0  0
 28 29  1  0  0  0
M  END
> <minimizedAffinity>
-0.21799

> <CNNscore>
0.4152975678

> <CNNaffinity>
6.4439826012

> <CNN_VS>
2.6761703491

> <CNNaffinity_variance>
0.9010864496

$$$$
[H]c1nc(N2C([H])([H])C([H])([H])c3nc(-c4c([H])c([H])c([H])c([H])c4[H])nc(N([H])c4c([H])c([H])c(C(F)(F)F)c([H])c4[H])c3C([H])([H])C2([H])[H])c(C(F)(F)F)c([H])c1[H]


 39 43  0  0  0  0  0  0  0  0999 V2000
   37.4046  -20.1611   36.1924 C   0  0  0  0  0  0  0  0  0  0  0  0
   36.0583  -20.3822   36.1821 N   0  0  0  0  0  0  0  0  0  0  0  0
   35.4799  -21.4115   36.8078 C   0  0  0  0  0  0  0  0  0  0  0  0
   36.2919  -22.2608   37.4912 N   0  0  0  0  0  0  0  0  0  0  0  0
   37.6473  -22.1104   37.5466 C   0  0  0  0  0  0  0  0  0  0  0  0
   38.2855  -23.0483   38.4620 C   0  0  0  0  0  0  0  0  0  0  0  0
   39.7427  -22.9705   38.6255 C   0  0  0  0  0  0  0  0  0  0  0  0
   40.4922  -21.7792   38.7032 N   0  0  0  0  0  0  0  0  0  0  0  0
   40.4426  -20.5440   37.8334 C   0  0  0  0  0  0  0  0  0  0  0  0
   39.6806  -20.8858   36.6280 C   0  0  0  0  0  0  0  0  0  0  0  0
   38.2034  -21.0540   36.8790 C   0  0  0  0  0  0  0  0  0  0  0  0
   41.5007  -21.5103   39.6696 C   0  0  0  0  0  0  0  0  0  0  0  0
   41.1466  -20.5697   40.6320 N   0  0  0  0  0  0  0  0  0  0  0  0
   42.0173  -20.1486   41.5592 C   0  0  0  0  0  0  0  0  0  0  0  0
   43.3019  -20.6538   41.5787 C   0  0  0  0  0  0  0  0  0  0  0  0
   43.6650  -21.5816   40.6430 C   0  0  0  0  0  0  0  0  0  0  0  0
   42.7486  -22.0253   39.6616 C   0  0  0  0  0  0  0  0  0  0  0  0
   43.2374  -23.0260   38.7122 C   0  0  0  0  0  0  0  0  0  0  0  0
   43.3964  -22.5643   37.4144 F   0  0  0  0  0  0  0  0  0  0  0  0
   42.6812  -24.2646   38.7780 F   0  0  0  0  0  0  0  0  0  0  0  0
   44.6114  -23.2846   39.0614 F   0  0  0  0  0  0  0  0  0  0  0  0
   34.0614  -21.7460   36.6924 C   0  0  0  0  0  0  0  0  0  0  0  0
   33.6065  -22.9571   36.2319 C   0  0  0  0  0  0  0  0  0  0  0  0
   32.2296  -23.2223   36.1501 C   0  0  0  0  0  0  0  0  0  0  0  0
   31.2915  -22.2910   36.5266 C   0  0  0  0  0  0  0  0  0  0  0  0
   31.7371  -21.0639   36.9920 C   0  0  0  0  0  0  0  0  0  0  0  0
   33.0804  -20.8449   37.0544 C   0  0  0  0  0  0  0  0  0  0  0  0
   38.0224  -19.0404   35.6703 N   0  0  0  0  0  0  0  0  0  0  0  0
   38.7222  -18.4843   36.2680 H   0  0  0  0  0  0  0  0  0  0  0  0
   37.5844  -16.9305   32.0241 C   0  0  0  0  0  0  0  0  0  0  0  0
   36.6891  -16.7775   33.0467 C   0  0  0  0  0  0  0  0  0  0  0  0
   36.8146  -17.5100   34.2335 C   0  0  0  0  0  0  0  0  0  0  0  0
   37.8492  -18.4134   34.4133 C   0  0  0  0  0  0  0  0  0  0  0  0
   38.7349  -18.5643   33.3748 C   0  0  0  0  0  0  0  0  0  0  0  0
   38.6061  -17.8348   32.2040 C   0  0  0  0  0  0  0  0  0  0  0  0
   38.5881  -16.1607   29.9854 F   0  0  0  0  0  0  0  0  0  0  0  0
   37.4786  -16.0819   30.7791 C   0  0  0  0  0  0  0  0  0  0  0  0
   37.1065  -14.8006   31.1151 F   0  0  0  0  0  0  0  0  0  0  0  0
   36.4177  -16.5902   29.9973 F   0  0  0  0  0  0  0  0  0  0  0  0
 36 37  1  0  0  0
 37 38  1  0  0  0
 37 39  1  0  0  0
 37 30  1  0  0  0
 30 31  2  0  0  0
 31 32  1  0  0  0
 32 33  2  0  0  0
 33 28  1  0  0  0
 28  1  1  0  0  0
  1  2  2  0  0  0
  2  3  1  0  0  0
  3  4  2  0  0  0
  4  5  1  0  0  0
  5  6  1  0  0  0
  6  7  1  0  0  0
  7  8  1  0  0  0
  8  9  1  0  0  0
  9 10  1  0  0  0
 10 11  1  0  0  0
  8 12  1  0  0  0
 12 13  2  0  0  0
 13 14  1  0  0  0
 14 15  2  0  0  0
 15 16  1  0  0  0
 16 17  2  0  0  0
 17 18  1  0  0  0
 18 19  1  0  0  0
 18 20  1  0  0  0
 18 21  1  0  0  0
  3 22  1  0  0  0
 22 23  2  0  0  0
 23 24  1  0  0  0
 24 25  2  0  0  0
 25 26  1  0  0  0
 26 27  2  0  0  0
 33 34  1  0  0  0
 34 35  2  0  0  0
 35 30  1  0  0  0
 11  1  1  0  0  0
 17 12  1  0  0  0
 27 22  1  0  0  0
 11  5  2  0  0  0
 28 29  1  0  0  0
M  END
> <minimizedAffinity>
1.18198

> <CNNscore>
0.4118089080

> <CNNaffinity>
6.4055356979

> <CNN_VS>
2.6378567219

> <CNNaffinity_variance>
2.3041069508

$$$$
[H]c1nc(N2C([H])([H])C([H])([H])c3nc(-c4c([H])c([H])c([H])c([H])c4[H])nc(N([H])c4c([H])c([H])c(C(F)(F)F)c([H])c4[H])c3C([H])([H])C2([H])[H])c(C(F)(F)F)c([H])c1[H]


 39 43  0  0  0  0  0  0  0  0999 V2000
   35.7878  -18.4828   35.8214 C   0  0  0  0  0  0  0  0  0  0  0  0
   35.9468  -17.9390   34.5802 N   0  0  0  0  0  0  0  0  0  0  0  0
   37.0886  -18.0102   33.8898 C   0  0  0  0  0  0  0  0  0  0  0  0
   38.1258  -18.6717   34.4680 N   0  0  0  0  0  0  0  0  0  0  0  0
   38.0476  -19.2394   35.7067 C   0  0  0  0  0  0  0  0  0  0  0  0
   39.2288  -20.0228   36.0476 C   0  0  0  0  0  0  0  0  0  0  0  0
   39.2545  -20.7029   37.3487 C   0  0  0  0  0  0  0  0  0  0  0  0
   38.1622  -21.3658   37.9442 N   0  0  0  0  0  0  0  0  0  0  0  0
   36.7308  -20.9125   38.1185 C   0  0  0  0  0  0  0  0  0  0  0  0
   36.6899  -19.4720   37.8469 C   0  0  0  0  0  0  0  0  0  0  0  0
   36.8672  -19.1304   36.3891 C   0  0  0  0  0  0  0  0  0  0  0  0
   38.2146  -22.6590   38.5342 C   0  0  0  0  0  0  0  0  0  0  0  0
   37.9221  -23.7058   37.6653 N   0  0  0  0  0  0  0  0  0  0  0  0
   37.8485  -24.9744   38.0903 C   0  0  0  0  0  0  0  0  0  0  0  0
   38.0707  -25.2699   39.4204 C   0  0  0  0  0  0  0  0  0  0  0  0
   38.3632  -24.2539   40.2866 C   0  0  0  0  0  0  0  0  0  0  0  0
   38.4385  -22.9139   39.8408 C   0  0  0  0  0  0  0  0  0  0  0  0
   38.7656  -21.9046   40.8488 C   0  0  0  0  0  0  0  0  0  0  0  0
   39.5588  -20.8637   40.3901 F   0  0  0  0  0  0  0  0  0  0  0  0
   39.1270  -22.3540   42.0796 F   0  0  0  0  0  0  0  0  0  0  0  0
   37.5441  -21.1918   41.1256 F   0  0  0  0  0  0  0  0  0  0  0  0
   37.3240  -17.3156   32.6251 C   0  0  0  0  0  0  0  0  0  0  0  0
   38.5772  -17.0769   32.1169 C   0  0  0  0  0  0  0  0  0  0  0  0
   38.7394  -16.4096   30.8917 C   0  0  0  0  0  0  0  0  0  0  0  0
   37.6613  -15.9757   30.1578 C   0  0  0  0  0  0  0  0  0  0  0  0
   36.3907  -16.2091   30.6599 C   0  0  0  0  0  0  0  0  0  0  0  0
   36.2757  -16.8578   31.8525 C   0  0  0  0  0  0  0  0  0  0  0  0
   34.5890  -18.5434   36.5067 N   0  0  0  0  0  0  0  0  0  0  0  0
   34.4552  -17.9724   37.4080 H   0  0  0  0  0  0  0  0  0  0  0  0
   31.0552  -20.8185   35.9829 C   0  0  0  0  0  0  0  0  0  0  0  0
   32.1030  -21.2919   36.7235 C   0  0  0  0  0  0  0  0  0  0  0  0
   33.2857  -20.5542   36.8576 C   0  0  0  0  0  0  0  0  0  0  0  0
   33.4350  -19.3202   36.2462 C   0  0  0  0  0  0  0  0  0  0  0  0
   32.3791  -18.8617   35.4976 C   0  0  0  0  0  0  0  0  0  0  0  0
   31.2109  -19.5958   35.3708 C   0  0  0  0  0  0  0  0  0  0  0  0
   28.8491  -21.0209   35.0617 F   0  0  0  0  0  0  0  0  0  0  0  0
   29.7597  -21.5912   35.9061 C   0  0  0  0  0  0  0  0  0  0  0  0
   29.2859  -21.8394   37.1737 F   0  0  0  0  0  0  0  0  0  0  0  0
   30.0441  -22.8599   35.3543 F   0  0  0  0  0  0  0  0  0  0  0  0
 36 37  1  0  0  0
 37 38  1  0  0  0
 37 39  1  0  0  0
 37 30  1  0  0  0
 30 31  2  0  0  0
 31 32  1  0  0  0
 32 33  2  0  0  0
 33 28  1  0  0  0
 28  1  1  0  0  0
  1  2  2  0  0  0
  2  3  1  0  0  0
  3  4  2  0  0  0
  4  5  1  0  0  0
  5  6  1  0  0  0
  6  7  1  0  0  0
  7  8  1  0  0  0
  8  9  1  0  0  0
  9 10  1  0  0  0
 10 11  1  0  0  0
  8 12  1  0  0  0
 12 13  2  0  0  0
 13 14  1  0  0  0
 14 15  2  0  0  0
 15 16  1  0  0  0
 16 17  2  0  0  0
 17 18  1  0  0  0
 18 19  1  0  0  0
 18 20  1  0  0  0
 18 21  1  0  0  0
  3 22  1  0  0  0
 22 23  2  0  0  0
 23 24  1  0  0  0
 24 25  2  0  0  0
 25 26  1  0  0  0
 26 27  2  0  0  0
 33 34  1  0  0  0
 34 35  2  0  0  0
 35 30  1  0  0  0
 11  1  1  0  0  0
 17 12  1  0  0  0
 27 22  1  0  0  0
 11  5  2  0  0  0
 28 29  1  0  0  0
M  END
> <minimizedAffinity>
1.40968

> <CNNscore>
0.4046367109

> <CNNaffinity>
6.2709937096

> <CNN_VS>
2.5374741554

> <CNNaffinity_variance>
0.7795736790

$$$$
[H]c1nc(N2C([H])([H])C([H])([H])c3nc(-c4c([H])c([H])c([H])c([H])c4[H])nc(N([H])c4c([H])c([H])c(C(F)(F)F)c([H])c4[H])c3C([H])([H])C2([H])[H])c(C(F)(F)F)c([H])c1[H]


 39 43  0  0  0  0  0  0  0  0999 V2000
   36.5791  -20.0360   36.2627 C   0  0  0  0  0  0  0  0  0  0  0  0
   35.2276  -19.9620   36.0902 N   0  0  0  0  0  0  0  0  0  0  0  0
   34.3618  -20.7435   36.7421 C   0  0  0  0  0  0  0  0  0  0  0  0
   34.8752  -21.6415   37.6241 N   0  0  0  0  0  0  0  0  0  0  0  0
   36.2141  -21.7793   37.8502 C   0  0  0  0  0  0  0  0  0  0  0  0
   36.5134  -22.6926   38.9463 C   0  0  0  0  0  0  0  0  0  0  0  0
   37.9220  -22.9071   39.3013 C   0  0  0  0  0  0  0  0  0  0  0  0
   38.9133  -21.9059   39.3467 N   0  0  0  0  0  0  0  0  0  0  0  0
   39.2466  -20.8253   38.3437 C   0  0  0  0  0  0  0  0  0  0  0  0
   38.5638  -21.1631   37.0907 C   0  0  0  0  0  0  0  0  0  0  0  0
   37.0693  -20.9728   37.1509 C   0  0  0  0  0  0  0  0  0  0  0  0
   39.8438  -21.7254   40.4072 C   0  0  0  0  0  0  0  0  0  0  0  0
   39.4912  -20.7437   41.3283 N   0  0  0  0  0  0  0  0  0  0  0  0
   40.3040  -20.3987   42.3360 C   0  0  0  0  0  0  0  0  0  0  0  0
   41.5248  -21.0263   42.4829 C   0  0  0  0  0  0  0  0  0  0  0  0
   41.8850  -21.9957   41.5892 C   0  0  0  0  0  0  0  0  0  0  0  0
   41.0300  -22.3594   40.5231 C   0  0  0  0  0  0  0  0  0  0  0  0
   41.5089  -23.4138   39.6284 C   0  0  0  0  0  0  0  0  0  0  0  0
   42.6865  -24.0251   40.0316 F   0  0  0  0  0  0  0  0  0  0  0  0
   41.4645  -23.1599   38.2938 F   0  0  0  0  0  0  0  0  0  0  0  0
   40.5897  -24.5152   39.7650 F   0  0  0  0  0  0  0  0  0  0  0  0
   32.9259  -20.7785   36.4691 C   0  0  0  0  0  0  0  0  0  0  0  0
   32.0565  -21.6277   37.1084 C   0  0  0  0  0  0  0  0  0  0  0  0
   30.6847  -21.6099   36.8074 C   0  0  0  0  0  0  0  0  0  0  0  0
   30.1619  -20.7485   35.8726 C   0  0  0  0  0  0  0  0  0  0  0  0
   31.0287  -19.8868   35.2190 C   0  0  0  0  0  0  0  0  0  0  0  0
   32.3524  -19.9363   35.5378 C   0  0  0  0  0  0  0  0  0  0  0  0
   37.4927  -19.1600   35.7078 N   0  0  0  0  0  0  0  0  0  0  0  0
   38.3461  -18.8399   36.2783 H   0  0  0  0  0  0  0  0  0  0  0  0
   37.4392  -16.9994   32.0653 C   0  0  0  0  0  0  0  0  0  0  0  0
   36.3065  -17.1578   32.8154 C   0  0  0  0  0  0  0  0  0  0  0  0
   36.3205  -17.9096   33.9967 C   0  0  0  0  0  0  0  0  0  0  0  0
   37.4810  -18.5175   34.4467 C   0  0  0  0  0  0  0  0  0  0  0  0
   38.6082  -18.3587   33.6787 C   0  0  0  0  0  0  0  0  0  0  0  0
   38.5878  -17.6117   32.5120 C   0  0  0  0  0  0  0  0  0  0  0  0
   38.6044  -16.1657   30.1409 F   0  0  0  0  0  0  0  0  0  0  0  0
   37.4265  -16.1268   30.8326 C   0  0  0  0  0  0  0  0  0  0  0  0
   36.9970  -14.8610   31.1584 F   0  0  0  0  0  0  0  0  0  0  0  0
   36.4519  -16.6402   29.9485 F   0  0  0  0  0  0  0  0  0  0  0  0
 36 37  1  0  0  0
 37 38  1  0  0  0
 37 39  1  0  0  0
 37 30  1  0  0  0
 30 31  2  0  0  0
 31 32  1  0  0  0
 32 33  2  0  0  0
 33 28  1  0  0  0
 28  1  1  0  0  0
  1  2  2  0  0  0
  2  3  1  0  0  0
  3  4  2  0  0  0
  4  5  1  0  0  0
  5  6  1  0  0  0
  6  7  1  0  0  0
  7  8  1  0  0  0
  8  9  1  0  0  0
  9 10  1  0  0  0
 10 11  1  0  0  0
  8 12  1  0  0  0
 12 13  2  0  0  0
 13 14  1  0  0  0
 14 15  2  0  0  0
 15 16  1  0  0  0
 16 17  2  0  0  0
 17 18  1  0  0  0
 18 19  1  0  0  0
 18 20  1  0  0  0
 18 21  1  0  0  0
  3 22  1  0  0  0
 22 23  2  0  0  0
 23 24  1  0  0  0
 24 25  2  0  0  0
 25 26  1  0  0  0
 26 27  2  0  0  0
 33 34  1  0  0  0
 34 35  2  0  0  0
 35 30  1  0  0  0
 11  1  1  0  0  0
 17 12  1  0  0  0
 27 22  1  0  0  0
 11  5  2  0  0  0
 28 29  1  0  0  0
M  END
> <minimizedAffinity>
-0.24631

> <CNNscore>
0.4030659199

> <CNNaffinity>
6.0744810104

> <CNN_VS>
2.4484162331

> <CNNaffinity_variance>
0.5914076567

$$$$
[H]c1nc(N2C([H])([H])C([H])([H])c3nc(-c4c([H])c([H])c([H])c([H])c4[H])nc(N([H])c4c([H])c([H])c(C(F)(F)F)c([H])c4[H])c3C([H])([H])C2([H])[H])c(C(F)(F)F)c([H])c1[H]


 39 43  0  0  0  0  0  0  0  0999 V2000
   34.7737  -20.6950   37.0045 C   0  0  0  0  0  0  0  0  0  0  0  0
   35.7432  -21.6375   37.1874 N   0  0  0  0  0  0  0  0  0  0  0  0
   36.9991  -21.4901   36.7559 C   0  0  0  0  0  0  0  0  0  0  0  0
   37.3057  -20.3310   36.1155 N   0  0  0  0  0  0  0  0  0  0  0  0
   36.3924  -19.3420   35.8903 C   0  0  0  0  0  0  0  0  0  0  0  0
   36.9884  -18.1366   35.3273 C   0  0  0  0  0  0  0  0  0  0  0  0
   36.1090  -16.9913   35.0606 C   0  0  0  0  0  0  0  0  0  0  0  0
   35.0627  -16.5540   35.8979 N   0  0  0  0  0  0  0  0  0  0  0  0
   33.9635  -17.3449   36.5697 C   0  0  0  0  0  0  0  0  0  0  0  0
   33.9372  -18.6739   35.9506 C   0  0  0  0  0  0  0  0  0  0  0  0
   35.1128  -19.5375   36.3322 C   0  0  0  0  0  0  0  0  0  0  0  0
   34.8318  -15.2032   36.2791 C   0  0  0  0  0  0  0  0  0  0  0  0
   33.6794  -14.6374   35.7425 N   0  0  0  0  0  0  0  0  0  0  0  0
   33.3691  -13.3491   35.9406 C   0  0  0  0  0  0  0  0  0  0  0  0
   34.2001  -12.5485   36.6985 C   0  0  0  0  0  0  0  0  0  0  0  0
   35.3341  -13.0895   37.2364 C   0  0  0  0  0  0  0  0  0  0  0  0
   35.6651  -14.4482   37.0261 C   0  0  0  0  0  0  0  0  0  0  0  0
   36.8975  -14.9279   37.6529 C   0  0  0  0  0  0  0  0  0  0  0  0
   37.5661  -13.9818   38.4150 F   0  0  0  0  0  0  0  0  0  0  0  0
   37.7267  -15.6852   36.8870 F   0  0  0  0  0  0  0  0  0  0  0  0
   36.4991  -15.8516   38.6847 F   0  0  0  0  0  0  0  0  0  0  0  0
   38.0129  -22.5419   36.8155 C   0  0  0  0  0  0  0  0  0  0  0  0
   39.1587  -22.5296   36.0586 C   0  0  0  0  0  0  0  0  0  0  0  0
   40.0999  -23.5667   36.1650 C   0  0  0  0  0  0  0  0  0  0  0  0
   39.9155  -24.6235   37.0244 C   0  0  0  0  0  0  0  0  0  0  0  0
   38.7626  -24.6489   37.7932 C   0  0  0  0  0  0  0  0  0  0  0  0
   37.8734  -23.6252   37.6595 C   0  0  0  0  0  0  0  0  0  0  0  0
   33.5048  -20.7548   37.5492 N   0  0  0  0  0  0  0  0  0  0  0  0
   33.0373  -19.8615   37.9232 H   0  0  0  0  0  0  0  0  0  0  0  0
   30.8758  -23.9619   38.4101 C   0  0  0  0  0  0  0  0  0  0  0  0
   31.9412  -23.6782   39.2195 C   0  0  0  0  0  0  0  0  0  0  0  0
   32.8320  -22.6441   38.9068 C   0  0  0  0  0  0  0  0  0  0  0  0
   32.6649  -21.8726   37.7685 C   0  0  0  0  0  0  0  0  0  0  0  0
   31.5971  -22.1748   36.9597 C   0  0  0  0  0  0  0  0  0  0  0  0
   30.7182  -23.1981   37.2762 C   0  0  0  0  0  0  0  0  0  0  0  0
   30.3627  -25.8836   39.7517 F   0  0  0  0  0  0  0  0  0  0  0  0
   29.8827  -25.0321   38.7968 C   0  0  0  0  0  0  0  0  0  0  0  0
   29.3997  -25.6536   37.6683 F   0  0  0  0  0  0  0  0  0  0  0  0
   28.7669  -24.3958   39.3841 F   0  0  0  0  0  0  0  0  0  0  0  0
 36 37  1  0  0  0
 37 38  1  0  0  0
 37 39  1  0  0  0
 37 30  1  0  0  0
 30 31  2  0  0  0
 31 32  1  0  0  0
 32 33  2  0  0  0
 33 28  1  0  0  0
 28  1  1  0  0  0
  1  2  2  0  0  0
  2  3  1  0  0  0
  3  4  2  0  0  0
  4  5  1  0  0  0
  5  6  1  0  0  0
  6  7  1  0  0  0
  7  8  1  0  0  0
  8  9  1  0  0  0
  9 10  1  0  0  0
 10 11  1  0  0  0
  8 12  1  0  0  0
 12 13  2  0  0  0
 13 14  1  0  0  0
 14 15  2  0  0  0
 15 16  1  0  0  0
 16 17  2  0  0  0
 17 18  1  0  0  0
 18 19  1  0  0  0
 18 20  1  0  0  0
 18 21  1  0  0  0
  3 22  1  0  0  0
 22 23  2  0  0  0
 23 24  1  0  0  0
 24 25  2  0  0  0
 25 26  1  0  0  0
 26 27  2  0  0  0
 33 34  1  0  0  0
 34 35  2  0  0  0
 35 30  1  0  0  0
 11  1  1  0  0  0
 17 12  1  0  0  0
 27 22  1  0  0  0
 11  5  2  0  0  0
 28 29  1  0  0  0
M  END
> <minimizedAffinity>
-5.43813

> <CNNscore>
0.3658772111

> <CNNaffinity>
6.7018494606

> <CNN_VS>
2.4520540237

> <CNNaffinity_variance>
1.3632913828

$$$$
[H]c1c([H])c([H])c(N([H])C(=O)c2c([H])c([H])c([H])c([N+](=O)[O-])c2[H])c([H])c1[H]


 19 20  0  0  0  0  0  0  0  0999 V2000
   34.0663  -17.3611   35.2122 C   0  0  0  0  0  0  0  0  0  0  0  0
   35.2947  -17.3390   34.9612 O   0  0  0  0  0  0  0  0  0  0  0  0
   33.4208  -16.2672   35.8271 N   0  0  0  0  0  0  0  0  0  0  0  0
   32.3650  -16.3191   36.0249 H   0  0  0  0  0  0  0  0  0  0  0  0
   31.1689  -19.7381   34.9950 C   0  0  0  0  0  0  0  0  0  0  0  0
   31.6985  -20.7767   34.2520 C   0  0  0  0  0  0  0  0  0  0  0  0
   32.9797  -20.7112   33.8227 C   0  0  0  0  0  0  0  0  0  0  0  0
   33.7787  -19.5990   34.1234 C   0  0  0  0  0  0  0  0  0  0  0  0
   33.2819  -18.5680   34.8507 C   0  0  0  0  0  0  0  0  0  0  0  0
   31.9593  -18.6493   35.2865 C   0  0  0  0  0  0  0  0  0  0  0  0
   29.1992  -18.6572   35.8543 O   0  0  0  0  0  0  0  0  0  0  0  0
   29.8255  -19.7992   35.4490 N   0  0  0  0  0  0  0  0  0  0  0  0
   29.2451  -20.9040   35.4665 O   0  0  0  0  0  0  0  0  0  0  0  0
   34.0665  -15.0789   36.2193 C   0  0  0  0  0  0  0  0  0  0  0  0
   33.5795  -13.8028   36.1176 C   0  0  0  0  0  0  0  0  0  0  0  0
   34.2982  -12.6824   36.5659 C   0  0  0  0  0  0  0  0  0  0  0  0
   35.5416  -12.8269   37.1339 C   0  0  0  0  0  0  0  0  0  0  0  0
   36.0489  -14.1033   37.2443 C   0  0  0  0  0  0  0  0  0  0  0  0
   35.3374  -15.1929   36.8028 C   0  0  0  0  0  0  0  0  0  0  0  0
 11 12  1  0  0  0
 12 13  2  0  0  0
 12  5  1  0  0  0
  5  6  2  0  0  0
  6  7  1  0  0  0
  7  8  2  0  0  0
  8  9  1  0  0  0
  9 10  2  0  0  0
  9  1  1  0  0  0
  1  2  2  0  0  0
  1  3  1  0  0  0
  3 14  1  0  0  0
 14 15  2  0  0  0
 15 16  1  0  0  0
 16 17  2  0  0  0
 17 18  1  0  0  0
 18 19  2  0  0  0
 10  5  1  0  0  0
 19 14  1  0  0  0
  3  4  1  0  0  0
M  CHG 1  11  -1
M  CHG 1  12   1
M  END
> <minimizedAffinity>
-6.56049

> <CNNscore>
0.7752055526

> <CNNaffinity>
4.2027969360

> <CNN_VS>
3.2580316067

> <CNNaffinity_variance>
0.4141915739

$$$$
[H]c1c([H])c([H])c(N([H])C(=O)c2c([H])c([H])c([H])c([N+](=O)[O-])c2[H])c([H])c1[H]


 19 20  0  0  0  0  0  0  0  0999 V2000
   32.0552  -12.6947   38.2948 C   0  0  0  0  0  0  0  0  0  0  0  0
   32.7416  -12.7447   39.3431 O   0  0  0  0  0  0  0  0  0  0  0  0
   32.5897  -13.0768   37.0460 N   0  0  0  0  0  0  0  0  0  0  0  0
   31.9714  -13.0241   36.1676 H   0  0  0  0  0  0  0  0  0  0  0  0
   28.4852  -12.4607   39.4317 C   0  0  0  0  0  0  0  0  0  0  0  0
   27.9920  -11.4424   38.6372 C   0  0  0  0  0  0  0  0  0  0  0  0
   28.8042  -10.8345   37.7423 C   0  0  0  0  0  0  0  0  0  0  0  0
   30.1440  -11.2261   37.6112 C   0  0  0  0  0  0  0  0  0  0  0  0
   30.6508  -12.2224   38.3790 C   0  0  0  0  0  0  0  0  0  0  0  0
   29.8017  -12.8400   39.2973 C   0  0  0  0  0  0  0  0  0  0  0  0
   27.3689  -14.4335   40.2368 O   0  0  0  0  0  0  0  0  0  0  0  0
   27.6394  -13.1036   40.3730 N   0  0  0  0  0  0  0  0  0  0  0  0
   27.1602  -12.4320   41.3095 O   0  0  0  0  0  0  0  0  0  0  0  0
   33.9080  -13.5306   36.8488 C   0  0  0  0  0  0  0  0  0  0  0  0
   35.0641  -12.8356   37.0863 C   0  0  0  0  0  0  0  0  0  0  0  0
   36.3364  -13.3937   36.8799 C   0  0  0  0  0  0  0  0  0  0  0  0
   36.4721  -14.6827   36.4225 C   0  0  0  0  0  0  0  0  0  0  0  0
   35.3201  -15.3979   36.1771 C   0  0  0  0  0  0  0  0  0  0  0  0
   34.0800  -14.8427   36.3826 C   0  0  0  0  0  0  0  0  0  0  0  0
 11 12  1  0  0  0
 12 13  2  0  0  0
 12  5  1  0  0  0
  5  6  2  0  0  0
  6  7  1  0  0  0
  7  8  2  0  0  0
  8  9  1  0  0  0
  9 10  2  0  0  0
  9  1  1  0  0  0
  1  2  2  0  0  0
  1  3  1  0  0  0
  3 14  1  0  0  0
 14 15  2  0  0  0
 15 16  1  0  0  0
 16 17  2  0  0  0
 17 18  1  0  0  0
 18 19  2  0  0  0
 10  5  1  0  0  0
 19 14  1  0  0  0
  3  4  1  0  0  0
M  CHG 1  11  -1
M  CHG 1  12   1
M  END
> <minimizedAffinity>
-7.60301

> <CNNscore>
0.5971840024

> <CNNaffinity>
4.4285316467

> <CNN_VS>
2.6446483135

> <CNNaffinity_variance>
0.3859099150

$$$$
[H]c1c([H])c([H])c(N([H])C(=O)c2c([H])c([H])c([H])c([N+](=O)[O-])c2[H])c([H])c1[H]


 19 20  0  0  0  0  0  0  0  0999 V2000
   33.4862  -12.5652   37.8518 C   0  0  0  0  0  0  0  0  0  0  0  0
   33.3246  -13.3052   38.8512 O   0  0  0  0  0  0  0  0  0  0  0  0
   34.4216  -12.8829   36.8442 N   0  0  0  0  0  0  0  0  0  0  0  0
   34.5319  -12.2269   35.9991 H   0  0  0  0  0  0  0  0  0  0  0  0
   30.4638  -10.3401   37.7728 C   0  0  0  0  0  0  0  0  0  0  0  0
   31.0215   -9.0987   37.5297 C   0  0  0  0  0  0  0  0  0  0  0  0
   32.3621   -8.9789   37.3935 C   0  0  0  0  0  0  0  0  0  0  0  0
   33.1946  -10.1024   37.4965 C   0  0  0  0  0  0  0  0  0  0  0  0
   32.6712  -11.3306   37.7343 C   0  0  0  0  0  0  0  0  0  0  0  0
   31.2873  -11.4387   37.8726 C   0  0  0  0  0  0  0  0  0  0  0  0
   28.4053   -9.7387   38.8624 O   0  0  0  0  0  0  0  0  0  0  0  0
   29.0581  -10.4740   37.9171 N   0  0  0  0  0  0  0  0  0  0  0  0
   28.4487  -11.2668   37.1702 O   0  0  0  0  0  0  0  0  0  0  0  0
   35.2513  -14.0204   36.8574 C   0  0  0  0  0  0  0  0  0  0  0  0
   36.4454  -14.1633   37.5131 C   0  0  0  0  0  0  0  0  0  0  0  0
   37.1854  -15.3567   37.4824 C   0  0  0  0  0  0  0  0  0  0  0  0
   36.7312  -16.4470   36.7793 C   0  0  0  0  0  0  0  0  0  0  0  0
   35.5318  -16.3223   36.1123 C   0  0  0  0  0  0  0  0  0  0  0  0
   34.8152  -15.1503   36.1490 C   0  0  0  0  0  0  0  0  0  0  0  0
 11 12  1  0  0  0
 12 13  2  0  0  0
 12  5  1  0  0  0
  5  6  2  0  0  0
  6  7  1  0  0  0
  7  8  2  0  0  0
  8  9  1  0  0  0
  9 10  2  0  0  0
  9  1  1  0  0  0
  1  2  2  0  0  0
  1  3  1  0  0  0
  3 14  1  0  0  0
 14 15  2  0  0  0
 15 16  1  0  0  0
 16 17  2  0  0  0
 17 18  1  0  0  0
 18 19  2  0  0  0
 10  5  1  0  0  0
 19 14  1  0  0  0
  3  4  1  0  0  0
M  CHG 1  11  -1
M  CHG 1  12   1
M  END
> <minimizedAffinity>
-8.08979

> <CNNscore>
0.5737128854

> <CNNaffinity>
4.3583874702

> <CNN_VS>
2.5004630089

> <CNNaffinity_variance>
0.4495830536

$$$$
[H]c1c([H])c([H])c(N([H])C(=O)c2c([H])c([H])c([H])c([N+](=O)[O-])c2[H])c([H])c1[H]


 19 20  0  0  0  0  0  0  0  0999 V2000
   34.8124  -17.6691   35.2878 C   0  0  0  0  0  0  0  0  0  0  0  0
   35.9250  -17.6832   34.7094 O   0  0  0  0  0  0  0  0  0  0  0  0
   34.4897  -16.6777   36.2388 N   0  0  0  0  0  0  0  0  0  0  0  0
   33.5247  -16.6942   36.7133 H   0  0  0  0  0  0  0  0  0  0  0  0
   33.0508  -20.9836   35.3425 C   0  0  0  0  0  0  0  0  0  0  0  0
   32.0308  -20.7871   34.4302 C   0  0  0  0  0  0  0  0  0  0  0  0
   31.9105  -19.5947   33.8027 C   0  0  0  0  0  0  0  0  0  0  0  0
   32.8107  -18.5530   34.0679 C   0  0  0  0  0  0  0  0  0  0  0  0
   33.8194  -18.7216   34.9583 C   0  0  0  0  0  0  0  0  0  0  0  0
   33.9310  -19.9563   35.5977 C   0  0  0  0  0  0  0  0  0  0  0  0
   34.1369  -22.3842   36.9689 O   0  0  0  0  0  0  0  0  0  0  0  0
   33.1838  -22.2317   36.0051 N   0  0  0  0  0  0  0  0  0  0  0  0
   32.4200  -23.1665   35.6880 O   0  0  0  0  0  0  0  0  0  0  0  0
   35.3559  -15.6400   36.6331 C   0  0  0  0  0  0  0  0  0  0  0  0
   36.4590  -15.7468   37.4380 C   0  0  0  0  0  0  0  0  0  0  0  0
   37.2753  -14.6472   37.7500 C   0  0  0  0  0  0  0  0  0  0  0  0
   36.9923  -13.3983   37.2504 C   0  0  0  0  0  0  0  0  0  0  0  0
   35.8858  -13.2706   36.4391 C   0  0  0  0  0  0  0  0  0  0  0  0
   35.0938  -14.3529   36.1396 C   0  0  0  0  0  0  0  0  0  0  0  0
 11 12  1  0  0  0
 12 13  2  0  0  0
 12  5  1  0  0  0
  5  6  2  0  0  0
  6  7  1  0  0  0
  7  8  2  0  0  0
  8  9  1  0  0  0
  9 10  2  0  0  0
  9  1  1  0  0  0
  1  2  2  0  0  0
  1  3  1  0  0  0
  3 14  1  0  0  0
 14 15  2  0  0  0
 15 16  1  0  0  0
 16 17  2  0  0  0
 17 18  1  0  0  0
 18 19  2  0  0  0
 10  5  1  0  0  0
 19 14  1  0  0  0
  3  4  1  0  0  0
M  CHG 1  11  -1
M  CHG 1  12   1
M  END
> <minimizedAffinity>
-6.02709

> <CNNscore>
0.5679723024

> <CNNaffinity>
3.8118557930

> <CNN_VS>
2.1650285721

> <CNNaffinity_variance>
0.5488487482

$$$$
[H]c1c([H])c([H])c(N([H])C(=O)c2c([H])c([H])c([H])c([N+](=O)[O-])c2[H])c([H])c1[H]


 19 20  0  0  0  0  0  0  0  0999 V2000
   33.1590  -12.8631   37.8118 C   0  0  0  0  0  0  0  0  0  0  0  0
   33.0493  -12.8747   39.0610 O   0  0  0  0  0  0  0  0  0  0  0  0
   32.2612  -12.1369   37.0008 N   0  0  0  0  0  0  0  0  0  0  0  0
   32.3868  -12.1467   35.9327 H   0  0  0  0  0  0  0  0  0  0  0  0
   34.9310  -15.6553   36.0354 C   0  0  0  0  0  0  0  0  0  0  0  0
   36.2298  -15.1853   35.9754 C   0  0  0  0  0  0  0  0  0  0  0  0
   36.5324  -13.9767   36.5024 C   0  0  0  0  0  0  0  0  0  0  0  0
   35.5413  -13.1931   37.1102 C   0  0  0  0  0  0  0  0  0  0  0  0
   34.2604  -13.6325   37.1814 C   0  0  0  0  0  0  0  0  0  0  0  0
   33.9632  -14.8805   36.6337 C   0  0  0  0  0  0  0  0  0  0  0  0
   33.2988  -17.3049   35.4021 O   0  0  0  0  0  0  0  0  0  0  0  0
   34.6055  -16.9223   35.4847 N   0  0  0  0  0  0  0  0  0  0  0  0
   35.5289  -17.6614   35.0863 O   0  0  0  0  0  0  0  0  0  0  0  0
   31.1782  -11.3814   37.4898 C   0  0  0  0  0  0  0  0  0  0  0  0
   29.9746  -11.8583   37.9369 C   0  0  0  0  0  0  0  0  0  0  0  0
   28.9656  -11.0158   38.4320 C   0  0  0  0  0  0  0  0  0  0  0  0
   29.1512   -9.6550   38.4871 C   0  0  0  0  0  0  0  0  0  0  0  0
   30.3558   -9.1561   38.0410 C   0  0  0  0  0  0  0  0  0  0  0  0
   31.3366   -9.9890   37.5587 C   0  0  0  0  0  0  0  0  0  0  0  0
 11 12  1  0  0  0
 12 13  2  0  0  0
 12  5  1  0  0  0
  5  6  2  0  0  0
  6  7  1  0  0  0
  7  8  2  0  0  0
  8  9  1  0  0  0
  9 10  2  0  0  0
  9  1  1  0  0  0
  1  2  2  0  0  0
  1  3  1  0  0  0
  3 14  1  0  0  0
 14 15  2  0  0  0
 15 16  1  0  0  0
 16 17  2  0  0  0
 17 18  1  0  0  0
 18 19  2  0  0  0
 10  5  1  0  0  0
 19 14  1  0  0  0
  3  4  1  0  0  0
M  CHG 1  11  -1
M  CHG 1  12   1
M  END
> <minimizedAffinity>
-7.58270

> <CNNscore>
0.5426756740

> <CNNaffinity>
4.3696327209

> <CNN_VS>
2.3712933064

> <CNNaffinity_variance>
0.3327790797

$$$$
[H]c1c([H])c([H])c(N([H])C(=O)c2c([H])c([H])c([H])c([N+](=O)[O-])c2[H])c([H])c1[H]


 19 20  0  0  0  0  0  0  0  0999 V2000
   32.8517  -12.8160   37.8944 C   0  0  0  0  0  0  0  0  0  0  0  0
   32.7903  -12.8024   39.1468 O   0  0  0  0  0  0  0  0  0  0  0  0
   31.8981  -12.1407   37.1033 N   0  0  0  0  0  0  0  0  0  0  0  0
   31.9831  -12.1710   36.0316 H   0  0  0  0  0  0  0  0  0  0  0  0
   36.3441  -13.8620   36.9991 C   0  0  0  0  0  0  0  0  0  0  0  0
   36.1203  -14.8694   36.0791 C   0  0  0  0  0  0  0  0  0  0  0  0
   34.8530  -15.2103   35.7504 C   0  0  0  0  0  0  0  0  0  0  0  0
   33.7612  -14.5521   36.3337 C   0  0  0  0  0  0  0  0  0  0  0  0
   33.9552  -13.5607   37.2384 C   0  0  0  0  0  0  0  0  0  0  0  0
   35.2672  -13.2201   37.5676 C   0  0  0  0  0  0  0  0  0  0  0  0
   38.2988  -12.5009   36.6630 O   0  0  0  0  0  0  0  0  0  0  0  0
   37.6707  -13.4985   37.3493 N   0  0  0  0  0  0  0  0  0  0  0  0
   38.2347  -14.1044   38.2833 O   0  0  0  0  0  0  0  0  0  0  0  0
   30.8082  -11.4126   37.6176 C   0  0  0  0  0  0  0  0  0  0  0  0
   29.6139  -11.9168   38.0596 C   0  0  0  0  0  0  0  0  0  0  0  0
   28.5968  -11.1008   38.5818 C   0  0  0  0  0  0  0  0  0  0  0  0
   28.7644   -9.7393   38.6700 C   0  0  0  0  0  0  0  0  0  0  0  0
   29.9594   -9.2132   38.2295 C   0  0  0  0  0  0  0  0  0  0  0  0
   30.9483  -10.0203   37.7206 C   0  0  0  0  0  0  0  0  0  0  0  0
 11 12  1  0  0  0
 12 13  2  0  0  0
 12  5  1  0  0  0
  5  6  2  0  0  0
  6  7  1  0  0  0
  7  8  2  0  0  0
  8  9  1  0  0  0
  9 10  2  0  0  0
  9  1  1  0  0  0
  1  2  2  0  0  0
  1  3  1  0  0  0
  3 14  1  0  0  0
 14 15  2  0  0  0
 15 16  1  0  0  0
 16 17  2  0  0  0
 17 18  1  0  0  0
 18 19  2  0  0  0
 10  5  1  0  0  0
 19 14  1  0  0  0
  3  4  1  0  0  0
M  CHG 1  11  -1
M  CHG 1  12   1
M  END
> <minimizedAffinity>
-6.86097

> <CNNscore>
0.5347496867

> <CNNaffinity>
4.4539051056

> <CNN_VS>
2.3817243576

> <CNNaffinity_variance>
0.2583865523

$$$$
[H]c1c([H])c([H])c(N([H])C(=O)c2c([H])c([H])c([H])c([N+](=O)[O-])c2[H])c([H])c1[H]


 19 20  0  0  0  0  0  0  0  0999 V2000
   32.4245  -20.2439   35.9926 C   0  0  0  0  0  0  0  0  0  0  0  0
   33.0578  -20.3053   37.0732 O   0  0  0  0  0  0  0  0  0  0  0  0
   32.8734  -19.4434   34.9208 N   0  0  0  0  0  0  0  0  0  0  0  0
   32.3069  -19.4168   34.0070 H   0  0  0  0  0  0  0  0  0  0  0  0
   30.1757  -23.1782   35.3405 C   0  0  0  0  0  0  0  0  0  0  0  0
   28.9202  -22.6319   35.5317 C   0  0  0  0  0  0  0  0  0  0  0  0
   28.7989  -21.3276   35.8697 C   0  0  0  0  0  0  0  0  0  0  0  0
   29.9349  -20.5215   36.0289 C   0  0  0  0  0  0  0  0  0  0  0  0
   31.1769  -21.0343   35.8466 C   0  0  0  0  0  0  0  0  0  0  0  0
   31.2865  -22.3806   35.4984 C   0  0  0  0  0  0  0  0  0  0  0  0
   30.6005  -24.8812   33.6956 O   0  0  0  0  0  0  0  0  0  0  0  0
   30.3114  -24.5458   34.9858 N   0  0  0  0  0  0  0  0  0  0  0  0
   30.1620  -25.4149   35.8690 O   0  0  0  0  0  0  0  0  0  0  0  0
   34.0351  -18.6483   34.9523 C   0  0  0  0  0  0  0  0  0  0  0  0
   34.2264  -17.4947   35.6655 C   0  0  0  0  0  0  0  0  0  0  0  0
   35.4403  -16.7884   35.6474 C   0  0  0  0  0  0  0  0  0  0  0  0
   36.5024  -17.2363   34.8985 C   0  0  0  0  0  0  0  0  0  0  0  0
   36.3289  -18.3951   34.1734 C   0  0  0  0  0  0  0  0  0  0  0  0
   35.1372  -19.0789   34.1982 C   0  0  0  0  0  0  0  0  0  0  0  0
 11 12  1  0  0  0
 12 13  2  0  0  0
 12  5  1  0  0  0
  5  6  2  0  0  0
  6  7  1  0  0  0
  7  8  2  0  0  0
  8  9  1  0  0  0
  9 10  2  0  0  0
  9  1  1  0  0  0
  1  2  2  0  0  0
  1  3  1  0  0  0
  3 14  1  0  0  0
 14 15  2  0  0  0
 15 16  1  0  0  0
 16 17  2  0  0  0
 17 18  1  0  0  0
 18 19  2  0  0  0
 10  5  1  0  0  0
 19 14  1  0  0  0
  3  4  1  0  0  0
M  CHG 1  11  -1
M  CHG 1  12   1
M  END
> <minimizedAffinity>
-4.84318

> <CNNscore>
0.4970386922

> <CNNaffinity>
3.6177611351

> <CNN_VS>
1.7981672287

> <CNNaffinity_variance>
0.4229641855

$$$$
[H]c1c([H])c([H])c(N([H])C(=O)c2c([H])c([H])c([H])c([N+](=O)[O-])c2[H])c([H])c1[H]


 19 20  0  0  0  0  0  0  0  0999 V2000
   34.8932  -17.6297   35.7932 C   0  0  0  0  0  0  0  0  0  0  0  0
   35.8828  -17.6141   35.0232 O   0  0  0  0  0  0  0  0  0  0  0  0
   34.6757  -16.6000   36.7333 N   0  0  0  0  0  0  0  0  0  0  0  0
   33.8146  -16.6439   37.3761 H   0  0  0  0  0  0  0  0  0  0  0  0
   31.6652  -19.4707   35.2612 C   0  0  0  0  0  0  0  0  0  0  0  0
   32.0307  -20.7798   35.5146 C   0  0  0  0  0  0  0  0  0  0  0  0
   33.3084  -21.0676   35.8532 C   0  0  0  0  0  0  0  0  0  0  0  0
   34.2689  -20.0509   35.9502 C   0  0  0  0  0  0  0  0  0  0  0  0
   33.9347  -18.7594   35.7066 C   0  0  0  0  0  0  0  0  0  0  0  0
   32.6136  -18.4777   35.3585 C   0  0  0  0  0  0  0  0  0  0  0  0
   29.4312  -18.8274   35.8788 O   0  0  0  0  0  0  0  0  0  0  0  0
   30.3267  -19.1606   34.9053 N   0  0  0  0  0  0  0  0  0  0  0  0
   29.9987  -19.2003   33.7017 O   0  0  0  0  0  0  0  0  0  0  0  0
   35.5223  -15.4884   36.9074 C   0  0  0  0  0  0  0  0  0  0  0  0
   36.7242  -15.4613   37.5637 C   0  0  0  0  0  0  0  0  0  0  0  0
   37.5071  -14.2989   37.6575 C   0  0  0  0  0  0  0  0  0  0  0  0
   37.0885  -13.1220   37.0839 C   0  0  0  0  0  0  0  0  0  0  0  0
   35.8812  -13.1292   36.4197 C   0  0  0  0  0  0  0  0  0  0  0  0
   35.1229  -14.2720   36.3334 C   0  0  0  0  0  0  0  0  0  0  0  0
 11 12  1  0  0  0
 12 13  2  0  0  0
 12  5  1  0  0  0
  5  6  2  0  0  0
  6  7  1  0  0  0
  7  8  2  0  0  0
  8  9  1  0  0  0
  9 10  2  0  0  0
  9  1  1  0  0  0
  1  2  2  0  0  0
  1  3  1  0  0  0
  3 14  1  0  0  0
 14 15  2  0  0  0
 15 16  1  0  0  0
 16 17  2  0  0  0
 17 18  1  0  0  0
 18 19  2  0  0  0
 10  5  1  0  0  0
 19 14  1  0  0  0
  3  4  1  0  0  0
M  CHG 1  11  -1
M  CHG 1  12   1
M  END
> <minimizedAffinity>
-5.35926

> <CNNscore>
0.4930772185

> <CNNaffinity>
3.9624354839

> <CNN_VS>
1.9537866116

> <CNNaffinity_variance>
0.2364634722

$$$$
[H]c1c([H])c([H])c(N([H])C(=O)c2c([H])c([H])c([H])c([N+](=O)[O-])c2[H])c([H])c1[H]


 19 20  0  0  0  0  0  0  0  0999 V2000
   31.7343  -20.5910   36.2858 C   0  0  0  0  0  0  0  0  0  0  0  0
   32.0938  -21.4257   37.1499 O   0  0  0  0  0  0  0  0  0  0  0  0
   30.4162  -20.5743   35.7821 N   0  0  0  0  0  0  0  0  0  0  0  0
   30.1415  -19.8423   35.0436 H   0  0  0  0  0  0  0  0  0  0  0  0
   34.8742  -18.5414   36.1072 C   0  0  0  0  0  0  0  0  0  0  0  0
   34.6614  -17.7796   34.9732 C   0  0  0  0  0  0  0  0  0  0  0  0
   33.5149  -17.9261   34.2703 C   0  0  0  0  0  0  0  0  0  0  0  0
   32.5375  -18.8443   34.6795 C   0  0  0  0  0  0  0  0  0  0  0  0
   32.7231  -19.6026   35.7883 C   0  0  0  0  0  0  0  0  0  0  0  0
   33.9101  -19.4407   36.5030 C   0  0  0  0  0  0  0  0  0  0  0  0
   36.6871  -17.1760   36.9044 O   0  0  0  0  0  0  0  0  0  0  0  0
   36.0745  -18.3936   36.8502 N   0  0  0  0  0  0  0  0  0  0  0  0
   36.5441  -19.3880   37.4404 O   0  0  0  0  0  0  0  0  0  0  0  0
   29.4017  -21.4680   36.1753 C   0  0  0  0  0  0  0  0  0  0  0  0
   28.4723  -21.2783   37.1633 C   0  0  0  0  0  0  0  0  0  0  0  0
   27.4806  -22.2279   37.4594 C   0  0  0  0  0  0  0  0  0  0  0  0
   27.4042  -23.4064   36.7560 C   0  0  0  0  0  0  0  0  0  0  0  0
   28.3313  -23.6157   35.7582 C   0  0  0  0  0  0  0  0  0  0  0  0
   29.2974  -22.6800   35.4762 C   0  0  0  0  0  0  0  0  0  0  0  0
 11 12  1  0  0  0
 12 13  2  0  0  0
 12  5  1  0  0  0
  5  6  2  0  0  0
  6  7  1  0  0  0
  7  8  2  0  0  0
  8  9  1  0  0  0
  9 10  2  0  0  0
  9  1  1  0  0  0
  1  2  2  0  0  0
  1  3  1  0  0  0
  3 14  1  0  0  0
 14 15  2  0  0  0
 15 16  1  0  0  0
 16 17  2  0  0  0
 17 18  1  0  0  0
 18 19  2  0  0  0
 10  5  1  0  0  0
 19 14  1  0  0  0
  3  4  1  0  0  0
M  CHG 1  11  -1
M  CHG 1  12   1
M  END
> <minimizedAffinity>
-4.57478

> <CNNscore>
0.4898355007

> <CNNaffinity>
3.4649281502

> <CNN_VS>
1.6972447634

> <CNNaffinity_variance>
0.4247109890

$$$$
[H]N=C(N([H])[H])N([H])C([H])([H])C([H])([H])C([H])([H])[C@@]([H])(C(=O)c1nc([H])c([H])s1)N([H])C(=O)[C@@]([H])(N([H])C(=O)[C@@]([H])(N([H])C(=O)OC([H])([H])c1c([H])c([H])c([H])c([H])c1[H])C([H])([H])C([H])([H])C(=O)N([H])[H])C([H])([H])C([H])([H])C([H])([H])N([H])C(=N[H])N([H])[H]


 59 60  0  0  0  0  0  0  0  0999 V2000
   32.8731  -12.6584   37.8033 C   0  0  0  0  0  0  0  0  0  0  0  0
   33.1669  -13.9112   37.1100 N   0  0  0  0  0  0  0  0  0  0  0  0
   34.4347  -14.5067   37.2070 C   0  0  0  0  0  0  0  0  0  0  0  0
   35.3460  -13.9359   37.9304 O   0  0  0  0  0  0  0  0  0  0  0  0
   32.3959  -14.3264   36.5910 H   0  0  0  0  0  0  0  0  0  0  0  0
   34.8590  -15.7515   36.5659 C   0  0  0  0  0  0  0  0  0  0  0  0
   33.8021  -16.2814   35.7331 N   0  0  0  0  0  0  0  0  0  0  0  0
   33.4155  -17.6319   35.6305 C   0  0  0  0  0  0  0  0  0  0  0  0
   33.9780  -18.5486   36.2799 O   0  0  0  0  0  0  0  0  0  0  0  0
   33.2825  -15.5611   35.1574 H   0  0  0  0  0  0  0  0  0  0  0  0
   32.3773  -17.9651   34.7859 O   0  0  0  0  0  0  0  0  0  0  0  0
   32.3155  -19.0917   33.9420 C   0  0  0  0  0  0  0  0  0  0  0  0
   31.4181  -20.1068   34.5906 C   0  0  0  0  0  0  0  0  0  0  0  0
   30.1594  -19.7010   35.0421 C   0  0  0  0  0  0  0  0  0  0  0  0
   29.3390  -20.6218   35.6425 C   0  0  0  0  0  0  0  0  0  0  0  0
   29.7585  -21.9159   35.7916 C   0  0  0  0  0  0  0  0  0  0  0  0
   30.9971  -22.3352   35.3528 C   0  0  0  0  0  0  0  0  0  0  0  0
   31.8283  -21.4033   34.7443 C   0  0  0  0  0  0  0  0  0  0  0  0
   36.2154  -15.7749   36.0357 C   0  0  0  0  0  0  0  0  0  0  0  0
   36.5756  -16.7455   34.9728 C   0  0  0  0  0  0  0  0  0  0  0  0
   37.2610  -17.9838   35.4481 C   0  0  0  0  0  0  0  0  0  0  0  0
   37.1147  -18.3153   36.8140 N   0  0  0  0  0  0  0  0  0  0  0  0
   37.9403  -18.7061   34.6863 O   0  0  0  0  0  0  0  0  0  0  0  0
   37.9068  -18.7572   37.3085 H   0  0  0  0  0  0  0  0  0  0  0  0
   36.2380  -18.1273   37.3277 H   0  0  0  0  0  0  0  0  0  0  0  0
   31.4572  -12.2591   37.6897 C   0  0  0  0  0  0  0  0  0  0  0  0
   30.9810  -12.0685   36.5191 O   0  0  0  0  0  0  0  0  0  0  0  0
   30.6099  -12.0842   38.7927 N   0  0  0  0  0  0  0  0  0  0  0  0
   30.8718  -12.2196   39.7799 H   0  0  0  0  0  0  0  0  0  0  0  0
   29.1963  -11.6654   38.5588 C   0  0  0  0  0  0  0  0  0  0  0  0
   29.0970  -10.3024   39.0656 C   0  0  0  0  0  0  0  0  0  0  0  0
   29.7208   -9.3741   38.4170 O   0  0  0  0  0  0  0  0  0  0  0  0
   28.3856   -9.8507   40.2425 C   0  0  0  0  0  0  0  0  0  0  0  0
   28.4627  -10.0984   41.5349 N   0  0  0  0  0  0  0  0  0  0  0  0
   27.6836   -9.5459   42.3880 C   0  0  0  0  0  0  0  0  0  0  0  0
   26.7412   -8.6679   41.9185 C   0  0  0  0  0  0  0  0  0  0  0  0
   27.0587   -8.7068   40.2465 S   0  0  0  0  0  0  0  0  0  0  0  0
   28.2101  -12.6781   38.9815 C   0  0  0  0  0  0  0  0  0  0  0  0
   28.8403  -13.6889   39.8946 C   0  0  0  0  0  0  0  0  0  0  0  0
   27.8299  -14.6539   40.4718 C   0  0  0  0  0  0  0  0  0  0  0  0
   27.8712  -15.8695   39.7112 N   0  0  0  0  0  0  0  0  0  0  0  0
   28.0334  -15.8503   38.6806 H   0  0  0  0  0  0  0  0  0  0  0  0
   27.6918  -17.1487   40.3169 C   0  0  0  0  0  0  0  0  0  0  0  0
   28.2318  -17.4259   41.6113 N   0  0  0  0  0  0  0  0  0  0  0  0
   27.0359  -18.0565   39.6842 N   0  0  0  0  0  0  0  0  0  0  0  0
   27.7498  -17.2388   42.5020 H   0  0  0  0  0  0  0  0  0  0  0  0
   29.1846  -17.8467   41.6453 H   0  0  0  0  0  0  0  0  0  0  0  0
   26.8883  -19.0089   40.1032 H   0  0  0  0  0  0  0  0  0  0  0  0
   33.6967  -11.5302   37.2011 C   0  0  0  0  0  0  0  0  0  0  0  0
   33.4904  -10.2439   37.9766 C   0  0  0  0  0  0  0  0  0  0  0  0
   32.9281   -9.2169   37.0202 C   0  0  0  0  0  0  0  0  0  0  0  0
   33.8788   -8.2100   36.6423 N   0  0  0  0  0  0  0  0  0  0  0  0
   34.0976   -7.3635   37.2048 H   0  0  0  0  0  0  0  0  0  0  0  0
   35.7060   -9.2377   35.3360 N   0  0  0  0  0  0  0  0  0  0  0  0
   34.5662   -8.3840   35.4137 C   0  0  0  0  0  0  0  0  0  0  0  0
   34.1909   -7.7817   34.3239 N   0  0  0  0  0  0  0  0  0  0  0  0
   35.7478  -10.1146   34.7787 H   0  0  0  0  0  0  0  0  0  0  0  0
   36.5555   -8.9690   35.8711 H   0  0  0  0  0  0  0  0  0  0  0  0
   34.7045   -7.9192   33.4323 H   0  0  0  0  0  0  0  0  0  0  0  0
 54 55  1  0  0  0
 55 56  2  0  0  0
 55 52  1  0  0  0
 52 51  1  0  0  0
 51 50  1  0  0  0
 50 49  1  0  0  0
 49  1  1  0  0  0
  1  2  1  0  0  0
  2  3  1  0  0  0
  3  4  2  0  0  0
  3  6  1  0  0  0
  6 19  1  0  0  0
 19 20  1  0  0  0
 20 21  1  0  0  0
 21 22  1  0  0  0
 21 23  2  0  0  0
  6  7  1  0  0  0
  7  8  1  0  0  0
  8  9  2  0  0  0
  8 11  1  0  0  0
 11 12  1  0  0  0
 12 13  1  0  0  0
 13 14  2  0  0  0
 14 15  1  0  0  0
 15 16  2  0  0  0
 16 17  1  0  0  0
 17 18  2  0  0  0
  1 26  1  0  0  0
 26 27  2  0  0  0
 26 28  1  0  0  0
 28 30  1  0  0  0
 30 38  1  0  0  0
 38 39  1  0  0  0
 39 40  1  0  0  0
 40 41  1  0  0  0
 41 43  1  0  0  0
 43 44  1  0  0  0
 43 45  2  0  0  0
 30 31  1  0  0  0
 31 32  2  0  0  0
 31 33  1  0  0  0
 33 34  2  0  0  0
 34 35  1  0  0  0
 35 36  2  0  0  0
 36 37  1  0  0  0
 18 13  1  0  0  0
 37 33  1  0  0  0
 54 57  1  0  0  0
 54 58  1  0  0  0
 56 59  1  0  0  0
 52 53  1  0  0  0
  2  5  1  0  0  0
 22 24  1  0  0  0
 22 25  1  0  0  0
  7 10  1  0  0  0
 28 29  1  0  0  0
 41 42  1  0  0  0
 44 46  1  0  0  0
 44 47  1  0  0  0
 45 48  1  0  0  0
M  END
> <minimizedAffinity>
-7.44234

> <CNNscore>
0.4999501407

> <CNNaffinity>
7.6518516541

> <CNN_VS>
3.8255443573

> <CNNaffinity_variance>
0.3778295517

$$$$
[H]N=C(N([H])[H])N([H])C([H])([H])C([H])([H])C([H])([H])[C@@]([H])(C(=O)c1nc([H])c([H])s1)N([H])C(=O)[C@@]([H])(N([H])C(=O)[C@@]([H])(N([H])C(=O)OC([H])([H])c1c([H])c([H])c([H])c([H])c1[H])C([H])([H])C([H])([H])C(=O)N([H])[H])C([H])([H])C([H])([H])C([H])([H])N([H])C(=N[H])N([H])[H]


 59 60  0  0  0  0  0  0  0  0999 V2000
   32.8503  -12.8065   37.6857 C   0  0  0  0  0  0  0  0  0  0  0  0
   33.1170  -13.9419   36.8045 N   0  0  0  0  0  0  0  0  0  0  0  0
   34.3411  -14.6271   36.8650 C   0  0  0  0  0  0  0  0  0  0  0  0
   35.2352  -14.2467   37.7224 O   0  0  0  0  0  0  0  0  0  0  0  0
   32.3584  -14.2126   36.1822 H   0  0  0  0  0  0  0  0  0  0  0  0
   34.7349  -15.7719   36.0435 C   0  0  0  0  0  0  0  0  0  0  0  0
   35.7917  -16.5208   36.6866 N   0  0  0  0  0  0  0  0  0  0  0  0
   36.8206  -17.2363   36.0436 C   0  0  0  0  0  0  0  0  0  0  0  0
   36.9232  -17.2981   34.7930 O   0  0  0  0  0  0  0  0  0  0  0  0
   35.7674  -16.5103   37.7447 H   0  0  0  0  0  0  0  0  0  0  0  0
   37.7556  -17.8953   36.8142 O   0  0  0  0  0  0  0  0  0  0  0  0
   38.2828  -19.1792   36.5719 C   0  0  0  0  0  0  0  0  0  0  0  0
   39.6794  -19.0137   36.0440 C   0  0  0  0  0  0  0  0  0  0  0  0
   40.7151  -18.7641   36.9484 C   0  0  0  0  0  0  0  0  0  0  0  0
   41.9912  -18.6039   36.4712 C   0  0  0  0  0  0  0  0  0  0  0  0
   42.2335  -18.6892   35.1269 C   0  0  0  0  0  0  0  0  0  0  0  0
   41.2245  -18.9344   34.2190 C   0  0  0  0  0  0  0  0  0  0  0  0
   39.9321  -19.0972   34.7017 C   0  0  0  0  0  0  0  0  0  0  0  0
   33.6528  -16.5240   35.4230 C   0  0  0  0  0  0  0  0  0  0  0  0
   33.4849  -17.9657   35.7310 C   0  0  0  0  0  0  0  0  0  0  0  0
   32.5556  -18.7052   34.8261 C   0  0  0  0  0  0  0  0  0  0  0  0
   31.1721  -18.5834   35.0871 N   0  0  0  0  0  0  0  0  0  0  0  0
   32.9655  -19.4077   33.8764 O   0  0  0  0  0  0  0  0  0  0  0  0
   30.5582  -19.3969   34.9179 H   0  0  0  0  0  0  0  0  0  0  0  0
   30.7615  -17.7038   35.4414 H   0  0  0  0  0  0  0  0  0  0  0  0
   31.4449  -12.3602   37.6355 C   0  0  0  0  0  0  0  0  0  0  0  0
   30.9503  -12.0664   36.4942 O   0  0  0  0  0  0  0  0  0  0  0  0
   30.6262  -12.2474   38.7679 N   0  0  0  0  0  0  0  0  0  0  0  0
   30.9044  -12.4660   39.7355 H   0  0  0  0  0  0  0  0  0  0  0  0
   29.2210  -11.7724   38.5992 C   0  0  0  0  0  0  0  0  0  0  0  0
   29.2150  -10.3845   39.0446 C   0  0  0  0  0  0  0  0  0  0  0  0
   29.9337   -9.5385   38.3817 O   0  0  0  0  0  0  0  0  0  0  0  0
   28.5027   -9.8258   40.1740 C   0  0  0  0  0  0  0  0  0  0  0  0
   28.5047  -10.0312   41.4761 N   0  0  0  0  0  0  0  0  0  0  0  0
   27.7474   -9.3780   42.2759 C   0  0  0  0  0  0  0  0  0  0  0  0
   26.9106   -8.4351   41.7371 C   0  0  0  0  0  0  0  0  0  0  0  0
   27.2894   -8.5653   40.0826 S   0  0  0  0  0  0  0  0  0  0  0  0
   28.2184  -12.7164   39.1288 C   0  0  0  0  0  0  0  0  0  0  0  0
   28.8784  -13.8112   39.9150 C   0  0  0  0  0  0  0  0  0  0  0  0
   27.8923  -14.5993   40.7467 C   0  0  0  0  0  0  0  0  0  0  0  0
   27.4674  -15.7427   39.9919 N   0  0  0  0  0  0  0  0  0  0  0  0
   26.9950  -15.6286   39.0685 H   0  0  0  0  0  0  0  0  0  0  0  0
   27.6638  -17.0757   40.4608 C   0  0  0  0  0  0  0  0  0  0  0  0
   26.7444  -18.1144   40.1147 N   0  0  0  0  0  0  0  0  0  0  0  0
   28.6819  -17.3368   41.2026 N   0  0  0  0  0  0  0  0  0  0  0  0
   26.8045  -18.6942   39.2657 H   0  0  0  0  0  0  0  0  0  0  0  0
   25.9580  -18.2887   40.7761 H   0  0  0  0  0  0  0  0  0  0  0  0
   28.8528  -18.3084   41.5647 H   0  0  0  0  0  0  0  0  0  0  0  0
   33.7031  -11.6181   37.2681 C   0  0  0  0  0  0  0  0  0  0  0  0
   33.3128  -10.3785   38.0489 C   0  0  0  0  0  0  0  0  0  0  0  0
   33.1898   -9.2369   37.0655 C   0  0  0  0  0  0  0  0  0  0  0  0
   34.4369   -8.5781   36.7987 N   0  0  0  0  0  0  0  0  0  0  0  0
   34.9353   -7.9623   37.4718 H   0  0  0  0  0  0  0  0  0  0  0  0
   35.8749   -9.9066   35.2925 N   0  0  0  0  0  0  0  0  0  0  0  0
   35.0285   -8.7828   35.5257 C   0  0  0  0  0  0  0  0  0  0  0  0
   34.8260   -7.9665   34.5336 N   0  0  0  0  0  0  0  0  0  0  0  0
   35.6561  -10.6820   34.6351 H   0  0  0  0  0  0  0  0  0  0  0  0
   36.7732   -9.9584   35.8126 H   0  0  0  0  0  0  0  0  0  0  0  0
   35.2663   -8.1298   33.6078 H   0  0  0  0  0  0  0  0  0  0  0  0
 54 55  1  0  0  0
 55 56  2  0  0  0
 55 52  1  0  0  0
 52 51  1  0  0  0
 51 50  1  0  0  0
 50 49  1  0  0  0
 49  1  1  0  0  0
  1  2  1  0  0  0
  2  3  1  0  0  0
  3  4  2  0  0  0
  3  6  1  0  0  0
  6 19  1  0  0  0
 19 20  1  0  0  0
 20 21  1  0  0  0
 21 22  1  0  0  0
 21 23  2  0  0  0
  6  7  1  0  0  0
  7  8  1  0  0  0
  8  9  2  0  0  0
  8 11  1  0  0  0
 11 12  1  0  0  0
 12 13  1  0  0  0
 13 14  2  0  0  0
 14 15  1  0  0  0
 15 16  2  0  0  0
 16 17  1  0  0  0
 17 18  2  0  0  0
  1 26  1  0  0  0
 26 27  2  0  0  0
 26 28  1  0  0  0
 28 30  1  0  0  0
 30 38  1  0  0  0
 38 39  1  0  0  0
 39 40  1  0  0  0
 40 41  1  0  0  0
 41 43  1  0  0  0
 43 44  1  0  0  0
 43 45  2  0  0  0
 30 31  1  0  0  0
 31 32  2  0  0  0
 31 33  1  0  0  0
 33 34  2  0  0  0
 34 35  1  0  0  0
 35 36  2  0  0  0
 36 37  1  0  0  0
 18 13  1  0  0  0
 37 33  1  0  0  0
 54 57  1  0  0  0
 54 58  1  0  0  0
 56 59  1  0  0  0
 52 53  1  0  0  0
  2  5  1  0  0  0
 22 24  1  0  0  0
 22 25  1  0  0  0
  7 10  1  0  0  0
 28 29  1  0  0  0
 41 42  1  0  0  0
 44 46  1  0  0  0
 44 47  1  0  0  0
 45 48  1  0  0  0
M  END
> <minimizedAffinity>
-7.36845

> <CNNscore>
0.3956545293

> <CNNaffinity>
7.4782743454

> <CNN_VS>
2.9588131905

> <CNNaffinity_variance>
0.2641266882

$$$$
[H]N=C(N([H])[H])N([H])C([H])([H])C([H])([H])C([H])([H])[C@@]([H])(C(=O)c1nc([H])c([H])s1)N([H])C(=O)[C@@]([H])(N([H])C(=O)[C@@]([H])(N([H])C(=O)OC([H])([H])c1c([H])c([H])c([H])c([H])c1[H])C([H])([H])C([H])([H])C(=O)N([H])[H])C([H])([H])C([H])([H])C([H])([H])N([H])C(=N[H])N([H])[H]


 59 60  0  0  0  0  0  0  0  0999 V2000
   35.5009  -18.4564   35.5951 C   0  0  0  0  0  0  0  0  0  0  0  0
   35.6726  -17.0911   36.0882 N   0  0  0  0  0  0  0  0  0  0  0  0
   34.5877  -16.2009   36.1329 C   0  0  0  0  0  0  0  0  0  0  0  0
   33.4219  -16.6070   35.7388 O   0  0  0  0  0  0  0  0  0  0  0  0
   36.6046  -16.8489   36.4181 H   0  0  0  0  0  0  0  0  0  0  0  0
   34.6228  -14.8146   36.5994 C   0  0  0  0  0  0  0  0  0  0  0  0
   33.3067  -14.2197   36.5279 N   0  0  0  0  0  0  0  0  0  0  0  0
   32.9671  -12.8965   36.8710 C   0  0  0  0  0  0  0  0  0  0  0  0
   33.8121  -12.0683   37.2938 O   0  0  0  0  0  0  0  0  0  0  0  0
   32.5433  -14.8632   36.1766 H   0  0  0  0  0  0  0  0  0  0  0  0
   31.6562  -12.4894   36.7374 O   0  0  0  0  0  0  0  0  0  0  0  0
   31.0803  -11.3305   37.2946 C   0  0  0  0  0  0  0  0  0  0  0  0
   29.8153  -11.7342   37.9968 C   0  0  0  0  0  0  0  0  0  0  0  0
   28.6160  -11.1178   37.6296 C   0  0  0  0  0  0  0  0  0  0  0  0
   27.4590  -11.4766   38.2732 C   0  0  0  0  0  0  0  0  0  0  0  0
   27.4917  -12.4254   39.2590 C   0  0  0  0  0  0  0  0  0  0  0  0
   28.6654  -13.0444   39.6354 C   0  0  0  0  0  0  0  0  0  0  0  0
   29.8374  -12.6819   38.9838 C   0  0  0  0  0  0  0  0  0  0  0  0
   35.4199  -14.5543   37.7904 C   0  0  0  0  0  0  0  0  0  0  0  0
   36.8986  -14.6593   37.7261 C   0  0  0  0  0  0  0  0  0  0  0  0
   37.6072  -13.4126   37.3105 C   0  0  0  0  0  0  0  0  0  0  0  0
   36.8357  -12.4193   36.6663 N   0  0  0  0  0  0  0  0  0  0  0  0
   38.8288  -13.2390   37.5130 O   0  0  0  0  0  0  0  0  0  0  0  0
   37.2722  -11.8530   35.9206 H   0  0  0  0  0  0  0  0  0  0  0  0
   35.8496  -12.2463   36.9224 H   0  0  0  0  0  0  0  0  0  0  0  0
   36.6331  -19.3370   35.9408 C   0  0  0  0  0  0  0  0  0  0  0  0
   37.1129  -20.0843   35.0218 O   0  0  0  0  0  0  0  0  0  0  0  0
   37.2107  -19.3925   37.2170 N   0  0  0  0  0  0  0  0  0  0  0  0
   36.9224  -18.8330   38.0326 H   0  0  0  0  0  0  0  0  0  0  0  0
   38.3460  -20.3320   37.4561 C   0  0  0  0  0  0  0  0  0  0  0  0
   38.1050  -20.9200   38.7679 C   0  0  0  0  0  0  0  0  0  0  0  0
   39.1328  -21.1703   39.5113 O   0  0  0  0  0  0  0  0  0  0  0  0
   36.8300  -21.2843   39.3483 C   0  0  0  0  0  0  0  0  0  0  0  0
   35.6114  -20.7825   39.3196 N   0  0  0  0  0  0  0  0  0  0  0  0
   34.6320  -21.3203   39.9455 C   0  0  0  0  0  0  0  0  0  0  0  0
   34.8821  -22.4592   40.6664 C   0  0  0  0  0  0  0  0  0  0  0  0
   36.5465  -22.6721   40.3792 S   0  0  0  0  0  0  0  0  0  0  0  0
   39.6639  -19.7454   37.1468 C   0  0  0  0  0  0  0  0  0  0  0  0
   40.5248  -20.7266   36.4060 C   0  0  0  0  0  0  0  0  0  0  0  0
   41.0430  -20.1685   35.1002 C   0  0  0  0  0  0  0  0  0  0  0  0
   39.9243  -19.8741   34.2519 N   0  0  0  0  0  0  0  0  0  0  0  0
   39.1174  -20.5321   34.1832 H   0  0  0  0  0  0  0  0  0  0  0  0
   39.8608  -18.6842   33.4674 C   0  0  0  0  0  0  0  0  0  0  0  0
   38.6391  -18.2879   32.8394 N   0  0  0  0  0  0  0  0  0  0  0  0
   40.9192  -17.9662   33.3290 N   0  0  0  0  0  0  0  0  0  0  0  0
   37.9107  -17.7100   33.2823 H   0  0  0  0  0  0  0  0  0  0  0  0
   38.4829  -18.6145   31.8621 H   0  0  0  0  0  0  0  0  0  0  0  0
   40.9045  -17.0852   32.7562 H   0  0  0  0  0  0  0  0  0  0  0  0
   35.3996  -18.4477   34.0773 C   0  0  0  0  0  0  0  0  0  0  0  0
   34.3088  -19.3903   33.6082 C   0  0  0  0  0  0  0  0  0  0  0  0
   33.3505  -19.5922   34.7600 C   0  0  0  0  0  0  0  0  0  0  0  0
   32.1074  -18.8935   34.5958 N   0  0  0  0  0  0  0  0  0  0  0  0
   31.9941  -18.0064   34.0659 H   0  0  0  0  0  0  0  0  0  0  0  0
   30.9735  -20.7922   35.6961 N   0  0  0  0  0  0  0  0  0  0  0  0
   30.9538  -19.4548   35.2012 C   0  0  0  0  0  0  0  0  0  0  0  0
   29.8475  -18.7830   35.3283 N   0  0  0  0  0  0  0  0  0  0  0  0
   30.8744  -21.0504   36.6985 H   0  0  0  0  0  0  0  0  0  0  0  0
   31.0946  -21.5649   35.0118 H   0  0  0  0  0  0  0  0  0  0  0  0
   29.0116  -19.2078   35.7736 H   0  0  0  0  0  0  0  0  0  0  0  0
 54 55  1  0  0  0
 55 56  2  0  0  0
 55 52  1  0  0  0
 52 51  1  0  0  0
 51 50  1  0  0  0
 50 49  1  0  0  0
 49  1  1  0  0  0
  1  2  1  0  0  0
  2  3  1  0  0  0
  3  4  2  0  0  0
  3  6  1  0  0  0
  6 19  1  0  0  0
 19 20  1  0  0  0
 20 21  1  0  0  0
 21 22  1  0  0  0
 21 23  2  0  0  0
  6  7  1  0  0  0
  7  8  1  0  0  0
  8  9  2  0  0  0
  8 11  1  0  0  0
 11 12  1  0  0  0
 12 13  1  0  0  0
 13 14  2  0  0  0
 14 15  1  0  0  0
 15 16  2  0  0  0
 16 17  1  0  0  0
 17 18  2  0  0  0
  1 26  1  0  0  0
 26 27  2  0  0  0
 26 28  1  0  0  0
 28 30  1  0  0  0
 30 38  1  0  0  0
 38 39  1  0  0  0
 39 40  1  0  0  0
 40 41  1  0  0  0
 41 43  1  0  0  0
 43 44  1  0  0  0
 43 45  2  0  0  0
 30 31  1  0  0  0
 31 32  2  0  0  0
 31 33  1  0  0  0
 33 34  2  0  0  0
 34 35  1  0  0  0
 35 36  2  0  0  0
 36 37  1  0  0  0
 18 13  1  0  0  0
 37 33  1  0  0  0
 54 57  1  0  0  0
 54 58  1  0  0  0
 56 59  1  0  0  0
 52 53  1  0  0  0
  2  5  1  0  0  0
 22 24  1  0  0  0
 22 25  1  0  0  0
  7 10  1  0  0  0
 28 29  1  0  0  0
 41 42  1  0  0  0
 44 46  1  0  0  0
 44 47  1  0  0  0
 45 48  1  0  0  0
M  END
> <minimizedAffinity>
-7.10150

> <CNNscore>
0.3797641397

> <CNNaffinity>
6.7734613419

> <CNN_VS>
2.5723176003

> <CNNaffinity_variance>
0.5440016985

$$$$
[H]N=C(N([H])[H])N([H])C([H])([H])C([H])([H])C([H])([H])[C@@]([H])(C(=O)c1nc([H])c([H])s1)N([H])C(=O)[C@@]([H])(N([H])C(=O)[C@@]([H])(N([H])C(=O)OC([H])([H])c1c([H])c([H])c([H])c([H])c1[H])C([H])([H])C([H])([H])C(=O)N([H])[H])C([H])([H])C([H])([H])C([H])([H])N([H])C(=N[H])N([H])[H]


 59 60  0  0  0  0  0  0  0  0999 V2000
   41.0688  -20.0608   36.6980 C   0  0  0  0  0  0  0  0  0  0  0  0
   39.8261  -19.3048   36.5540 N   0  0  0  0  0  0  0  0  0  0  0  0
   38.7874  -19.7775   35.7361 C   0  0  0  0  0  0  0  0  0  0  0  0
   38.9381  -20.9036   35.1127 O   0  0  0  0  0  0  0  0  0  0  0  0
   39.7576  -18.4489   37.1007 H   0  0  0  0  0  0  0  0  0  0  0  0
   37.5001  -19.1219   35.5041 C   0  0  0  0  0  0  0  0  0  0  0  0
   37.5942  -17.7045   35.7751 N   0  0  0  0  0  0  0  0  0  0  0  0
   36.8129  -16.9745   36.6919 C   0  0  0  0  0  0  0  0  0  0  0  0
   35.9167  -17.5073   37.3928 O   0  0  0  0  0  0  0  0  0  0  0  0
   38.3334  -17.1908   35.2183 H   0  0  0  0  0  0  0  0  0  0  0  0
   37.0389  -15.6209   36.8297 O   0  0  0  0  0  0  0  0  0  0  0  0
   36.7117  -14.8289   37.9481 C   0  0  0  0  0  0  0  0  0  0  0  0
   35.6767  -13.8282   37.5195 C   0  0  0  0  0  0  0  0  0  0  0  0
   34.3401  -14.0560   37.8580 C   0  0  0  0  0  0  0  0  0  0  0  0
   33.3895  -13.1497   37.4621 C   0  0  0  0  0  0  0  0  0  0  0  0
   33.7573  -12.0427   36.7463 C   0  0  0  0  0  0  0  0  0  0  0  0
   35.0710  -11.8010   36.4025 C   0  0  0  0  0  0  0  0  0  0  0  0
   36.0342  -12.7181   36.8035 C   0  0  0  0  0  0  0  0  0  0  0  0
   36.7694  -19.5370   34.3145 C   0  0  0  0  0  0  0  0  0  0  0  0
   35.7366  -18.6439   33.7338 C   0  0  0  0  0  0  0  0  0  0  0  0
   34.3538  -18.8442   34.2601 C   0  0  0  0  0  0  0  0  0  0  0  0
   33.9881  -20.1605   34.6214 N   0  0  0  0  0  0  0  0  0  0  0  0
   33.5414  -17.9013   34.3804 O   0  0  0  0  0  0  0  0  0  0  0  0
   33.0148  -20.4695   34.4647 H   0  0  0  0  0  0  0  0  0  0  0  0
   34.6680  -20.8185   35.0370 H   0  0  0  0  0  0  0  0  0  0  0  0
   41.2071  -20.6881   38.0263 C   0  0  0  0  0  0  0  0  0  0  0  0
   42.3785  -21.0256   38.4100 O   0  0  0  0  0  0  0  0  0  0  0  0
   40.1269  -20.9269   38.8873 N   0  0  0  0  0  0  0  0  0  0  0  0
   39.1425  -20.6897   38.6975 H   0  0  0  0  0  0  0  0  0  0  0  0
   40.3837  -21.5806   40.2046 C   0  0  0  0  0  0  0  0  0  0  0  0
   40.1980  -23.0091   39.9817 C   0  0  0  0  0  0  0  0  0  0  0  0
   39.0959  -23.3911   39.4240 O   0  0  0  0  0  0  0  0  0  0  0  0
   41.1068  -24.0799   40.3319 C   0  0  0  0  0  0  0  0  0  0  0  0
   41.5732  -25.1495   39.7186 N   0  0  0  0  0  0  0  0  0  0  0  0
   42.3924  -25.9596   40.2776 C   0  0  0  0  0  0  0  0  0  0  0  0
   42.7858  -25.6861   41.5620 C   0  0  0  0  0  0  0  0  0  0  0  0
   41.9260  -24.2497   41.8712 S   0  0  0  0  0  0  0  0  0  0  0  0
   39.6947  -20.9186   41.3288 C   0  0  0  0  0  0  0  0  0  0  0  0
   40.6061  -19.9424   42.0135 C   0  0  0  0  0  0  0  0  0  0  0  0
   42.0441  -20.4082   42.0280 C   0  0  0  0  0  0  0  0  0  0  0  0
   42.8962  -19.2696   41.8400 N   0  0  0  0  0  0  0  0  0  0  0  0
   43.1008  -18.6185   42.6294 H   0  0  0  0  0  0  0  0  0  0  0  0
   43.4964  -18.9722   40.5804 C   0  0  0  0  0  0  0  0  0  0  0  0
   44.6571  -19.6807   40.1391 N   0  0  0  0  0  0  0  0  0  0  0  0
   42.9810  -18.0550   39.8402 N   0  0  0  0  0  0  0  0  0  0  0  0
   44.6412  -20.5673   39.6153 H   0  0  0  0  0  0  0  0  0  0  0  0
   45.5828  -19.2616   40.3711 H   0  0  0  0  0  0  0  0  0  0  0  0
   43.4010  -17.8120   38.9081 H   0  0  0  0  0  0  0  0  0  0  0  0
   42.2607  -19.1315   36.5255 C   0  0  0  0  0  0  0  0  0  0  0  0
   41.9463  -18.0379   35.5237 C   0  0  0  0  0  0  0  0  0  0  0  0
   42.5677  -18.4330   34.2033 C   0  0  0  0  0  0  0  0  0  0  0  0
   41.6206  -18.5057   33.1272 N   0  0  0  0  0  0  0  0  0  0  0  0
   41.3402  -17.7008   32.5319 H   0  0  0  0  0  0  0  0  0  0  0  0
   41.7274  -20.9734   33.1477 N   0  0  0  0  0  0  0  0  0  0  0  0
   41.0259  -19.7655   32.8598 C   0  0  0  0  0  0  0  0  0  0  0  0
   39.8342  -19.8694   32.3492 N   0  0  0  0  0  0  0  0  0  0  0  0
   41.4302  -21.6715   33.8587 H   0  0  0  0  0  0  0  0  0  0  0  0
   42.5953  -21.1741   32.6124 H   0  0  0  0  0  0  0  0  0  0  0  0
   39.4126  -20.7988   32.1591 H   0  0  0  0  0  0  0  0  0  0  0  0
 54 55  1  0  0  0
 55 56  2  0  0  0
 55 52  1  0  0  0
 52 51  1  0  0  0
 51 50  1  0  0  0
 50 49  1  0  0  0
 49  1  1  0  0  0
  1  2  1  0  0  0
  2  3  1  0  0  0
  3  4  2  0  0  0
  3  6  1  0  0  0
  6 19  1  0  0  0
 19 20  1  0  0  0
 20 21  1  0  0  0
 21 22  1  0  0  0
 21 23  2  0  0  0
  6  7  1  0  0  0
  7  8  1  0  0  0
  8  9  2  0  0  0
  8 11  1  0  0  0
 11 12  1  0  0  0
 12 13  1  0  0  0
 13 14  2  0  0  0
 14 15  1  0  0  0
 15 16  2  0  0  0
 16 17  1  0  0  0
 17 18  2  0  0  0
  1 26  1  0  0  0
 26 27  2  0  0  0
 26 28  1  0  0  0
 28 30  1  0  0  0
 30 38  1  0  0  0
 38 39  1  0  0  0
 39 40  1  0  0  0
 40 41  1  0  0  0
 41 43  1  0  0  0
 43 44  1  0  0  0
 43 45  2  0  0  0
 30 31  1  0  0  0
 31 32  2  0  0  0
 31 33  1  0  0  0
 33 34  2  0  0  0
 34 35  1  0  0  0
 35 36  2  0  0  0
 36 37  1  0  0  0
 18 13  1  0  0  0
 37 33  1  0  0  0
 54 57  1  0  0  0
 54 58  1  0  0  0
 56 59  1  0  0  0
 52 53  1  0  0  0
  2  5  1  0  0  0
 22 24  1  0  0  0
 22 25  1  0  0  0
  7 10  1  0  0  0
 28 29  1  0  0  0
 41 42  1  0  0  0
 44 46  1  0  0  0
 44 47  1  0  0  0
 45 48  1  0  0  0
M  END
> <minimizedAffinity>
-5.61338

> <CNNscore>
0.2982808948

> <CNNaffinity>
6.1514863968

> <CNN_VS>
1.8348708153

> <CNNaffinity_variance>
0.2248472720

$$$$
[H]N=C(N([H])[H])N([H])C([H])([H])C([H])([H])C([H])([H])[C@@]([H])(C(=O)c1nc([H])c([H])s1)N([H])C(=O)[C@@]([H])(N([H])C(=O)[C@@]([H])(N([H])C(=O)OC([H])([H])c1c([H])c([H])c([H])c([H])c1[H])C([H])([H])C([H])([H])C(=O)N([H])[H])C([H])([H])C([H])([H])C([H])([H])N([H])C(=N[H])N([H])[H]


 59 60  0  0  0  0  0  0  0  0999 V2000
   33.4763  -17.5560   35.2898 C   0  0  0  0  0  0  0  0  0  0  0  0
   33.4996  -16.1139   35.0519 N   0  0  0  0  0  0  0  0  0  0  0  0
   33.9308  -15.2270   36.0513 C   0  0  0  0  0  0  0  0  0  0  0  0
   34.3199  -15.7030   37.1921 O   0  0  0  0  0  0  0  0  0  0  0  0
   33.2181  -15.8096   34.1222 H   0  0  0  0  0  0  0  0  0  0  0  0
   34.0013  -13.7695   35.9450 C   0  0  0  0  0  0  0  0  0  0  0  0
   32.7269  -13.1723   36.2775 N   0  0  0  0  0  0  0  0  0  0  0  0
   32.2950  -12.7828   37.5604 C   0  0  0  0  0  0  0  0  0  0  0  0
   33.0058  -12.9250   38.5865 O   0  0  0  0  0  0  0  0  0  0  0  0
   32.0758  -13.0213   35.4568 H   0  0  0  0  0  0  0  0  0  0  0  0
   31.0431  -12.2210   37.6995 O   0  0  0  0  0  0  0  0  0  0  0  0
   30.6488  -10.9405   37.2636 C   0  0  0  0  0  0  0  0  0  0  0  0
   29.4202  -10.5476   38.0334 C   0  0  0  0  0  0  0  0  0  0  0  0
   28.2855  -11.3589   37.9489 C   0  0  0  0  0  0  0  0  0  0  0  0
   27.1580  -11.0007   38.6432 C   0  0  0  0  0  0  0  0  0  0  0  0
   27.1568   -9.8629   39.4038 C   0  0  0  0  0  0  0  0  0  0  0  0
   28.2667   -9.0495   39.4994 C   0  0  0  0  0  0  0  0  0  0  0  0
   29.4089   -9.4120   38.7969 C   0  0  0  0  0  0  0  0  0  0  0  0
   35.2030  -13.1409   36.4762 C   0  0  0  0  0  0  0  0  0  0  0  0
   36.5312  -13.7472   36.2124 C   0  0  0  0  0  0  0  0  0  0  0  0
   37.3689  -13.9954   37.4232 C   0  0  0  0  0  0  0  0  0  0  0  0
   36.9189  -14.9874   38.3235 N   0  0  0  0  0  0  0  0  0  0  0  0
   38.4231  -13.3617   37.6480 O   0  0  0  0  0  0  0  0  0  0  0  0
   37.0782  -14.8530   39.3354 H   0  0  0  0  0  0  0  0  0  0  0  0
   36.4366  -15.8403   37.9953 H   0  0  0  0  0  0  0  0  0  0  0  0
   34.8192  -18.1656   35.2462 C   0  0  0  0  0  0  0  0  0  0  0  0
   35.4154  -18.2208   34.1171 O   0  0  0  0  0  0  0  0  0  0  0  0
   35.4744  -18.6797   36.3739 N   0  0  0  0  0  0  0  0  0  0  0  0
   35.1048  -18.6818   37.3355 H   0  0  0  0  0  0  0  0  0  0  0  0
   36.8285  -19.2861   36.2089 C   0  0  0  0  0  0  0  0  0  0  0  0
   36.8156  -20.5082   37.0033 C   0  0  0  0  0  0  0  0  0  0  0  0
   37.4216  -21.5437   36.5213 O   0  0  0  0  0  0  0  0  0  0  0  0
   36.1785  -20.7174   38.2860 C   0  0  0  0  0  0  0  0  0  0  0  0
   35.4883  -19.9668   39.1215 N   0  0  0  0  0  0  0  0  0  0  0  0
   35.0255  -20.4167   40.2275 C   0  0  0  0  0  0  0  0  0  0  0  0
   35.2686  -21.7304   40.5350 C   0  0  0  0  0  0  0  0  0  0  0  0
   36.1647  -22.2267   39.1754 S   0  0  0  0  0  0  0  0  0  0  0  0
   37.9269  -18.3153   36.3755 C   0  0  0  0  0  0  0  0  0  0  0  0
   39.2281  -19.0191   36.6287 C   0  0  0  0  0  0  0  0  0  0  0  0
   40.2140  -18.8334   35.4979 C   0  0  0  0  0  0  0  0  0  0  0  0
   40.3024  -20.0611   34.7613 N   0  0  0  0  0  0  0  0  0  0  0  0
   41.0902  -20.7261   34.9226 H   0  0  0  0  0  0  0  0  0  0  0  0
   39.3324  -20.4285   33.7817 C   0  0  0  0  0  0  0  0  0  0  0  0
   39.0780  -19.5867   32.6545 N   0  0  0  0  0  0  0  0  0  0  0  0
   38.6844  -21.5308   33.9224 N   0  0  0  0  0  0  0  0  0  0  0  0
   39.5934  -19.6249   31.7637 H   0  0  0  0  0  0  0  0  0  0  0  0
   38.3136  -18.8850   32.7522 H   0  0  0  0  0  0  0  0  0  0  0  0
   37.9627  -21.8280   33.2187 H   0  0  0  0  0  0  0  0  0  0  0  0
   32.6477  -18.2428   34.2148 C   0  0  0  0  0  0  0  0  0  0  0  0
   32.3869  -19.6901   34.5831 C   0  0  0  0  0  0  0  0  0  0  0  0
   31.0469  -19.7516   35.2803 C   0  0  0  0  0  0  0  0  0  0  0  0
   30.8778  -20.9273   36.0864 N   0  0  0  0  0  0  0  0  0  0  0  0
   31.6574  -21.5087   36.4537 H   0  0  0  0  0  0  0  0  0  0  0  0
   28.7238  -21.9322   35.4141 N   0  0  0  0  0  0  0  0  0  0  0  0
   29.5523  -21.3221   36.4017 C   0  0  0  0  0  0  0  0  0  0  0  0
   29.0456  -21.1470   37.5867 N   0  0  0  0  0  0  0  0  0  0  0  0
   28.3731  -22.9100   35.4624 H   0  0  0  0  0  0  0  0  0  0  0  0
   28.4489  -21.3646   34.5881 H   0  0  0  0  0  0  0  0  0  0  0  0
   28.0736  -21.4412   37.8020 H   0  0  0  0  0  0  0  0  0  0  0  0
 54 55  1  0  0  0
 55 56  2  0  0  0
 55 52  1  0  0  0
 52 51  1  0  0  0
 51 50  1  0  0  0
 50 49  1  0  0  0
 49  1  1  0  0  0
  1  2  1  0  0  0
  2  3  1  0  0  0
  3  4  2  0  0  0
  3  6  1  0  0  0
  6 19  1  0  0  0
 19 20  1  0  0  0
 20 21  1  0  0  0
 21 22  1  0  0  0
 21 23  2  0  0  0
  6  7  1  0  0  0
  7  8  1  0  0  0
  8  9  2  0  0  0
  8 11  1  0  0  0
 11 12  1  0  0  0
 12 13  1  0  0  0
 13 14  2  0  0  0
 14 15  1  0  0  0
 15 16  2  0  0  0
 16 17  1  0  0  0
 17 18  2  0  0  0
  1 26  1  0  0  0
 26 27  2  0  0  0
 26 28  1  0  0  0
 28 30  1  0  0  0
 30 38  1  0  0  0
 38 39  1  0  0  0
 39 40  1  0  0  0
 40 41  1  0  0  0
 41 43  1  0  0  0
 43 44  1  0  0  0
 43 45  2  0  0  0
 30 31  1  0  0  0
 31 32  2  0  0  0
 31 33  1  0  0  0
 33 34  2  0  0  0
 34 35  1  0  0  0
 35 36  2  0  0  0
 36 37  1  0  0  0
 18 13  1  0  0  0
 37 33  1  0  0  0
 54 57  1  0  0  0
 54 58  1  0  0  0
 56 59  1  0  0  0
 52 53  1  0  0  0
  2  5  1  0  0  0
 22 24  1  0  0  0
 22 25  1  0  0  0
  7 10  1  0  0  0
 28 29  1  0  0  0
 41 42  1  0  0  0
 44 46  1  0  0  0
 44 47  1  0  0  0
 45 48  1  0  0  0
M  END
> <minimizedAffinity>
-7.39948

> <CNNscore>
0.2468052953

> <CNNaffinity>
6.6372008324

> <CNN_VS>
1.6380963326

> <CNNaffinity_variance>
0.2576413155

$$$$
[H]N=C(N([H])[H])N([H])C([H])([H])C([H])([H])C([H])([H])[C@@]([H])(C(=O)c1nc([H])c([H])s1)N([H])C(=O)[C@@]([H])(N([H])C(=O)[C@@]([H])(N([H])C(=O)OC([H])([H])c1c([H])c([H])c([H])c([H])c1[H])C([H])([H])C([H])([H])C(=O)N([H])[H])C([H])([H])C([H])([H])C([H])([H])N([H])C(=N[H])N([H])[H]


 59 60  0  0  0  0  0  0  0  0999 V2000
   33.3485  -17.6301   35.3599 C   0  0  0  0  0  0  0  0  0  0  0  0
   33.4173  -16.2104   35.0186 N   0  0  0  0  0  0  0  0  0  0  0  0
   33.7984  -15.2579   35.9773 C   0  0  0  0  0  0  0  0  0  0  0  0
   34.1000  -15.6532   37.1740 O   0  0  0  0  0  0  0  0  0  0  0  0
   33.2054  -15.9722   34.0519 H   0  0  0  0  0  0  0  0  0  0  0  0
   33.9057  -13.8137   35.7691 C   0  0  0  0  0  0  0  0  0  0  0  0
   32.6298  -13.1707   35.9922 N   0  0  0  0  0  0  0  0  0  0  0  0
   32.1342  -12.7003   37.2238 C   0  0  0  0  0  0  0  0  0  0  0  0
   32.7803  -12.8004   38.2966 O   0  0  0  0  0  0  0  0  0  0  0  0
   32.0316  -13.0516   35.1272 H   0  0  0  0  0  0  0  0  0  0  0  0
   30.8910  -12.1040   37.2573 O   0  0  0  0  0  0  0  0  0  0  0  0
   30.6285  -10.7198   37.2732 C   0  0  0  0  0  0  0  0  0  0  0  0
   29.3404  -10.5016   38.0145 C   0  0  0  0  0  0  0  0  0  0  0  0
   29.2505   -9.4289   38.9056 C   0  0  0  0  0  0  0  0  0  0  0  0
   28.0793   -9.2297   39.5915 C   0  0  0  0  0  0  0  0  0  0  0  0
   27.0217  -10.0763   39.3975 C   0  0  0  0  0  0  0  0  0  0  0  0
   27.0915  -11.1405   38.5227 C   0  0  0  0  0  0  0  0  0  0  0  0
   28.2770  -11.3424   37.8276 C   0  0  0  0  0  0  0  0  0  0  0  0
   35.0932  -13.1695   36.3137 C   0  0  0  0  0  0  0  0  0  0  0  0
   36.4229  -13.8041   36.1386 C   0  0  0  0  0  0  0  0  0  0  0  0
   37.1836  -14.0451   37.4006 C   0  0  0  0  0  0  0  0  0  0  0  0
   36.7191  -15.0800   38.2432 N   0  0  0  0  0  0  0  0  0  0  0  0
   38.1877  -13.3695   37.7151 O   0  0  0  0  0  0  0  0  0  0  0  0
   36.7998  -14.9651   39.2667 H   0  0  0  0  0  0  0  0  0  0  0  0
   36.3028  -15.9455   37.8617 H   0  0  0  0  0  0  0  0  0  0  0  0
   34.6696  -18.2870   35.3473 C   0  0  0  0  0  0  0  0  0  0  0  0
   35.0740  -18.7973   34.2476 O   0  0  0  0  0  0  0  0  0  0  0  0
   35.5024  -18.3753   36.4715 N   0  0  0  0  0  0  0  0  0  0  0  0
   35.2944  -17.9940   37.4057 H   0  0  0  0  0  0  0  0  0  0  0  0
   36.8148  -19.0757   36.3453 C   0  0  0  0  0  0  0  0  0  0  0  0
   36.6798  -20.3117   37.1059 C   0  0  0  0  0  0  0  0  0  0  0  0
   37.1144  -21.4014   36.5622 O   0  0  0  0  0  0  0  0  0  0  0  0
   36.0895  -20.4783   38.4169 C   0  0  0  0  0  0  0  0  0  0  0  0
   34.9318  -20.1716   38.9676 N   0  0  0  0  0  0  0  0  0  0  0  0
   34.6599  -20.4395   40.1900 C   0  0  0  0  0  0  0  0  0  0  0  0
   35.6229  -21.0684   40.9361 C   0  0  0  0  0  0  0  0  0  0  0  0
   36.8732  -21.2294   39.7920 S   0  0  0  0  0  0  0  0  0  0  0  0
   37.9727  -18.1924   36.5816 C   0  0  0  0  0  0  0  0  0  0  0  0
   39.1987  -18.9945   36.9073 C   0  0  0  0  0  0  0  0  0  0  0  0
   40.1750  -19.0497   35.7545 C   0  0  0  0  0  0  0  0  0  0  0  0
   39.4545  -18.8321   34.5334 N   0  0  0  0  0  0  0  0  0  0  0  0
   39.0299  -17.9028   34.3213 H   0  0  0  0  0  0  0  0  0  0  0  0
   39.2817  -19.8623   33.5617 C   0  0  0  0  0  0  0  0  0  0  0  0
   38.5527  -21.0505   33.8790 N   0  0  0  0  0  0  0  0  0  0  0  0
   39.7909  -19.7121   32.3900 N   0  0  0  0  0  0  0  0  0  0  0  0
   37.5336  -21.1598   33.7783 H   0  0  0  0  0  0  0  0  0  0  0  0
   39.1020  -21.8594   34.2397 H   0  0  0  0  0  0  0  0  0  0  0  0
   39.6821  -20.4536   31.6533 H   0  0  0  0  0  0  0  0  0  0  0  0
   32.4844  -18.3631   34.3451 C   0  0  0  0  0  0  0  0  0  0  0  0
   31.4198  -19.1861   35.0437 C   0  0  0  0  0  0  0  0  0  0  0  0
   31.6251  -20.6311   34.6496 C   0  0  0  0  0  0  0  0  0  0  0  0
   32.9630  -21.0989   34.8771 N   0  0  0  0  0  0  0  0  0  0  0  0
   33.7518  -20.9791   34.2106 H   0  0  0  0  0  0  0  0  0  0  0  0
   32.4576  -21.4815   37.2644 N   0  0  0  0  0  0  0  0  0  0  0  0
   33.2244  -21.7726   36.0977 C   0  0  0  0  0  0  0  0  0  0  0  0
   34.1596  -22.6704   36.2016 N   0  0  0  0  0  0  0  0  0  0  0  0
   31.8241  -22.1577   37.7363 H   0  0  0  0  0  0  0  0  0  0  0  0
   32.5342  -20.5298   37.6749 H   0  0  0  0  0  0  0  0  0  0  0  0
   34.3389  -23.1548   37.1021 H   0  0  0  0  0  0  0  0  0  0  0  0
 54 55  1  0  0  0
 55 56  2  0  0  0
 55 52  1  0  0  0
 52 51  1  0  0  0
 51 50  1  0  0  0
 50 49  1  0  0  0
 49  1  1  0  0  0
  1  2  1  0  0  0
  2  3  1  0  0  0
  3  4  2  0  0  0
  3  6  1  0  0  0
  6 19  1  0  0  0
 19 20  1  0  0  0
 20 21  1  0  0  0
 21 22  1  0  0  0
 21 23  2  0  0  0
  6  7  1  0  0  0
  7  8  1  0  0  0
  8  9  2  0  0  0
  8 11  1  0  0  0
 11 12  1  0  0  0
 12 13  1  0  0  0
 13 14  2  0  0  0
 14 15  1  0  0  0
 15 16  2  0  0  0
 16 17  1  0  0  0
 17 18  2  0  0  0
  1 26  1  0  0  0
 26 27  2  0  0  0
 26 28  1  0  0  0
 28 30  1  0  0  0
 30 38  1  0  0  0
 38 39  1  0  0  0
 39 40  1  0  0  0
 40 41  1  0  0  0
 41 43  1  0  0  0
 43 44  1  0  0  0
 43 45  2  0  0  0
 30 31  1  0  0  0
 31 32  2  0  0  0
 31 33  1  0  0  0
 33 34  2  0  0  0
 34 35  1  0  0  0
 35 36  2  0  0  0
 36 37  1  0  0  0
 18 13  1  0  0  0
 37 33  1  0  0  0
 54 57  1  0  0  0
 54 58  1  0  0  0
 56 59  1  0  0  0
 52 53  1  0  0  0
  2  5  1  0  0  0
 22 24  1  0  0  0
 22 25  1  0  0  0
  7 10  1  0  0  0
 28 29  1  0  0  0
 41 42  1  0  0  0
 44 46  1  0  0  0
 44 47  1  0  0  0
 45 48  1  0  0  0
M  END
> <minimizedAffinity>
-7.44212

> <CNNscore>
0.2433819771

> <CNNaffinity>
6.6265196800

> <CNN_VS>
1.6127754450

> <CNNaffinity_variance>
0.2598012686

$$$$
[H]N=C(N([H])[H])N([H])C([H])([H])C([H])([H])C([H])([H])[C@@]([H])(C(=O)c1nc([H])c([H])s1)N([H])C(=O)[C@@]([H])(N([H])C(=O)[C@@]([H])(N([H])C(=O)OC([H])([H])c1c([H])c([H])c([H])c([H])c1[H])C([H])([H])C([H])([H])C(=O)N([H])[H])C([H])([H])C([H])([H])C([H])([H])N([H])C(=N[H])N([H])[H]


 59 60  0  0  0  0  0  0  0  0999 V2000
   35.4002  -17.7484   35.8940 C   0  0  0  0  0  0  0  0  0  0  0  0
   35.4205  -16.3444   36.3003 N   0  0  0  0  0  0  0  0  0  0  0  0
   34.3336  -15.4997   36.0234 C   0  0  0  0  0  0  0  0  0  0  0  0
   33.3004  -15.9826   35.4080 O   0  0  0  0  0  0  0  0  0  0  0  0
   36.2450  -16.0394   36.8135 H   0  0  0  0  0  0  0  0  0  0  0  0
   34.2267  -14.0826   36.3711 C   0  0  0  0  0  0  0  0  0  0  0  0
   32.8431  -13.6618   36.3736 N   0  0  0  0  0  0  0  0  0  0  0  0
   32.3256  -12.4927   36.9646 C   0  0  0  0  0  0  0  0  0  0  0  0
   33.0476  -11.6663   37.5764 O   0  0  0  0  0  0  0  0  0  0  0  0
   32.1765  -14.3132   35.8721 H   0  0  0  0  0  0  0  0  0  0  0  0
   30.9730  -12.2407   36.8687 O   0  0  0  0  0  0  0  0  0  0  0  0
   30.2697  -11.1998   37.5067 C   0  0  0  0  0  0  0  0  0  0  0  0
   29.1075  -11.8077   38.2389 C   0  0  0  0  0  0  0  0  0  0  0  0
   27.8179  -11.3549   37.9478 C   0  0  0  0  0  0  0  0  0  0  0  0
   26.7534  -11.9006   38.6193 C   0  0  0  0  0  0  0  0  0  0  0  0
   26.9644  -12.8733   39.5586 C   0  0  0  0  0  0  0  0  0  0  0  0
   28.2296  -13.3328   39.8599 C   0  0  0  0  0  0  0  0  0  0  0  0
   29.3078  -12.7809   39.1799 C   0  0  0  0  0  0  0  0  0  0  0  0
   35.0777  -13.6187   37.4583 C   0  0  0  0  0  0  0  0  0  0  0  0
   36.3570  -12.9321   37.1525 C   0  0  0  0  0  0  0  0  0  0  0  0
   37.5861  -13.7520   37.3679 C   0  0  0  0  0  0  0  0  0  0  0  0
   38.8243  -13.1492   37.0510 N   0  0  0  0  0  0  0  0  0  0  0  0
   37.5406  -14.9223   37.8060 O   0  0  0  0  0  0  0  0  0  0  0  0
   39.5800  -13.7355   36.6604 H   0  0  0  0  0  0  0  0  0  0  0  0
   38.9914  -12.1404   37.2004 H   0  0  0  0  0  0  0  0  0  0  0  0
   36.2624  -18.6007   36.7349 C   0  0  0  0  0  0  0  0  0  0  0  0
   36.0232  -18.6411   37.9897 O   0  0  0  0  0  0  0  0  0  0  0  0
   37.3213  -19.3689   36.2311 N   0  0  0  0  0  0  0  0  0  0  0  0
   37.6034  -19.4293   35.2421 H   0  0  0  0  0  0  0  0  0  0  0  0
   38.1364  -20.1853   37.1786 C   0  0  0  0  0  0  0  0  0  0  0  0
   39.5226  -19.8014   36.9424 C   0  0  0  0  0  0  0  0  0  0  0  0
   40.3272  -19.8054   37.9544 O   0  0  0  0  0  0  0  0  0  0  0  0
   40.1203  -19.3889   35.6903 C   0  0  0  0  0  0  0  0  0  0  0  0
   39.6660  -18.9089   34.5498 N   0  0  0  0  0  0  0  0  0  0  0  0
   40.4379  -18.6203   33.5696 C   0  0  0  0  0  0  0  0  0  0  0  0
   41.7833  -18.8264   33.7332 C   0  0  0  0  0  0  0  0  0  0  0  0
   41.8328  -19.4329   35.3232 S   0  0  0  0  0  0  0  0  0  0  0  0
   37.7629  -21.6126   37.1895 C   0  0  0  0  0  0  0  0  0  0  0  0
   36.9534  -21.9435   38.4093 C   0  0  0  0  0  0  0  0  0  0  0  0
   36.8163  -23.4336   38.6239 C   0  0  0  0  0  0  0  0  0  0  0  0
   35.4895  -23.8300   38.2497 N   0  0  0  0  0  0  0  0  0  0  0  0
   34.7548  -23.9896   38.9734 H   0  0  0  0  0  0  0  0  0  0  0  0
   35.1131  -24.0266   36.8877 C   0  0  0  0  0  0  0  0  0  0  0  0
   35.7954  -24.9823   36.0722 N   0  0  0  0  0  0  0  0  0  0  0  0
   34.1484  -23.3318   36.3963 N   0  0  0  0  0  0  0  0  0  0  0  0
   35.5464  -25.9791   36.0011 H   0  0  0  0  0  0  0  0  0  0  0  0
   36.6040  -24.6351   35.5139 H   0  0  0  0  0  0  0  0  0  0  0  0
   33.8490  -23.4526   35.3962 H   0  0  0  0  0  0  0  0  0  0  0  0
   35.9112  -17.8798   34.4672 C   0  0  0  0  0  0  0  0  0  0  0  0
   35.3157  -19.1016   33.7958 C   0  0  0  0  0  0  0  0  0  0  0  0
   33.8724  -19.2076   34.2331 C   0  0  0  0  0  0  0  0  0  0  0  0
   33.5580  -20.4595   34.8611 N   0  0  0  0  0  0  0  0  0  0  0  0
   34.1629  -20.9393   35.5572 H   0  0  0  0  0  0  0  0  0  0  0  0
   32.3339  -22.3531   33.8526 N   0  0  0  0  0  0  0  0  0  0  0  0
   32.3356  -21.0844   34.5041 C   0  0  0  0  0  0  0  0  0  0  0  0
   31.1835  -20.5348   34.7529 N   0  0  0  0  0  0  0  0  0  0  0  0
   31.9512  -23.2268   34.2665 H   0  0  0  0  0  0  0  0  0  0  0  0
   32.7416  -22.4132   32.8985 H   0  0  0  0  0  0  0  0  0  0  0  0
   30.2974  -21.0047   34.4852 H   0  0  0  0  0  0  0  0  0  0  0  0
 54 55  1  0  0  0
 55 56  2  0  0  0
 55 52  1  0  0  0
 52 51  1  0  0  0
 51 50  1  0  0  0
 50 49  1  0  0  0
 49  1  1  0  0  0
  1  2  1  0  0  0
  2  3  1  0  0  0
  3  4  2  0  0  0
  3  6  1  0  0  0
  6 19  1  0  0  0
 19 20  1  0  0  0
 20 21  1  0  0  0
 21 22  1  0  0  0
 21 23  2  0  0  0
  6  7  1  0  0  0
  7  8  1  0  0  0
  8  9  2  0  0  0
  8 11  1  0  0  0
 11 12  1  0  0  0
 12 13  1  0  0  0
 13 14  2  0  0  0
 14 15  1  0  0  0
 15 16  2  0  0  0
 16 17  1  0  0  0
 17 18  2  0  0  0
  1 26  1  0  0  0
 26 27  2  0  0  0
 26 28  1  0  0  0
 28 30  1  0  0  0
 30 38  1  0  0  0
 38 39  1  0  0  0
 39 40  1  0  0  0
 40 41  1  0  0  0
 41 43  1  0  0  0
 43 44  1  0  0  0
 43 45  2  0  0  0
 30 31  1  0  0  0
 31 32  2  0  0  0
 31 33  1  0  0  0
 33 34  2  0  0  0
 34 35  1  0  0  0
 35 36  2  0  0  0
 36 37  1  0  0  0
 18 13  1  0  0  0
 37 33  1  0  0  0
 54 57  1  0  0  0
 54 58  1  0  0  0
 56 59  1  0  0  0
 52 53  1  0  0  0
  2  5  1  0  0  0
 22 24  1  0  0  0
 22 25  1  0  0  0
  7 10  1  0  0  0
 28 29  1  0  0  0
 41 42  1  0  0  0
 44 46  1  0  0  0
 44 47  1  0  0  0
 45 48  1  0  0  0
M  END
> <minimizedAffinity>
-7.00149

> <CNNscore>
0.2357548028

> <CNNaffinity>
6.3928890228

> <CNN_VS>
1.5071543455

> <CNNaffinity_variance>
0.3169506192

$$$$
[H]N=C(N([H])[H])N([H])C([H])([H])C([H])([H])C([H])([H])[C@@]([H])(C(=O)c1nc([H])c([H])s1)N([H])C(=O)[C@@]([H])(N([H])C(=O)[C@@]([H])(N([H])C(=O)OC([H])([H])c1c([H])c([H])c([H])c([H])c1[H])C([H])([H])C([H])([H])C(=O)N([H])[H])C([H])([H])C([H])([H])C([H])([H])N([H])C(=N[H])N([H])[H]


 59 60  0  0  0  0  0  0  0  0999 V2000
   37.8336  -19.8664   35.3987 C   0  0  0  0  0  0  0  0  0  0  0  0
   37.1677  -21.0337   35.9738 N   0  0  0  0  0  0  0  0  0  0  0  0
   37.3550  -21.3767   37.3224 C   0  0  0  0  0  0  0  0  0  0  0  0
   38.1220  -20.6376   38.0606 O   0  0  0  0  0  0  0  0  0  0  0  0
   36.5492  -21.5480   35.3501 H   0  0  0  0  0  0  0  0  0  0  0  0
   36.7529  -22.5136   38.0192 C   0  0  0  0  0  0  0  0  0  0  0  0
   35.7501  -22.0625   38.9584 N   0  0  0  0  0  0  0  0  0  0  0  0
   34.7086  -21.1512   38.6964 C   0  0  0  0  0  0  0  0  0  0  0  0
   34.5437  -20.6161   37.5718 O   0  0  0  0  0  0  0  0  0  0  0  0
   35.8282  -22.4764   39.9294 H   0  0  0  0  0  0  0  0  0  0  0  0
   33.8315  -20.8324   39.7121 O   0  0  0  0  0  0  0  0  0  0  0  0
   33.7265  -21.4796   40.9591 C   0  0  0  0  0  0  0  0  0  0  0  0
   33.6491  -20.4228   42.0238 C   0  0  0  0  0  0  0  0  0  0  0  0
   32.5371  -20.4004   42.8698 C   0  0  0  0  0  0  0  0  0  0  0  0
   32.4572  -19.4325   43.8386 C   0  0  0  0  0  0  0  0  0  0  0  0
   33.4582  -18.5078   43.9644 C   0  0  0  0  0  0  0  0  0  0  0  0
   34.5632  -18.5135   43.1388 C   0  0  0  0  0  0  0  0  0  0  0  0
   34.6448  -19.4936   42.1579 C   0  0  0  0  0  0  0  0  0  0  0  0
   36.4411  -23.6792   37.2033 C   0  0  0  0  0  0  0  0  0  0  0  0
   35.0301  -23.9835   36.8599 C   0  0  0  0  0  0  0  0  0  0  0  0
   34.7110  -25.4343   36.7090 C   0  0  0  0  0  0  0  0  0  0  0  0
   35.1283  -26.0631   35.5143 N   0  0  0  0  0  0  0  0  0  0  0  0
   34.1003  -26.0794   37.5890 O   0  0  0  0  0  0  0  0  0  0  0  0
   34.5349  -26.8036   35.1058 H   0  0  0  0  0  0  0  0  0  0  0  0
   36.0092  -25.8013   35.0417 H   0  0  0  0  0  0  0  0  0  0  0  0
   36.9082  -18.7453   35.1467 C   0  0  0  0  0  0  0  0  0  0  0  0
   36.9332  -18.1960   33.9930 O   0  0  0  0  0  0  0  0  0  0  0  0
   36.0036  -18.2571   36.0999 N   0  0  0  0  0  0  0  0  0  0  0  0
   35.8810  -18.6225   37.0554 H   0  0  0  0  0  0  0  0  0  0  0  0
   35.1225  -17.1076   35.7379 C   0  0  0  0  0  0  0  0  0  0  0  0
   35.4920  -16.0246   36.6407 C   0  0  0  0  0  0  0  0  0  0  0  0
   36.4837  -16.2261   37.4455 O   0  0  0  0  0  0  0  0  0  0  0  0
   34.8606  -14.7280   36.7645 C   0  0  0  0  0  0  0  0  0  0  0  0
   33.6175  -14.2898   36.7756 N   0  0  0  0  0  0  0  0  0  0  0  0
   33.3274  -13.0488   36.9009 C   0  0  0  0  0  0  0  0  0  0  0  0
   34.3633  -12.1597   37.0263 C   0  0  0  0  0  0  0  0  0  0  0  0
   35.7052  -13.2047   36.9531 S   0  0  0  0  0  0  0  0  0  0  0  0
   33.7041  -17.4845   35.5873 C   0  0  0  0  0  0  0  0  0  0  0  0
   33.4149  -17.9256   34.1822 C   0  0  0  0  0  0  0  0  0  0  0  0
   33.2356  -19.4227   34.0729 C   0  0  0  0  0  0  0  0  0  0  0  0
   31.8318  -19.7177   34.0842 N   0  0  0  0  0  0  0  0  0  0  0  0
   31.2874  -19.7621   33.1952 H   0  0  0  0  0  0  0  0  0  0  0  0
   31.1181  -19.9591   35.2958 C   0  0  0  0  0  0  0  0  0  0  0  0
   31.7026  -20.7338   36.3456 N   0  0  0  0  0  0  0  0  0  0  0  0
   29.9364  -19.4706   35.4363 N   0  0  0  0  0  0  0  0  0  0  0  0
   32.3013  -20.3547   37.0929 H   0  0  0  0  0  0  0  0  0  0  0  0
   31.5034  -21.7568   36.3447 H   0  0  0  0  0  0  0  0  0  0  0  0
   29.3850  -19.6322   36.3163 H   0  0  0  0  0  0  0  0  0  0  0  0
   38.4527  -20.2339   34.0588 C   0  0  0  0  0  0  0  0  0  0  0  0
   39.5637  -21.2490   34.2428 C   0  0  0  0  0  0  0  0  0  0  0  0
   40.7475  -20.7866   33.4241 C   0  0  0  0  0  0  0  0  0  0  0  0
   41.6908  -20.0084   34.1760 N   0  0  0  0  0  0  0  0  0  0  0  0
   42.2166  -20.3554   35.0029 H   0  0  0  0  0  0  0  0  0  0  0  0
   40.8504  -17.8820   33.2416 N   0  0  0  0  0  0  0  0  0  0  0  0
   41.9190  -18.6717   33.7597 C   0  0  0  0  0  0  0  0  0  0  0  0
   43.0941  -18.1193   33.8328 N   0  0  0  0  0  0  0  0  0  0  0  0
   40.4744  -17.0274   33.6994 H   0  0  0  0  0  0  0  0  0  0  0  0
   40.4148  -18.1766   32.3452 H   0  0  0  0  0  0  0  0  0  0  0  0
   43.2452  -17.1398   33.5240 H   0  0  0  0  0  0  0  0  0  0  0  0
 54 55  1  0  0  0
 55 56  2  0  0  0
 55 52  1  0  0  0
 52 51  1  0  0  0
 51 50  1  0  0  0
 50 49  1  0  0  0
 49  1  1  0  0  0
  1  2  1  0  0  0
  2  3  1  0  0  0
  3  4  2  0  0  0
  3  6  1  0  0  0
  6 19  1  0  0  0
 19 20  1  0  0  0
 20 21  1  0  0  0
 21 22  1  0  0  0
 21 23  2  0  0  0
  6  7  1  0  0  0
  7  8  1  0  0  0
  8  9  2  0  0  0
  8 11  1  0  0  0
 11 12  1  0  0  0
 12 13  1  0  0  0
 13 14  2  0  0  0
 14 15  1  0  0  0
 15 16  2  0  0  0
 16 17  1  0  0  0
 17 18  2  0  0  0
  1 26  1  0  0  0
 26 27  2  0  0  0
 26 28  1  0  0  0
 28 30  1  0  0  0
 30 38  1  0  0  0
 38 39  1  0  0  0
 39 40  1  0  0  0
 40 41  1  0  0  0
 41 43  1  0  0  0
 43 44  1  0  0  0
 43 45  2  0  0  0
 30 31  1  0  0  0
 31 32  2  0  0  0
 31 33  1  0  0  0
 33 34  2  0  0  0
 34 35  1  0  0  0
 35 36  2  0  0  0
 36 37  1  0  0  0
 18 13  1  0  0  0
 37 33  1  0  0  0
 54 57  1  0  0  0
 54 58  1  0  0  0
 56 59  1  0  0  0
 52 53  1  0  0  0
  2  5  1  0  0  0
 22 24  1  0  0  0
 22 25  1  0  0  0
  7 10  1  0  0  0
 28 29  1  0  0  0
 41 42  1  0  0  0
 44 46  1  0  0  0
 44 47  1  0  0  0
 45 48  1  0  0  0
M  END
> <minimizedAffinity>
-6.04440

> <CNNscore>
0.2353407741

> <CNNaffinity>
6.3039751053

> <CNN_VS>
1.4835823774

> <CNNaffinity_variance>
0.5647158027

$$$$
[H]N=C(N([H])[H])N([H])C([H])([H])C([H])([H])C([H])([H])[C@@]([H])(C(=O)c1nc([H])c([H])s1)N([H])C(=O)[C@@]([H])(N([H])C(=O)[C@@]([H])(N([H])C(=O)OC([H])([H])c1c([H])c([H])c([H])c([H])c1[H])C([H])([H])C([H])([H])C(=O)N([H])[H])C([H])([H])C([H])([H])C([H])([H])N([H])C(=N[H])N([H])[H]


 59 60  0  0  0  0  0  0  0  0999 V2000
   34.1232  -17.8889   35.0543 C   0  0  0  0  0  0  0  0  0  0  0  0
   34.4512  -16.8385   36.0165 N   0  0  0  0  0  0  0  0  0  0  0  0
   33.9496  -15.5365   35.8587 C   0  0  0  0  0  0  0  0  0  0  0  0
   33.1795  -15.2753   34.8497 O   0  0  0  0  0  0  0  0  0  0  0  0
   35.0287  -17.1199   36.8061 H   0  0  0  0  0  0  0  0  0  0  0  0
   34.2005  -14.3981   36.7427 C   0  0  0  0  0  0  0  0  0  0  0  0
   32.9624  -13.7290   37.0754 N   0  0  0  0  0  0  0  0  0  0  0  0
   32.8139  -12.3759   37.4375 C   0  0  0  0  0  0  0  0  0  0  0  0
   33.7866  -11.5842   37.5125 O   0  0  0  0  0  0  0  0  0  0  0  0
   32.0984  -14.3387   37.0308 H   0  0  0  0  0  0  0  0  0  0  0  0
   31.5519  -11.8969   37.7204 O   0  0  0  0  0  0  0  0  0  0  0  0
   31.0077  -10.6709   37.2893 C   0  0  0  0  0  0  0  0  0  0  0  0
   29.6872  -10.4825   37.9801 C   0  0  0  0  0  0  0  0  0  0  0  0
   29.4985   -9.3468   38.7723 C   0  0  0  0  0  0  0  0  0  0  0  0
   28.2975   -9.1737   39.4122 C   0  0  0  0  0  0  0  0  0  0  0  0
   27.3066  -10.1068   39.2691 C   0  0  0  0  0  0  0  0  0  0  0  0
   27.4742  -11.2340   38.4920 C   0  0  0  0  0  0  0  0  0  0  0  0
   28.6900  -11.4096   37.8434 C   0  0  0  0  0  0  0  0  0  0  0  0
   35.1635  -14.6127   37.8142 C   0  0  0  0  0  0  0  0  0  0  0  0
   36.6051  -14.7546   37.4933 C   0  0  0  0  0  0  0  0  0  0  0  0
   37.3340  -13.4725   37.2607 C   0  0  0  0  0  0  0  0  0  0  0  0
   36.6382  -12.4536   36.5719 N   0  0  0  0  0  0  0  0  0  0  0  0
   38.5089  -13.2917   37.6487 O   0  0  0  0  0  0  0  0  0  0  0  0
   37.1629  -11.8342   35.9329 H   0  0  0  0  0  0  0  0  0  0  0  0
   35.6214  -12.3136   36.6918 H   0  0  0  0  0  0  0  0  0  0  0  0
   33.1504  -18.8650   35.5813 C   0  0  0  0  0  0  0  0  0  0  0  0
   31.9395  -18.4838   35.7287 O   0  0  0  0  0  0  0  0  0  0  0  0
   33.4822  -20.1838   35.9219 N   0  0  0  0  0  0  0  0  0  0  0  0
   34.4161  -20.6104   35.8366 H   0  0  0  0  0  0  0  0  0  0  0  0
   32.4169  -21.0812   36.4589 C   0  0  0  0  0  0  0  0  0  0  0  0
   32.9257  -21.5860   37.7281 C   0  0  0  0  0  0  0  0  0  0  0  0
   32.1029  -22.2268   38.4924 O   0  0  0  0  0  0  0  0  0  0  0  0
   34.2638  -21.4401   38.2604 C   0  0  0  0  0  0  0  0  0  0  0  0
   35.4822  -21.5167   37.7630 N   0  0  0  0  0  0  0  0  0  0  0  0
   36.5290  -21.3411   38.4793 C   0  0  0  0  0  0  0  0  0  0  0  0
   36.3538  -21.0647   39.8106 C   0  0  0  0  0  0  0  0  0  0  0  0
   34.6556  -21.0788   39.9293 S   0  0  0  0  0  0  0  0  0  0  0  0
   31.8867  -22.0235   35.4550 C   0  0  0  0  0  0  0  0  0  0  0  0
   30.3860  -22.0327   35.4712 C   0  0  0  0  0  0  0  0  0  0  0  0
   29.8171  -23.4323   35.4168 C   0  0  0  0  0  0  0  0  0  0  0  0
   30.8837  -24.3495   35.1361 N   0  0  0  0  0  0  0  0  0  0  0  0
   31.6014  -24.5729   35.8599 H   0  0  0  0  0  0  0  0  0  0  0  0
   31.0171  -24.9917   33.8692 C   0  0  0  0  0  0  0  0  0  0  0  0
   31.6646  -24.3300   32.7797 N   0  0  0  0  0  0  0  0  0  0  0  0
   30.5466  -26.1789   33.7143 N   0  0  0  0  0  0  0  0  0  0  0  0
   32.6773  -24.3557   32.5942 H   0  0  0  0  0  0  0  0  0  0  0  0
   31.0585  -23.7826   32.1323 H   0  0  0  0  0  0  0  0  0  0  0  0
   30.6279  -26.6775   32.7928 H   0  0  0  0  0  0  0  0  0  0  0  0
   35.3783  -18.6701   34.6959 C   0  0  0  0  0  0  0  0  0  0  0  0
   36.5284  -18.2814   35.6040 C   0  0  0  0  0  0  0  0  0  0  0  0
   37.7163  -19.1395   35.2325 C   0  0  0  0  0  0  0  0  0  0  0  0
   38.8717  -18.3781   34.8506 N   0  0  0  0  0  0  0  0  0  0  0  0
   39.3391  -17.6718   35.4534 H   0  0  0  0  0  0  0  0  0  0  0  0
   40.6065  -17.9476   33.1459 N   0  0  0  0  0  0  0  0  0  0  0  0
   39.4111  -18.6067   33.5587 C   0  0  0  0  0  0  0  0  0  0  0  0
   38.8465  -19.4148   32.7104 N   0  0  0  0  0  0  0  0  0  0  0  0
   41.5026  -18.4312   32.9352 H   0  0  0  0  0  0  0  0  0  0  0  0
   40.5854  -16.9133   33.0470 H   0  0  0  0  0  0  0  0  0  0  0  0
   39.2534  -19.5715   31.7684 H   0  0  0  0  0  0  0  0  0  0  0  0
 54 55  1  0  0  0
 55 56  2  0  0  0
 55 52  1  0  0  0
 52 51  1  0  0  0
 51 50  1  0  0  0
 50 49  1  0  0  0
 49  1  1  0  0  0
  1  2  1  0  0  0
  2  3  1  0  0  0
  3  4  2  0  0  0
  3  6  1  0  0  0
  6 19  1  0  0  0
 19 20  1  0  0  0
 20 21  1  0  0  0
 21 22  1  0  0  0
 21 23  2  0  0  0
  6  7  1  0  0  0
  7  8  1  0  0  0
  8  9  2  0  0  0
  8 11  1  0  0  0
 11 12  1  0  0  0
 12 13  1  0  0  0
 13 14  2  0  0  0
 14 15  1  0  0  0
 15 16  2  0  0  0
 16 17  1  0  0  0
 17 18  2  0  0  0
  1 26  1  0  0  0
 26 27  2  0  0  0
 26 28  1  0  0  0
 28 30  1  0  0  0
 30 38  1  0  0  0
 38 39  1  0  0  0
 39 40  1  0  0  0
 40 41  1  0  0  0
 41 43  1  0  0  0
 43 44  1  0  0  0
 43 45  2  0  0  0
 30 31  1  0  0  0
 31 32  2  0  0  0
 31 33  1  0  0  0
 33 34  2  0  0  0
 34 35  1  0  0  0
 35 36  2  0  0  0
 36 37  1  0  0  0
 18 13  1  0  0  0
 37 33  1  0  0  0
 54 57  1  0  0  0
 54 58  1  0  0  0
 56 59  1  0  0  0
 52 53  1  0  0  0
  2  5  1  0  0  0
 22 24  1  0  0  0
 22 25  1  0  0  0
  7 10  1  0  0  0
 28 29  1  0  0  0
 41 42  1  0  0  0
 44 46  1  0  0  0
 44 47  1  0  0  0
 45 48  1  0  0  0
M  END
> <minimizedAffinity>
-7.30605

> <CNNscore>
0.2346769869

> <CNNaffinity>
6.5013303757

> <CNN_VS>
1.5257126093

> <CNNaffinity_variance>
0.5623317957

$$$$
[H]c1nc2c(C([H])([H])[H])c(C([H])([H])[H])c(-c3c(C([H])(C([H])([H])[H])C([H])([H])[H])c4c([H])c(C5([H])C([H])([H])C([H])([H])N(C(=O)C([H])([H])C([H])([H])N6C([H])([H])C([H])([H])OC([H])([H])C6([H])[H])C([H])([H])C5([H])[H])c([H])c([H])c4n3[H])c([H])n2n1


 40 45  0  0  0  0  0  0  0  0999 V2000
   35.4878  -14.3996   36.7518 C   0  0  0  0  0  0  0  0  0  0  0  0
   34.3825  -13.6253   36.5239 C   0  0  0  0  0  0  0  0  0  0  0  0
   33.4583  -14.4012   35.9042 N   0  0  0  0  0  0  0  0  0  0  0  0
   33.8846  -15.6494   35.7084 C   0  0  0  0  0  0  0  0  0  0  0  0
   33.3421  -16.7891   35.1510 C   0  0  0  0  0  0  0  0  0  0  0  0
   34.0399  -17.9730   35.0976 C   0  0  0  0  0  0  0  0  0  0  0  0
   35.3128  -18.0692   35.6024 C   0  0  0  0  0  0  0  0  0  0  0  0
   35.8205  -16.8910   36.1549 C   0  0  0  0  0  0  0  0  0  0  0  0
   35.1529  -15.6981   36.2186 C   0  0  0  0  0  0  0  0  0  0  0  0
   32.5103  -14.0481   35.6071 H   0  0  0  0  0  0  0  0  0  0  0  0
   34.2941  -12.1719   36.6268 C   0  0  0  0  0  0  0  0  0  0  0  0
   35.1116  -11.2660   36.0696 C   0  0  0  0  0  0  0  0  0  0  0  0
   34.8728   -9.9354   36.0866 N   0  0  0  0  0  0  0  0  0  0  0  0
   35.5884   -8.9298   35.5627 N   0  0  0  0  0  0  0  0  0  0  0  0
   34.9463   -7.7695   35.8200 C   0  0  0  0  0  0  0  0  0  0  0  0
   33.8381   -8.0798   36.5062 N   0  0  0  0  0  0  0  0  0  0  0  0
   33.7953   -9.4116   36.6686 C   0  0  0  0  0  0  0  0  0  0  0  0
   32.8841  -10.2720   37.2838 C   0  0  0  0  0  0  0  0  0  0  0  0
   31.7282   -9.6012   37.9287 C   0  0  0  0  0  0  0  0  0  0  0  0
   33.1303  -11.6285   37.2593 C   0  0  0  0  0  0  0  0  0  0  0  0
   32.1244  -12.4925   37.8971 C   0  0  0  0  0  0  0  0  0  0  0  0
   36.1599  -19.2667   35.5981 C   0  0  0  0  0  0  0  0  0  0  0  0
   37.0507  -19.4860   34.4491 C   0  0  0  0  0  0  0  0  0  0  0  0
   38.4351  -20.0363   34.8865 C   0  0  0  0  0  0  0  0  0  0  0  0
   39.0825  -19.1702   35.8223 N   0  0  0  0  0  0  0  0  0  0  0  0
   38.2080  -18.4309   36.7379 C   0  0  0  0  0  0  0  0  0  0  0  0
   36.9619  -19.2782   36.9291 C   0  0  0  0  0  0  0  0  0  0  0  0
   40.4846  -19.0397   35.8630 C   0  0  0  0  0  0  0  0  0  0  0  0
   41.0009  -18.1897   36.6436 O   0  0  0  0  0  0  0  0  0  0  0  0
   41.3855  -19.8552   35.0365 C   0  0  0  0  0  0  0  0  0  0  0  0
   42.0463  -20.9252   35.9055 C   0  0  0  0  0  0  0  0  0  0  0  0
   42.3190  -22.1313   35.2112 N   0  0  0  0  0  0  0  0  0  0  0  0
   41.9099  -22.0326   33.8359 C   0  0  0  0  0  0  0  0  0  0  0  0
   41.0131  -23.2104   33.4698 C   0  0  0  0  0  0  0  0  0  0  0  0
   40.0150  -23.3647   34.3933 O   0  0  0  0  0  0  0  0  0  0  0  0
   40.4637  -23.6616   35.6482 C   0  0  0  0  0  0  0  0  0  0  0  0
   41.9512  -23.3595   35.8198 C   0  0  0  0  0  0  0  0  0  0  0  0
   37.0837  -15.4181   38.4109 C   0  0  0  0  0  0  0  0  0  0  0  0
   36.7340  -14.2298   37.5035 C   0  0  0  0  0  0  0  0  0  0  0  0
   37.8565  -13.3751   37.0727 C   0  0  0  0  0  0  0  0  0  0  0  0
 38 39  1  0  0  0
 39 40  1  0  0  0
 39  1  1  0  0  0
  1  2  2  0  0  0
  2  3  1  0  0  0
  3  4  1  0  0  0
  4  5  2  0  0  0
  5  6  1  0  0  0
  6  7  2  0  0  0
  7  8  1  0  0  0
  8  9  2  0  0  0
  7 22  1  0  0  0
 22 23  1  0  0  0
 23 24  1  0  0  0
 24 25  1  0  0  0
 25 26  1  0  0  0
 26 27  1  0  0  0
 25 28  1  0  0  0
 28 29  2  0  0  0
 28 30  1  0  0  0
 30 31  1  0  0  0
 31 32  1  0  0  0
 32 33  1  0  0  0
 33 34  1  0  0  0
 34 35  1  0  0  0
 35 36  1  0  0  0
 36 37  1  0  0  0
  2 11  1  0  0  0
 11 12  2  0  0  0
 12 13  1  0  0  0
 13 14  1  0  0  0
 14 15  2  0  0  0
 15 16  1  0  0  0
 16 17  2  0  0  0
 17 18  1  0  0  0
 18 19  1  0  0  0
 18 20  2  0  0  0
 20 21  1  0  0  0
  9  1  1  0  0  0
 27 22  1  0  0  0
 37 32  1  0  0  0
 20 11  1  0  0  0
  9  4  1  0  0  0
 17 13  1  0  0  0
  3 10  1  0  0  0
M  END
> <minimizedAffinity>
-7.67729

> <CNNscore>
0.5994492173

> <CNNaffinity>
7.5017957687

> <CNN_VS>
4.4969453812

> <CNNaffinity_variance>
0.1992783248

$$$$
[H]c1nc2c(C([H])([H])[H])c(C([H])([H])[H])c(-c3c(C([H])(C([H])([H])[H])C([H])([H])[H])c4c([H])c(C5([H])C([H])([H])C([H])([H])N(C(=O)C([H])([H])C([H])([H])N6C([H])([H])C([H])([H])OC([H])([H])C6([H])[H])C([H])([H])C5([H])[H])c([H])c([H])c4n3[H])c([H])n2n1


 40 45  0  0  0  0  0  0  0  0999 V2000
   35.7426  -13.9561   36.8141 C   0  0  0  0  0  0  0  0  0  0  0  0
   34.6021  -13.2312   36.5978 C   0  0  0  0  0  0  0  0  0  0  0  0
   33.6771  -14.0695   36.0673 N   0  0  0  0  0  0  0  0  0  0  0  0
   34.1361  -15.3128   35.9201 C   0  0  0  0  0  0  0  0  0  0  0  0
   33.6074  -16.4988   35.4531 C   0  0  0  0  0  0  0  0  0  0  0  0
   34.3420  -17.6612   35.4312 C   0  0  0  0  0  0  0  0  0  0  0  0
   35.6396  -17.6885   35.8782 C   0  0  0  0  0  0  0  0  0  0  0  0
   36.1320  -16.4656   36.3397 C   0  0  0  0  0  0  0  0  0  0  0  0
   35.4277  -15.2926   36.3701 C   0  0  0  0  0  0  0  0  0  0  0  0
   32.7047  -13.7638   35.7976 H   0  0  0  0  0  0  0  0  0  0  0  0
   34.4690  -11.7778   36.6248 C   0  0  0  0  0  0  0  0  0  0  0  0
   35.2445  -10.8784   36.0009 C   0  0  0  0  0  0  0  0  0  0  0  0
   34.9632   -9.5569   35.9521 N   0  0  0  0  0  0  0  0  0  0  0  0
   35.6344   -8.5594   35.3585 N   0  0  0  0  0  0  0  0  0  0  0  0
   34.9608   -7.4074   35.5683 C   0  0  0  0  0  0  0  0  0  0  0  0
   33.8784   -7.7144   36.2959 N   0  0  0  0  0  0  0  0  0  0  0  0
   33.8823   -9.0361   36.5304 C   0  0  0  0  0  0  0  0  0  0  0  0
   33.0130   -9.8898   37.2120 C   0  0  0  0  0  0  0  0  0  0  0  0
   31.8503   -9.2212   37.8470 C   0  0  0  0  0  0  0  0  0  0  0  0
   33.3023  -11.2372   37.2544 C   0  0  0  0  0  0  0  0  0  0  0  0
   32.3390  -12.0963   37.9611 C   0  0  0  0  0  0  0  0  0  0  0  0
   36.5260  -18.8571   35.8987 C   0  0  0  0  0  0  0  0  0  0  0  0
   37.7862  -18.7627   36.6502 C   0  0  0  0  0  0  0  0  0  0  0  0
   38.1026  -20.0753   37.4171 C   0  0  0  0  0  0  0  0  0  0  0  0
   37.0487  -20.4372   38.3135 N   0  0  0  0  0  0  0  0  0  0  0  0
   35.6888  -20.0810   37.8971 C   0  0  0  0  0  0  0  0  0  0  0  0
   35.6865  -20.0737   36.3781 C   0  0  0  0  0  0  0  0  0  0  0  0
   37.3056  -21.1035   39.5277 C   0  0  0  0  0  0  0  0  0  0  0  0
   36.3498  -21.3149   40.3277 O   0  0  0  0  0  0  0  0  0  0  0  0
   38.6443  -21.5733   39.9116 C   0  0  0  0  0  0  0  0  0  0  0  0
   38.5594  -23.0245   40.3843 C   0  0  0  0  0  0  0  0  0  0  0  0
   39.0556  -23.9588   39.4398 N   0  0  0  0  0  0  0  0  0  0  0  0
   39.8162  -23.2948   38.4157 C   0  0  0  0  0  0  0  0  0  0  0  0
   39.3073  -23.7023   37.0371 C   0  0  0  0  0  0  0  0  0  0  0  0
   37.9467  -23.5743   36.9658 O   0  0  0  0  0  0  0  0  0  0  0  0
   37.2687  -24.3876   37.8279 C   0  0  0  0  0  0  0  0  0  0  0  0
   38.1677  -24.9423   38.9314 C   0  0  0  0  0  0  0  0  0  0  0  0
   37.4017  -14.7827   38.5174 C   0  0  0  0  0  0  0  0  0  0  0  0
   37.0161  -13.7049   37.4940 C   0  0  0  0  0  0  0  0  0  0  0  0
   38.1200  -12.9080   36.9264 C   0  0  0  0  0  0  0  0  0  0  0  0
 38 39  1  0  0  0
 39 40  1  0  0  0
 39  1  1  0  0  0
  1  2  2  0  0  0
  2  3  1  0  0  0
  3  4  1  0  0  0
  4  5  2  0  0  0
  5  6  1  0  0  0
  6  7  2  0  0  0
  7  8  1  0  0  0
  8  9  2  0  0  0
  7 22  1  0  0  0
 22 23  1  0  0  0
 23 24  1  0  0  0
 24 25  1  0  0  0
 25 26  1  0  0  0
 26 27  1  0  0  0
 25 28  1  0  0  0
 28 29  2  0  0  0
 28 30  1  0  0  0
 30 31  1  0  0  0
 31 32  1  0  0  0
 32 33  1  0  0  0
 33 34  1  0  0  0
 34 35  1  0  0  0
 35 36  1  0  0  0
 36 37  1  0  0  0
  2 11  1  0  0  0
 11 12  2  0  0  0
 12 13  1  0  0  0
 13 14  1  0  0  0
 14 15  2  0  0  0
 15 16  1  0  0  0
 16 17  2  0  0  0
 17 18  1  0  0  0
 18 19  1  0  0  0
 18 20  2  0  0  0
 20 21  1  0  0  0
  9  1  1  0  0  0
 27 22  1  0  0  0
 37 32  1  0  0  0
 20 11  1  0  0  0
  9  4  1  0  0  0
 17 13  1  0  0  0
  3 10  1  0  0  0
M  END
> <minimizedAffinity>
-7.27401

> <CNNscore>
0.5675244927

> <CNNaffinity>
7.3734955788

> <CNN_VS>
4.1846394539

> <CNNaffinity_variance>
0.2177331895

$$$$
[H]c1nc2c(C([H])([H])[H])c(C([H])([H])[H])c(-c3c(C([H])(C([H])([H])[H])C([H])([H])[H])c4c([H])c(C5([H])C([H])([H])C([H])([H])N(C(=O)C([H])([H])C([H])([H])N6C([H])([H])C([H])([H])OC([H])([H])C6([H])[H])C([H])([H])C5([H])[H])c([H])c([H])c4n3[H])c([H])n2n1


 40 45  0  0  0  0  0  0  0  0999 V2000
   35.5113  -14.8582   36.7595 C   0  0  0  0  0  0  0  0  0  0  0  0
   34.4470  -14.0241   36.5480 C   0  0  0  0  0  0  0  0  0  0  0  0
   33.4652  -14.7522   35.9597 N   0  0  0  0  0  0  0  0  0  0  0  0
   33.8143  -16.0249   35.7694 C   0  0  0  0  0  0  0  0  0  0  0  0
   33.1942  -17.1376   35.2389 C   0  0  0  0  0  0  0  0  0  0  0  0
   33.8215  -18.3603   35.1839 C   0  0  0  0  0  0  0  0  0  0  0  0
   35.0985  -18.5240   35.6599 C   0  0  0  0  0  0  0  0  0  0  0  0
   35.6861  -17.3711   36.1857 C   0  0  0  0  0  0  0  0  0  0  0  0
   35.0897  -16.1410   36.2504 C   0  0  0  0  0  0  0  0  0  0  0  0
   32.5321  -14.3483   35.6806 H   0  0  0  0  0  0  0  0  0  0  0  0
   34.4446  -12.5670   36.6350 C   0  0  0  0  0  0  0  0  0  0  0  0
   35.2679  -11.7135   36.0079 C   0  0  0  0  0  0  0  0  0  0  0  0
   35.1029  -10.3717   36.0216 N   0  0  0  0  0  0  0  0  0  0  0  0
   35.8324   -9.4127   35.4335 N   0  0  0  0  0  0  0  0  0  0  0  0
   35.2738   -8.2162   35.7180 C   0  0  0  0  0  0  0  0  0  0  0  0
   34.2022   -8.4576   36.4854 N   0  0  0  0  0  0  0  0  0  0  0  0
   34.0995   -9.7832   36.6704 C   0  0  0  0  0  0  0  0  0  0  0  0
   33.1895  -10.5855   37.3614 C   0  0  0  0  0  0  0  0  0  0  0  0
   32.1204   -9.8451   38.0762 C   0  0  0  0  0  0  0  0  0  0  0  0
   33.3599  -11.9535   37.3399 C   0  0  0  0  0  0  0  0  0  0  0  0
   32.3570  -12.7540   38.0602 C   0  0  0  0  0  0  0  0  0  0  0  0
   35.8752  -19.7684   35.6505 C   0  0  0  0  0  0  0  0  0  0  0  0
   37.3300  -19.6832   35.8458 C   0  0  0  0  0  0  0  0  0  0  0  0
   37.8610  -20.8293   36.7489 C   0  0  0  0  0  0  0  0  0  0  0  0
   37.2171  -20.8447   38.0258 N   0  0  0  0  0  0  0  0  0  0  0  0
   35.8177  -20.4083   38.0545 C   0  0  0  0  0  0  0  0  0  0  0  0
   35.2335  -20.7292   36.6896 C   0  0  0  0  0  0  0  0  0  0  0  0
   37.8918  -21.2611   39.1902 C   0  0  0  0  0  0  0  0  0  0  0  0
   37.3077  -21.1649   40.3073 O   0  0  0  0  0  0  0  0  0  0  0  0
   39.2544  -21.8115   39.1684 C   0  0  0  0  0  0  0  0  0  0  0  0
   40.1629  -20.9594   40.0544 C   0  0  0  0  0  0  0  0  0  0  0  0
   40.9948  -20.0713   39.3260 N   0  0  0  0  0  0  0  0  0  0  0  0
   41.3818  -20.6503   38.0677 C   0  0  0  0  0  0  0  0  0  0  0  0
   42.8972  -20.5909   37.9072 C   0  0  0  0  0  0  0  0  0  0  0  0
   43.5219  -21.0810   39.0217 O   0  0  0  0  0  0  0  0  0  0  0  0
   43.2759  -20.3609   40.1554 C   0  0  0  0  0  0  0  0  0  0  0  0
   42.0674  -19.4385   40.0067 C   0  0  0  0  0  0  0  0  0  0  0  0
   37.5188  -16.0893   37.6491 C   0  0  0  0  0  0  0  0  0  0  0  0
   36.7829  -14.7524   37.4797 C   0  0  0  0  0  0  0  0  0  0  0  0
   37.6096  -13.5319   37.5346 C   0  0  0  0  0  0  0  0  0  0  0  0
 38 39  1  0  0  0
 39 40  1  0  0  0
 39  1  1  0  0  0
  1  2  2  0  0  0
  2  3  1  0  0  0
  3  4  1  0  0  0
  4  5  2  0  0  0
  5  6  1  0  0  0
  6  7  2  0  0  0
  7  8  1  0  0  0
  8  9  2  0  0  0
  7 22  1  0  0  0
 22 23  1  0  0  0
 23 24  1  0  0  0
 24 25  1  0  0  0
 25 26  1  0  0  0
 26 27  1  0  0  0
 25 28  1  0  0  0
 28 29  2  0  0  0
 28 30  1  0  0  0
 30 31  1  0  0  0
 31 32  1  0  0  0
 32 33  1  0  0  0
 33 34  1  0  0  0
 34 35  1  0  0  0
 35 36  1  0  0  0
 36 37  1  0  0  0
  2 11  1  0  0  0
 11 12  2  0  0  0
 12 13  1  0  0  0
 13 14  1  0  0  0
 14 15  2  0  0  0
 15 16  1  0  0  0
 16 17  2  0  0  0
 17 18  1  0  0  0
 18 19  1  0  0  0
 18 20  2  0  0  0
 20 21  1  0  0  0
  9  1  1  0  0  0
 27 22  1  0  0  0
 37 32  1  0  0  0
 20 11  1  0  0  0
  9  4  1  0  0  0
 17 13  1  0  0  0
  3 10  1  0  0  0
M  END
> <minimizedAffinity>
-7.56836

> <CNNscore>
0.5577939153

> <CNNaffinity>
7.3880767822

> <CNN_VS>
4.1210241318

> <CNNaffinity_variance>
0.1713631004

$$$$
[H]c1nc2c(C([H])([H])[H])c(C([H])([H])[H])c(-c3c(C([H])(C([H])([H])[H])C([H])([H])[H])c4c([H])c(C5([H])C([H])([H])C([H])([H])N(C(=O)C([H])([H])C([H])([H])N6C([H])([H])C([H])([H])OC([H])([H])C6([H])[H])C([H])([H])C5([H])[H])c([H])c([H])c4n3[H])c([H])n2n1


 40 45  0  0  0  0  0  0  0  0999 V2000
   35.3221  -14.7346   36.7400 C   0  0  0  0  0  0  0  0  0  0  0  0
   34.0307  -14.3634   36.4799 C   0  0  0  0  0  0  0  0  0  0  0  0
   33.4619  -15.3473   35.7393 N   0  0  0  0  0  0  0  0  0  0  0  0
   34.3006  -16.3542   35.4932 C   0  0  0  0  0  0  0  0  0  0  0  0
   34.2118  -17.5552   34.8195 C   0  0  0  0  0  0  0  0  0  0  0  0
   35.2761  -18.4227   34.7406 C   0  0  0  0  0  0  0  0  0  0  0  0
   36.4775  -18.1270   35.3350 C   0  0  0  0  0  0  0  0  0  0  0  0
   36.5208  -16.9014   36.0036 C   0  0  0  0  0  0  0  0  0  0  0  0
   35.4812  -16.0161   36.0959 C   0  0  0  0  0  0  0  0  0  0  0  0
   32.4663  -15.3110   35.3941 H   0  0  0  0  0  0  0  0  0  0  0  0
   33.4427  -13.0415   36.6738 C   0  0  0  0  0  0  0  0  0  0  0  0
   32.2228  -12.7564   37.1534 C   0  0  0  0  0  0  0  0  0  0  0  0
   31.8104  -11.5024   37.4456 N   0  0  0  0  0  0  0  0  0  0  0  0
   30.6376  -11.0793   37.9389 N   0  0  0  0  0  0  0  0  0  0  0  0
   30.6923   -9.7368   38.0782 C   0  0  0  0  0  0  0  0  0  0  0  0
   31.9060   -9.3498   37.6628 N   0  0  0  0  0  0  0  0  0  0  0  0
   32.5911  -10.4369   37.2746 C   0  0  0  0  0  0  0  0  0  0  0  0
   33.8801  -10.6273   36.7731 C   0  0  0  0  0  0  0  0  0  0  0  0
   34.6698   -9.3842   36.5904 C   0  0  0  0  0  0  0  0  0  0  0  0
   34.2970  -11.9088   36.4814 C   0  0  0  0  0  0  0  0  0  0  0  0
   35.6735  -12.0566   35.9827 C   0  0  0  0  0  0  0  0  0  0  0  0
   37.6840  -18.9611   35.3154 C   0  0  0  0  0  0  0  0  0  0  0  0
   38.8468  -18.5230   36.1013 C   0  0  0  0  0  0  0  0  0  0  0  0
   39.5516  -19.7140   36.8054 C   0  0  0  0  0  0  0  0  0  0  0  0
   38.6572  -20.4367   37.6556 N   0  0  0  0  0  0  0  0  0  0  0  0
   37.2569  -20.4977   37.2256 C   0  0  0  0  0  0  0  0  0  0  0  0
   37.2625  -20.4040   35.7095 C   0  0  0  0  0  0  0  0  0  0  0  0
   39.1010  -21.0589   38.8390 C   0  0  0  0  0  0  0  0  0  0  0  0
   38.2534  -21.6028   39.6032 O   0  0  0  0  0  0  0  0  0  0  0  0
   40.5168  -21.1105   39.2300 C   0  0  0  0  0  0  0  0  0  0  0  0
   40.6217  -21.2534   40.7483 C   0  0  0  0  0  0  0  0  0  0  0  0
   40.6370  -20.0128   41.4352 N   0  0  0  0  0  0  0  0  0  0  0  0
   41.8984  -19.3455   41.2564 C   0  0  0  0  0  0  0  0  0  0  0  0
   42.4786  -18.9493   42.6100 C   0  0  0  0  0  0  0  0  0  0  0  0
   42.4679  -20.0126   43.4715 O   0  0  0  0  0  0  0  0  0  0  0  0
   41.2169  -20.4744   43.7645 C   0  0  0  0  0  0  0  0  0  0  0  0
   40.1667  -19.9755   42.7737 C   0  0  0  0  0  0  0  0  0  0  0  0
   36.6940  -15.1003   38.8188 C   0  0  0  0  0  0  0  0  0  0  0  0
   36.3948  -14.2212   37.5960 C   0  0  0  0  0  0  0  0  0  0  0  0
   37.4868  -13.3466   37.1282 C   0  0  0  0  0  0  0  0  0  0  0  0
 38 39  1  0  0  0
 39 40  1  0  0  0
 39  1  1  0  0  0
  1  2  2  0  0  0
  2  3  1  0  0  0
  3  4  1  0  0  0
  4  5  2  0  0  0
  5  6  1  0  0  0
  6  7  2  0  0  0
  7  8  1  0  0  0
  8  9  2  0  0  0
  7 22  1  0  0  0
 22 23  1  0  0  0
 23 24  1  0  0  0
 24 25  1  0  0  0
 25 26  1  0  0  0
 26 27  1  0  0  0
 25 28  1  0  0  0
 28 29  2  0  0  0
 28 30  1  0  0  0
 30 31  1  0  0  0
 31 32  1  0  0  0
 32 33  1  0  0  0
 33 34  1  0  0  0
 34 35  1  0  0  0
 35 36  1  0  0  0
 36 37  1  0  0  0
  2 11  1  0  0  0
 11 12  2  0  0  0
 12 13  1  0  0  0
 13 14  1  0  0  0
 14 15  2  0  0  0
 15 16  1  0  0  0
 16 17  2  0  0  0
 17 18  1  0  0  0
 18 19  1  0  0  0
 18 20  2  0  0  0
 20 21  1  0  0  0
  9  1  1  0  0  0
 27 22  1  0  0  0
 37 32  1  0  0  0
 20 11  1  0  0  0
  9  4  1  0  0  0
 17 13  1  0  0  0
  3 10  1  0  0  0
M  END
> <minimizedAffinity>
-7.04401

> <CNNscore>
0.5564336181

> <CNNaffinity>
7.2143220901

> <CNN_VS>
4.0142912865

> <CNNaffinity_variance>
0.1727913618

$$$$
[H]c1nc2c(C([H])([H])[H])c(C([H])([H])[H])c(-c3c(C([H])(C([H])([H])[H])C([H])([H])[H])c4c([H])c(C5([H])C([H])([H])C([H])([H])N(C(=O)C([H])([H])C([H])([H])N6C([H])([H])C([H])([H])OC([H])([H])C6([H])[H])C([H])([H])C5([H])[H])c([H])c([H])c4n3[H])c([H])n2n1


 40 45  0  0  0  0  0  0  0  0999 V2000
   35.4838  -14.3686   36.7414 C   0  0  0  0  0  0  0  0  0  0  0  0
   34.3760  -13.5968   36.5174 C   0  0  0  0  0  0  0  0  0  0  0  0
   33.4521  -14.3741   35.8991 N   0  0  0  0  0  0  0  0  0  0  0  0
   33.8809  -15.6210   35.7006 C   0  0  0  0  0  0  0  0  0  0  0  0
   33.3398  -16.7614   35.1431 C   0  0  0  0  0  0  0  0  0  0  0  0
   34.0404  -17.9435   35.0864 C   0  0  0  0  0  0  0  0  0  0  0  0
   35.3149  -18.0371   35.5877 C   0  0  0  0  0  0  0  0  0  0  0  0
   35.8211  -16.8584   36.1404 C   0  0  0  0  0  0  0  0  0  0  0  0
   35.1507  -15.6672   36.2074 C   0  0  0  0  0  0  0  0  0  0  0  0
   32.5025  -14.0230   35.6050 H   0  0  0  0  0  0  0  0  0  0  0  0
   34.2843  -12.1437   36.6224 C   0  0  0  0  0  0  0  0  0  0  0  0
   35.0975  -11.2350   36.0633 C   0  0  0  0  0  0  0  0  0  0  0  0
   34.8553   -9.9050   36.0828 N   0  0  0  0  0  0  0  0  0  0  0  0
   35.5664   -8.8970   35.5575 N   0  0  0  0  0  0  0  0  0  0  0  0
   34.9223   -7.7387   35.8186 C   0  0  0  0  0  0  0  0  0  0  0  0
   33.8174   -8.0526   36.5085 N   0  0  0  0  0  0  0  0  0  0  0  0
   33.7787   -9.3847   36.6694 C   0  0  0  0  0  0  0  0  0  0  0  0
   32.8719  -10.2482   37.2869 C   0  0  0  0  0  0  0  0  0  0  0  0
   31.7167   -9.5811   37.9369 C   0  0  0  0  0  0  0  0  0  0  0  0
   33.1215  -11.6040   37.2598 C   0  0  0  0  0  0  0  0  0  0  0  0
   32.1201  -12.4714   37.9003 C   0  0  0  0  0  0  0  0  0  0  0  0
   36.1649  -19.2326   35.5796 C   0  0  0  0  0  0  0  0  0  0  0  0
   37.1363  -19.3894   34.4871 C   0  0  0  0  0  0  0  0  0  0  0  0
   38.4882  -19.9624   34.9922 C   0  0  0  0  0  0  0  0  0  0  0  0
   39.0636  -19.1478   36.0171 N   0  0  0  0  0  0  0  0  0  0  0  0
   38.1230  -18.4590   36.9062 C   0  0  0  0  0  0  0  0  0  0  0  0
   36.8699  -19.3157   36.9620 C   0  0  0  0  0  0  0  0  0  0  0  0
   40.4587  -19.0195   36.1649 C   0  0  0  0  0  0  0  0  0  0  0  0
   40.9146  -18.2127   37.0249 O   0  0  0  0  0  0  0  0  0  0  0  0
   41.4196  -19.7892   35.3622 C   0  0  0  0  0  0  0  0  0  0  0  0
   42.2793  -18.8307   34.5385 C   0  0  0  0  0  0  0  0  0  0  0  0
   43.6711  -18.9765   34.7684 N   0  0  0  0  0  0  0  0  0  0  0  0
   43.9284  -20.0691   35.6676 C   0  0  0  0  0  0  0  0  0  0  0  0
   44.8147  -19.6038   36.8181 C   0  0  0  0  0  0  0  0  0  0  0  0
   44.3198  -18.4572   37.3777 O   0  0  0  0  0  0  0  0  0  0  0  0
   44.2918  -17.3924   36.5235 C   0  0  0  0  0  0  0  0  0  0  0  0
   44.4329  -17.8158   35.0626 C   0  0  0  0  0  0  0  0  0  0  0  0
   37.0682  -15.3697   38.4220 C   0  0  0  0  0  0  0  0  0  0  0  0
   36.7316  -14.1967   37.4900 C   0  0  0  0  0  0  0  0  0  0  0  0
   37.8633  -13.3632   37.0422 C   0  0  0  0  0  0  0  0  0  0  0  0
 38 39  1  0  0  0
 39 40  1  0  0  0
 39  1  1  0  0  0
  1  2  2  0  0  0
  2  3  1  0  0  0
  3  4  1  0  0  0
  4  5  2  0  0  0
  5  6  1  0  0  0
  6  7  2  0  0  0
  7  8  1  0  0  0
  8  9  2  0  0  0
  7 22  1  0  0  0
 22 23  1  0  0  0
 23 24  1  0  0  0
 24 25  1  0  0  0
 25 26  1  0  0  0
 26 27  1  0  0  0
 25 28  1  0  0  0
 28 29  2  0  0  0
 28 30  1  0  0  0
 30 31  1  0  0  0
 31 32  1  0  0  0
 32 33  1  0  0  0
 33 34  1  0  0  0
 34 35  1  0  0  0
 35 36  1  0  0  0
 36 37  1  0  0  0
  2 11  1  0  0  0
 11 12  2  0  0  0
 12 13  1  0  0  0
 13 14  1  0  0  0
 14 15  2  0  0  0
 15 16  1  0  0  0
 16 17  2  0  0  0
 17 18  1  0  0  0
 18 19  1  0  0  0
 18 20  2  0  0  0
 20 21  1  0  0  0
  9  1  1  0  0  0
 27 22  1  0  0  0
 37 32  1  0  0  0
 20 11  1  0  0  0
  9  4  1  0  0  0
 17 13  1  0  0  0
  3 10  1  0  0  0
M  END
> <minimizedAffinity>
-8.08896

> <CNNscore>
0.5308632255

> <CNNaffinity>
7.5723800659

> <CNN_VS>
4.0198979378

> <CNNaffinity_variance>
0.1340348423

$$$$
[H]c1nc2c(C([H])([H])[H])c(C([H])([H])[H])c(-c3c(C([H])(C([H])([H])[H])C([H])([H])[H])c4c([H])c(C5([H])C([H])([H])C([H])([H])N(C(=O)C([H])([H])C([H])([H])N6C([H])([H])C([H])([H])OC([H])([H])C6([H])[H])C([H])([H])C5([H])[H])c([H])c([H])c4n3[H])c([H])n2n1


 40 45  0  0  0  0  0  0  0  0999 V2000
   36.0238  -14.1301   37.0149 C   0  0  0  0  0  0  0  0  0  0  0  0
   34.9197  -13.4286   36.6126 C   0  0  0  0  0  0  0  0  0  0  0  0
   34.0915  -14.2952   35.9777 N   0  0  0  0  0  0  0  0  0  0  0  0
   34.5803  -15.5350   35.9363 C   0  0  0  0  0  0  0  0  0  0  0  0
   34.1386  -16.7414   35.4327 C   0  0  0  0  0  0  0  0  0  0  0  0
   34.8809  -17.8929   35.5532 C   0  0  0  0  0  0  0  0  0  0  0  0
   36.0991  -17.8883   36.1858 C   0  0  0  0  0  0  0  0  0  0  0  0
   36.5054  -16.6458   36.6777 C   0  0  0  0  0  0  0  0  0  0  0  0
   35.7917  -15.4830   36.5697 C   0  0  0  0  0  0  0  0  0  0  0  0
   33.1660  -14.0117   35.5597 H   0  0  0  0  0  0  0  0  0  0  0  0
   34.7686  -11.9771   36.5765 C   0  0  0  0  0  0  0  0  0  0  0  0
   35.4767  -11.1038   35.8448 C   0  0  0  0  0  0  0  0  0  0  0  0
   35.1735   -9.7895   35.7524 N   0  0  0  0  0  0  0  0  0  0  0  0
   35.7788   -8.8176   35.0547 N   0  0  0  0  0  0  0  0  0  0  0  0
   35.1086   -7.6630   35.2611 C   0  0  0  0  0  0  0  0  0  0  0  0
   34.0948   -7.9424   36.0914 N   0  0  0  0  0  0  0  0  0  0  0  0
   34.1370   -9.2501   36.3918 C   0  0  0  0  0  0  0  0  0  0  0  0
   33.3395  -10.0758   37.1863 C   0  0  0  0  0  0  0  0  0  0  0  0
   32.2241   -9.3867   37.8814 C   0  0  0  0  0  0  0  0  0  0  0  0
   33.6506  -11.4163   37.2730 C   0  0  0  0  0  0  0  0  0  0  0  0
   32.7616  -12.2469   38.1006 C   0  0  0  0  0  0  0  0  0  0  0  0
   36.9853  -19.0425   36.3705 C   0  0  0  0  0  0  0  0  0  0  0  0
   36.9008  -20.1476   35.4044 C   0  0  0  0  0  0  0  0  0  0  0  0
   38.3021  -20.7141   35.0488 C   0  0  0  0  0  0  0  0  0  0  0  0
   39.1704  -19.7035   34.5295 N   0  0  0  0  0  0  0  0  0  0  0  0
   38.9839  -18.3495   35.0599 C   0  0  0  0  0  0  0  0  0  0  0  0
   38.4400  -18.5052   36.4697 C   0  0  0  0  0  0  0  0  0  0  0  0
   40.1536  -19.9966   33.5641 C   0  0  0  0  0  0  0  0  0  0  0  0
   40.8301  -19.0507   33.0682 O   0  0  0  0  0  0  0  0  0  0  0  0
   40.4367  -21.3634   33.1040 C   0  0  0  0  0  0  0  0  0  0  0  0
   41.8849  -21.7234   33.4351 C   0  0  0  0  0  0  0  0  0  0  0  0
   42.1559  -23.1132   33.3581 N   0  0  0  0  0  0  0  0  0  0  0  0
   43.5379  -23.3811   33.6525 C   0  0  0  0  0  0  0  0  0  0  0  0
   44.1554  -24.2283   32.5450 C   0  0  0  0  0  0  0  0  0  0  0  0
   43.8872  -23.6891   31.3161 O   0  0  0  0  0  0  0  0  0  0  0  0
   42.5577  -23.6502   31.0075 C   0  0  0  0  0  0  0  0  0  0  0  0
   41.6703  -23.8354   32.2370 C   0  0  0  0  0  0  0  0  0  0  0  0
   37.4490  -14.9055   38.9397 C   0  0  0  0  0  0  0  0  0  0  0  0
   37.1810  -13.8410   37.8660 C   0  0  0  0  0  0  0  0  0  0  0  0
   38.3309  -13.0134   37.4551 C   0  0  0  0  0  0  0  0  0  0  0  0
 38 39  1  0  0  0
 39 40  1  0  0  0
 39  1  1  0  0  0
  1  2  2  0  0  0
  2  3  1  0  0  0
  3  4  1  0  0  0
  4  5  2  0  0  0
  5  6  1  0  0  0
  6  7  2  0  0  0
  7  8  1  0  0  0
  8  9  2  0  0  0
  7 22  1  0  0  0
 22 23  1  0  0  0
 23 24  1  0  0  0
 24 25  1  0  0  0
 25 26  1  0  0  0
 26 27  1  0  0  0
 25 28  1  0  0  0
 28 29  2  0  0  0
 28 30  1  0  0  0
 30 31  1  0  0  0
 31 32  1  0  0  0
 32 33  1  0  0  0
 33 34  1  0  0  0
 34 35  1  0  0  0
 35 36  1  0  0  0
 36 37  1  0  0  0
  2 11  1  0  0  0
 11 12  2  0  0  0
 12 13  1  0  0  0
 13 14  1  0  0  0
 14 15  2  0  0  0
 15 16  1  0  0  0
 16 17  2  0  0  0
 17 18  1  0  0  0
 18 19  1  0  0  0
 18 20  2  0  0  0
 20 21  1  0  0  0
  9  1  1  0  0  0
 27 22  1  0  0  0
 37 32  1  0  0  0
 20 11  1  0  0  0
  9  4  1  0  0  0
 17 13  1  0  0  0
  3 10  1  0  0  0
M  END
> <minimizedAffinity>
-6.07475

> <CNNscore>
0.5291772485

> <CNNaffinity>
7.1298546791

> <CNN_VS>
3.7729568481

> <CNNaffinity_variance>
0.3781562746

$$$$
[H]c1nc2c(C([H])([H])[H])c(C([H])([H])[H])c(-c3c(C([H])(C([H])([H])[H])C([H])([H])[H])c4c([H])c(C5([H])C([H])([H])C([H])([H])N(C(=O)C([H])([H])C([H])([H])N6C([H])([H])C([H])([H])OC([H])([H])C6([H])[H])C([H])([H])C5([H])[H])c([H])c([H])c4n3[H])c([H])n2n1


 40 45  0  0  0  0  0  0  0  0999 V2000
   35.8357  -13.9653   36.8130 C   0  0  0  0  0  0  0  0  0  0  0  0
   34.6742  -13.2672   36.6211 C   0  0  0  0  0  0  0  0  0  0  0  0
   33.7578  -14.1271   36.1106 N   0  0  0  0  0  0  0  0  0  0  0  0
   34.2423  -15.3594   35.9537 C   0  0  0  0  0  0  0  0  0  0  0  0
   33.7315  -16.5577   35.4983 C   0  0  0  0  0  0  0  0  0  0  0  0
   34.4923  -17.7027   35.4607 C   0  0  0  0  0  0  0  0  0  0  0  0
   35.7995  -17.6996   35.8798 C   0  0  0  0  0  0  0  0  0  0  0  0
   36.2731  -16.4653   36.3306 C   0  0  0  0  0  0  0  0  0  0  0  0
   35.5425  -15.3089   36.3759 C   0  0  0  0  0  0  0  0  0  0  0  0
   32.7730  -13.8443   35.8617 H   0  0  0  0  0  0  0  0  0  0  0  0
   34.5080  -11.8172   36.6508 C   0  0  0  0  0  0  0  0  0  0  0  0
   35.2546  -10.9000   36.0178 C   0  0  0  0  0  0  0  0  0  0  0  0
   34.9423   -9.5853   35.9735 N   0  0  0  0  0  0  0  0  0  0  0  0
   35.5827   -8.5723   35.3722 N   0  0  0  0  0  0  0  0  0  0  0  0
   34.8855   -7.4363   35.5913 C   0  0  0  0  0  0  0  0  0  0  0  0
   33.8197   -7.7684   36.3323 N   0  0  0  0  0  0  0  0  0  0  0  0
   33.8571   -9.0898   36.5658 C   0  0  0  0  0  0  0  0  0  0  0  0
   33.0163   -9.9636   37.2577 C   0  0  0  0  0  0  0  0  0  0  0  0
   31.8466   -9.3223   37.9078 C   0  0  0  0  0  0  0  0  0  0  0  0
   33.3372  -11.3040   37.2954 C   0  0  0  0  0  0  0  0  0  0  0  0
   32.4029  -12.1854   38.0136 C   0  0  0  0  0  0  0  0  0  0  0  0
   36.7130  -18.8473   35.8814 C   0  0  0  0  0  0  0  0  0  0  0  0
   37.9529  -18.7498   36.6655 C   0  0  0  0  0  0  0  0  0  0  0  0
   38.2832  -20.0804   37.3944 C   0  0  0  0  0  0  0  0  0  0  0  0
   37.2181  -20.4976   38.2526 N   0  0  0  0  0  0  0  0  0  0  0  0
   35.8599  -20.1589   37.8164 C   0  0  0  0  0  0  0  0  0  0  0  0
   35.8922  -20.0990   36.2990 C   0  0  0  0  0  0  0  0  0  0  0  0
   37.4630  -21.1995   39.4492 C   0  0  0  0  0  0  0  0  0  0  0  0
   36.4944  -21.4607   40.2185 O   0  0  0  0  0  0  0  0  0  0  0  0
   38.8035  -21.6511   39.8485 C   0  0  0  0  0  0  0  0  0  0  0  0
   39.2826  -20.8303   41.0456 C   0  0  0  0  0  0  0  0  0  0  0  0
   40.6696  -20.9664   41.3083 N   0  0  0  0  0  0  0  0  0  0  0  0
   41.0952  -20.0230   42.3069 C   0  0  0  0  0  0  0  0  0  0  0  0
   42.2993  -19.2340   41.8034 C   0  0  0  0  0  0  0  0  0  0  0  0
   42.0610  -18.7323   40.5527 O   0  0  0  0  0  0  0  0  0  0  0  0
   41.8655  -19.6909   39.6003 C   0  0  0  0  0  0  0  0  0  0  0  0
   41.5601  -21.0590   40.2072 C   0  0  0  0  0  0  0  0  0  0  0  0
   37.5327  -14.7342   38.5058 C   0  0  0  0  0  0  0  0  0  0  0  0
   37.1172  -13.6842   37.4655 C   0  0  0  0  0  0  0  0  0  0  0  0
   38.2019  -12.8874   36.8617 C   0  0  0  0  0  0  0  0  0  0  0  0
 38 39  1  0  0  0
 39 40  1  0  0  0
 39  1  1  0  0  0
  1  2  2  0  0  0
  2  3  1  0  0  0
  3  4  1  0  0  0
  4  5  2  0  0  0
  5  6  1  0  0  0
  6  7  2  0  0  0
  7  8  1  0  0  0
  8  9  2  0  0  0
  7 22  1  0  0  0
 22 23  1  0  0  0
 23 24  1  0  0  0
 24 25  1  0  0  0
 25 26  1  0  0  0
 26 27  1  0  0  0
 25 28  1  0  0  0
 28 29  2  0  0  0
 28 30  1  0  0  0
 30 31  1  0  0  0
 31 32  1  0  0  0
 32 33  1  0  0  0
 33 34  1  0  0  0
 34 35  1  0  0  0
 35 36  1  0  0  0
 36 37  1  0  0  0
  2 11  1  0  0  0
 11 12  2  0  0  0
 12 13  1  0  0  0
 13 14  1  0  0  0
 14 15  2  0  0  0
 15 16  1  0  0  0
 16 17  2  0  0  0
 17 18  1  0  0  0
 18 19  1  0  0  0
 18 20  2  0  0  0
 20 21  1  0  0  0
  9  1  1  0  0  0
 27 22  1  0  0  0
 37 32  1  0  0  0
 20 11  1  0  0  0
  9  4  1  0  0  0
 17 13  1  0  0  0
  3 10  1  0  0  0
M  END
> <minimizedAffinity>
-7.92161

> <CNNscore>
0.5202102065

> <CNNaffinity>
7.4323692322

> <CNN_VS>
3.8663942814

> <CNNaffinity_variance>
0.1690525413

$$$$
[H]c1nc2c(C([H])([H])[H])c(C([H])([H])[H])c(-c3c(C([H])(C([H])([H])[H])C([H])([H])[H])c4c([H])c(C5([H])C([H])([H])C([H])([H])N(C(=O)C([H])([H])C([H])([H])N6C([H])([H])C([H])([H])OC([H])([H])C6([H])[H])C([H])([H])C5([H])[H])c([H])c([H])c4n3[H])c([H])n2n1


 40 45  0  0  0  0  0  0  0  0999 V2000
   35.8419  -13.7543   36.8007 C   0  0  0  0  0  0  0  0  0  0  0  0
   34.6795  -13.0564   36.6135 C   0  0  0  0  0  0  0  0  0  0  0  0
   33.7557  -13.9209   36.1245 N   0  0  0  0  0  0  0  0  0  0  0  0
   34.2361  -15.1561   35.9775 C   0  0  0  0  0  0  0  0  0  0  0  0
   33.7178  -16.3589   35.5432 C   0  0  0  0  0  0  0  0  0  0  0  0
   34.4761  -17.5059   35.5113 C   0  0  0  0  0  0  0  0  0  0  0  0
   35.7880  -17.5001   35.9152 C   0  0  0  0  0  0  0  0  0  0  0  0
   36.2691  -16.2611   36.3449 C   0  0  0  0  0  0  0  0  0  0  0  0
   35.5412  -15.1028   36.3840 C   0  0  0  0  0  0  0  0  0  0  0  0
   32.7686  -13.6393   35.8836 H   0  0  0  0  0  0  0  0  0  0  0  0
   34.5164  -11.6059   36.6269 C   0  0  0  0  0  0  0  0  0  0  0  0
   35.2810  -10.6958   36.0051 C   0  0  0  0  0  0  0  0  0  0  0  0
   34.9732   -9.3808   35.9420 N   0  0  0  0  0  0  0  0  0  0  0  0
   35.6312   -8.3745   35.3485 N   0  0  0  0  0  0  0  0  0  0  0  0
   34.9316   -7.2350   35.5405 C   0  0  0  0  0  0  0  0  0  0  0  0
   33.8466   -7.5583   36.2571 N   0  0  0  0  0  0  0  0  0  0  0  0
   33.8747   -8.8778   36.5026 C   0  0  0  0  0  0  0  0  0  0  0  0
   33.0146   -9.7437   37.1804 C   0  0  0  0  0  0  0  0  0  0  0  0
   31.8305   -9.0942   37.7954 C   0  0  0  0  0  0  0  0  0  0  0  0
   33.3310  -11.0845   37.2374 C   0  0  0  0  0  0  0  0  0  0  0  0
   32.3767  -11.9576   37.9392 C   0  0  0  0  0  0  0  0  0  0  0  0
   36.6994  -18.6495   35.9207 C   0  0  0  0  0  0  0  0  0  0  0  0
   37.6741  -18.7606   37.0158 C   0  0  0  0  0  0  0  0  0  0  0  0
   37.8310  -20.2260   37.5047 C   0  0  0  0  0  0  0  0  0  0  0  0
   36.5844  -20.7837   37.9288 N   0  0  0  0  0  0  0  0  0  0  0  0
   35.3881  -20.3174   37.2210 C   0  0  0  0  0  0  0  0  0  0  0  0
   35.8327  -19.9353   35.8197 C   0  0  0  0  0  0  0  0  0  0  0  0
   36.5130  -21.7326   38.9676 C   0  0  0  0  0  0  0  0  0  0  0  0
   35.3789  -22.1220   39.3682 O   0  0  0  0  0  0  0  0  0  0  0  0
   37.7056  -22.3007   39.6118 C   0  0  0  0  0  0  0  0  0  0  0  0
   37.4567  -22.4396   41.1136 C   0  0  0  0  0  0  0  0  0  0  0  0
   37.4799  -21.2040   41.8092 N   0  0  0  0  0  0  0  0  0  0  0  0
   38.7607  -20.9899   42.4274 C   0  0  0  0  0  0  0  0  0  0  0  0
   38.5810  -20.6613   43.9057 C   0  0  0  0  0  0  0  0  0  0  0  0
   37.7580  -21.5737   44.5082 O   0  0  0  0  0  0  0  0  0  0  0  0
   36.4868  -21.5856   44.0099 C   0  0  0  0  0  0  0  0  0  0  0  0
   36.3870  -20.8847   42.6563 C   0  0  0  0  0  0  0  0  0  0  0  0
   37.5328  -14.4770   38.5198 C   0  0  0  0  0  0  0  0  0  0  0  0
   37.1314  -13.4676   37.4347 C   0  0  0  0  0  0  0  0  0  0  0  0
   38.2275  -12.7189   36.7911 C   0  0  0  0  0  0  0  0  0  0  0  0
 38 39  1  0  0  0
 39 40  1  0  0  0
 39  1  1  0  0  0
  1  2  2  0  0  0
  2  3  1  0  0  0
  3  4  1  0  0  0
  4  5  2  0  0  0
  5  6  1  0  0  0
  6  7  2  0  0  0
  7  8  1  0  0  0
  8  9  2  0  0  0
  7 22  1  0  0  0
 22 23  1  0  0  0
 23 24  1  0  0  0
 24 25  1  0  0  0
 25 26  1  0  0  0
 26 27  1  0  0  0
 25 28  1  0  0  0
 28 29  2  0  0  0
 28 30  1  0  0  0
 30 31  1  0  0  0
 31 32  1  0  0  0
 32 33  1  0  0  0
 33 34  1  0  0  0
 34 35  1  0  0  0
 35 36  1  0  0  0
 36 37  1  0  0  0
  2 11  1  0  0  0
 11 12  2  0  0  0
 12 13  1  0  0  0
 13 14  1  0  0  0
 14 15  2  0  0  0
 15 16  1  0  0  0
 16 17  2  0  0  0
 17 18  1  0  0  0
 18 19  1  0  0  0
 18 20  2  0  0  0
 20 21  1  0  0  0
  9  1  1  0  0  0
 27 22  1  0  0  0
 37 32  1  0  0  0
 20 11  1  0  0  0
  9  4  1  0  0  0
 17 13  1  0  0  0
  3 10  1  0  0  0
M  END
> <minimizedAffinity>
-7.37603

> <CNNscore>
0.4798494279

> <CNNaffinity>
7.2360792160

> <CNN_VS>
3.4722285271

> <CNNaffinity_variance>
0.0964484662

$$$$
[H]c1nc2c(C([H])([H])[H])c(C([H])([H])[H])c(-c3c(C([H])(C([H])([H])[H])C([H])([H])[H])c4c([H])c(C5([H])C([H])([H])C([H])([H])N(C(=O)C([H])([H])C([H])([H])N6C([H])([H])C([H])([H])OC([H])([H])C6([H])[H])C([H])([H])C5([H])[H])c([H])c([H])c4n3[H])c([H])n2n1


 40 45  0  0  0  0  0  0  0  0999 V2000
   34.8378  -22.2354   38.5117 C   0  0  0  0  0  0  0  0  0  0  0  0
   34.0326  -22.5017   37.4375 C   0  0  0  0  0  0  0  0  0  0  0  0
   34.7328  -23.2910   36.5850 N   0  0  0  0  0  0  0  0  0  0  0  0
   35.9583  -23.5678   37.0317 C   0  0  0  0  0  0  0  0  0  0  0  0
   37.0231  -24.3095   36.5624 C   0  0  0  0  0  0  0  0  0  0  0  0
   38.1958  -24.4238   37.2719 C   0  0  0  0  0  0  0  0  0  0  0  0
   38.3541  -23.8016   38.4851 C   0  0  0  0  0  0  0  0  0  0  0  0
   37.2515  -23.0617   38.9187 C   0  0  0  0  0  0  0  0  0  0  0  0
   36.0743  -22.9258   38.2341 C   0  0  0  0  0  0  0  0  0  0  0  0
   34.3464  -23.6397   35.6681 H   0  0  0  0  0  0  0  0  0  0  0  0
   32.7820  -21.8326   37.0924 C   0  0  0  0  0  0  0  0  0  0  0  0
   32.6308  -20.7176   36.3621 C   0  0  0  0  0  0  0  0  0  0  0  0
   31.4291  -20.2469   35.9592 N   0  0  0  0  0  0  0  0  0  0  0  0
   31.1358  -19.1661   35.2219 N   0  0  0  0  0  0  0  0  0  0  0  0
   29.7955  -19.1081   35.0637 C   0  0  0  0  0  0  0  0  0  0  0  0
   29.2793  -20.1603   35.7131 N   0  0  0  0  0  0  0  0  0  0  0  0
   30.2855  -20.8585   36.2626 C   0  0  0  0  0  0  0  0  0  0  0  0
   30.3350  -22.0261   37.0263 C   0  0  0  0  0  0  0  0  0  0  0  0
   29.0139  -22.6255   37.3386 C   0  0  0  0  0  0  0  0  0  0  0  0
   31.5636  -22.5042   37.4304 C   0  0  0  0  0  0  0  0  0  0  0  0
   31.5613  -23.7531   38.2086 C   0  0  0  0  0  0  0  0  0  0  0  0
   39.5526  -23.8396   39.3301 C   0  0  0  0  0  0  0  0  0  0  0  0
   40.8646  -23.6808   38.6858 C   0  0  0  0  0  0  0  0  0  0  0  0
   41.8225  -22.7996   39.5326 C   0  0  0  0  0  0  0  0  0  0  0  0
   41.2690  -21.5069   39.7926 N   0  0  0  0  0  0  0  0  0  0  0  0
   39.8112  -21.4394   39.9340 C   0  0  0  0  0  0  0  0  0  0  0  0
   39.3619  -22.7913   40.4612 C   0  0  0  0  0  0  0  0  0  0  0  0
   42.0827  -20.3631   39.9103 C   0  0  0  0  0  0  0  0  0  0  0  0
   41.5367  -19.2308   40.0447 O   0  0  0  0  0  0  0  0  0  0  0  0
   43.5510  -20.4235   39.8883 C   0  0  0  0  0  0  0  0  0  0  0  0
   44.0915  -19.3510   38.9427 C   0  0  0  0  0  0  0  0  0  0  0  0
   44.7768  -19.8786   37.8187 N   0  0  0  0  0  0  0  0  0  0  0  0
   44.8615  -18.9012   36.7672 C   0  0  0  0  0  0  0  0  0  0  0  0
   44.3474  -19.4926   35.4589 C   0  0  0  0  0  0  0  0  0  0  0  0
   43.1285  -20.0871   35.6420 O   0  0  0  0  0  0  0  0  0  0  0  0
   43.1538  -21.1468   36.5025 C   0  0  0  0  0  0  0  0  0  0  0  0
   44.4205  -21.1721   37.3559 C   0  0  0  0  0  0  0  0  0  0  0  0
   34.3603  -22.5926   40.9574 C   0  0  0  0  0  0  0  0  0  0  0  0
   34.6448  -21.6023   39.8189 C   0  0  0  0  0  0  0  0  0  0  0  0
   35.2165  -20.2985   40.2051 C   0  0  0  0  0  0  0  0  0  0  0  0
 38 39  1  0  0  0
 39 40  1  0  0  0
 39  1  1  0  0  0
  1  2  2  0  0  0
  2  3  1  0  0  0
  3  4  1  0  0  0
  4  5  2  0  0  0
  5  6  1  0  0  0
  6  7  2  0  0  0
  7  8  1  0  0  0
  8  9  2  0  0  0
  7 22  1  0  0  0
 22 23  1  0  0  0
 23 24  1  0  0  0
 24 25  1  0  0  0
 25 26  1  0  0  0
 26 27  1  0  0  0
 25 28  1  0  0  0
 28 29  2  0  0  0
 28 30  1  0  0  0
 30 31  1  0  0  0
 31 32  1  0  0  0
 32 33  1  0  0  0
 33 34  1  0  0  0
 34 35  1  0  0  0
 35 36  1  0  0  0
 36 37  1  0  0  0
  2 11  1  0  0  0
 11 12  2  0  0  0
 12 13  1  0  0  0
 13 14  1  0  0  0
 14 15  2  0  0  0
 15 16  1  0  0  0
 16 17  2  0  0  0
 17 18  1  0  0  0
 18 19  1  0  0  0
 18 20  2  0  0  0
 20 21  1  0  0  0
  9  1  1  0  0  0
 27 22  1  0  0  0
 37 32  1  0  0  0
 20 11  1  0  0  0
  9  4  1  0  0  0
 17 13  1  0  0  0
  3 10  1  0  0  0
M  END
> <minimizedAffinity>
-4.40878

> <CNNscore>
0.4768214226

> <CNNaffinity>
5.8647832870

> <CNN_VS>
2.7964541912

> <CNNaffinity_variance>
0.1419756413

$$$$
[H]O[C@@]1([H])C([H])([H])C([H])([H])[C@]2(C([H])([H])[H])C3([H])C([H])([H])C([H])([H])[C@]4(C([H])([H])[H])C(n5c([H])nc([H])c5[H])=C([H])C([H])([H])C4([H])C3([H])C([H])([H])C([H])([H])C2([H])C1([H])[H]


 26 30  0  0  0  0  0  0  0  0999 V2000
   33.3095  -20.6944   34.1682 C   0  0  0  0  0  0  0  0  0  0  0  0
   33.2813  -20.1348   35.5480 C   0  0  0  0  0  0  0  0  0  0  0  0
   34.0756  -20.9220   36.5557 C   0  0  0  0  0  0  0  0  0  0  0  0
   33.1985  -21.7056   37.5249 C   0  0  0  0  0  0  0  0  0  0  0  0
   32.0585  -22.3174   36.8053 C   0  0  0  0  0  0  0  0  0  0  0  0
   31.1293  -21.1788   36.3630 C   0  0  0  0  0  0  0  0  0  0  0  0
   30.2765  -21.7159   35.2813 C   0  0  0  0  0  0  0  0  0  0  0  0
   29.5482  -22.9400   35.7675 C   0  0  0  0  0  0  0  0  0  0  0  0
   29.7947  -23.2542   37.1971 C   0  0  0  0  0  0  0  0  0  0  0  0
   29.2127  -24.5942   37.5921 C   0  0  0  0  0  0  0  0  0  0  0  0
   29.1895  -24.5931   39.1112 C   0  0  0  0  0  0  0  0  0  0  0  0
   29.3587  -25.8845   39.6354 O   0  0  0  0  0  0  0  0  0  0  0  0
   30.0660  -23.5733   39.7394 C   0  0  0  0  0  0  0  0  0  0  0  0
   31.3421  -23.2551   39.0465 C   0  0  0  0  0  0  0  0  0  0  0  0
   31.2739  -23.3287   37.5581 C   0  0  0  0  0  0  0  0  0  0  0  0
   31.8017  -24.7207   37.1735 C   0  0  0  0  0  0  0  0  0  0  0  0
   31.9093  -19.9807   36.1570 C   0  0  0  0  0  0  0  0  0  0  0  0
   31.3524  -18.8787   35.3406 C   0  0  0  0  0  0  0  0  0  0  0  0
   32.5684  -17.9919   35.2998 C   0  0  0  0  0  0  0  0  0  0  0  0
   33.6584  -18.7205   35.4182 C   0  0  0  0  0  0  0  0  0  0  0  0
   30.3226  -26.0403   39.8581 H   0  0  0  0  0  0  0  0  0  0  0  0
   34.9657  -18.1775   35.4105 N   0  0  0  0  0  0  0  0  0  0  0  0
   35.8770  -18.2246   34.4022 C   0  0  0  0  0  0  0  0  0  0  0  0
   37.0447  -17.6047   34.7690 C   0  0  0  0  0  0  0  0  0  0  0  0
   36.8425  -17.1745   36.0172 N   0  0  0  0  0  0  0  0  0  0  0  0
   35.5792  -17.5243   36.4032 C   0  0  0  0  0  0  0  0  0  0  0  0
  2  1  1  0  0  0
  2  3  1  0  0  0
  3  4  1  0  0  0
  4  5  1  0  0  0
  5  6  1  0  0  0
  6  7  1  0  0  0
  7  8  1  0  0  0
  8  9  1  0  0  0
  9 10  1  0  0  0
 10 11  1  0  0  0
 11 12  1  0  0  0
 11 13  1  0  0  0
 13 14  1  0  0  0
 14 15  1  0  0  0
 15 16  1  0  0  0
  6 17  1  0  0  0
 17 18  1  0  0  0
 18 19  1  0  0  0
 19 20  2  0  0  0
 20 22  1  0  0  0
 22 23  1  0  0  0
 23 24  2  0  0  0
 24 25  1  0  0  0
 25 26  2  0  0  0
 17  2  1  0  0  0
 26 22  1  0  0  0
 20  2  1  0  0  0
 15  5  1  0  0  0
 15  9  1  0  0  0
 12 21  1  0  0  0
M  END
> <minimizedAffinity>
-4.34899

> <CNNscore>
0.5765203238

> <CNNaffinity>
4.9696540833

> <CNN_VS>
2.8651065826

> <CNNaffinity_variance>
0.0896003768

$$$$
[H]O[C@@]1([H])C([H])([H])C([H])([H])[C@]2(C([H])([H])[H])C3([H])C([H])([H])C([H])([H])[C@]4(C([H])([H])[H])C(n5c([H])nc([H])c5[H])=C([H])C([H])([H])C4([H])C3([H])C([H])([H])C([H])([H])C2([H])C1([H])[H]


 26 30  0  0  0  0  0  0  0  0999 V2000
   36.1993  -19.1566   34.4859 C   0  0  0  0  0  0  0  0  0  0  0  0
   35.9546  -19.4493   35.9255 C   0  0  0  0  0  0  0  0  0  0  0  0
   35.8149  -20.9130   36.2485 C   0  0  0  0  0  0  0  0  0  0  0  0
   34.3802  -21.3191   36.5634 C   0  0  0  0  0  0  0  0  0  0  0  0
   33.4417  -20.6495   35.6349 C   0  0  0  0  0  0  0  0  0  0  0  0
   33.4456  -19.1533   35.9767 C   0  0  0  0  0  0  0  0  0  0  0  0
   32.9020  -18.4423   34.7999 C   0  0  0  0  0  0  0  0  0  0  0  0
   31.5391  -18.9846   34.4624 C   0  0  0  0  0  0  0  0  0  0  0  0
   31.0532  -20.0154   35.4135 C   0  0  0  0  0  0  0  0  0  0  0  0
   29.7802  -20.6769   34.9316 C   0  0  0  0  0  0  0  0  0  0  0  0
   29.2083  -21.3869   36.1470 C   0  0  0  0  0  0  0  0  0  0  0  0
   28.5018  -22.5458   35.7883 O   0  0  0  0  0  0  0  0  0  0  0  0
   30.1783  -21.5956   37.2508 C   0  0  0  0  0  0  0  0  0  0  0  0
   31.5916  -21.8584   36.8722 C   0  0  0  0  0  0  0  0  0  0  0  0
   32.0442  -21.1515   35.6390 C   0  0  0  0  0  0  0  0  0  0  0  0
   31.9000  -22.1619   34.4889 C   0  0  0  0  0  0  0  0  0  0  0  0
   34.7337  -18.7931   36.5219 C   0  0  0  0  0  0  0  0  0  0  0  0
   35.1478  -17.3720   36.5380 C   0  0  0  0  0  0  0  0  0  0  0  0
   36.5613  -17.5548   37.0230 C   0  0  0  0  0  0  0  0  0  0  0  0
   37.0074  -18.7409   36.6665 C   0  0  0  0  0  0  0  0  0  0  0  0
   29.0983  -23.3471   35.8609 H   0  0  0  0  0  0  0  0  0  0  0  0
   38.3080  -19.2102   36.9703 N   0  0  0  0  0  0  0  0  0  0  0  0
   39.4899  -18.7571   36.4732 C   0  0  0  0  0  0  0  0  0  0  0  0
   40.5425  -19.4719   36.9864 C   0  0  0  0  0  0  0  0  0  0  0  0
   39.9950  -20.3725   37.8068 N   0  0  0  0  0  0  0  0  0  0  0  0
   38.6381  -20.2106   37.7941 C   0  0  0  0  0  0  0  0  0  0  0  0
  2  1  1  0  0  0
  2  3  1  0  0  0
  3  4  1  0  0  0
  4  5  1  0  0  0
  5  6  1  0  0  0
  6  7  1  0  0  0
  7  8  1  0  0  0
  8  9  1  0  0  0
  9 10  1  0  0  0
 10 11  1  0  0  0
 11 12  1  0  0  0
 11 13  1  0  0  0
 13 14  1  0  0  0
 14 15  1  0  0  0
 15 16  1  0  0  0
  6 17  1  0  0  0
 17 18  1  0  0  0
 18 19  1  0  0  0
 19 20  2  0  0  0
 20 22  1  0  0  0
 22 23  1  0  0  0
 23 24  2  0  0  0
 24 25  1  0  0  0
 25 26  2  0  0  0
 17  2  1  0  0  0
 26 22  1  0  0  0
 20  2  1  0  0  0
 15  5  1  0  0  0
 15  9  1  0  0  0
 12 21  1  0  0  0
M  END
> <minimizedAffinity>
-5.32742

> <CNNscore>
0.5690976977

> <CNNaffinity>
5.3486151695

> <CNN_VS>
3.0438845158

> <CNNaffinity_variance>
0.0695595890

$$$$
[H]O[C@@]1([H])C([H])([H])C([H])([H])[C@]2(C([H])([H])[H])C3([H])C([H])([H])C([H])([H])[C@]4(C([H])([H])[H])C(n5c([H])nc([H])c5[H])=C([H])C([H])([H])C4([H])C3([H])C([H])([H])C([H])([H])C2([H])C1([H])[H]


 26 30  0  0  0  0  0  0  0  0999 V2000
   32.2880  -18.4246   35.7258 C   0  0  0  0  0  0  0  0  0  0  0  0
   32.6735  -19.8626   35.7614 C   0  0  0  0  0  0  0  0  0  0  0  0
   33.3479  -20.2952   37.0359 C   0  0  0  0  0  0  0  0  0  0  0  0
   34.8423  -20.5409   36.8653 C   0  0  0  0  0  0  0  0  0  0  0  0
   35.4389  -19.4962   36.0027 C   0  0  0  0  0  0  0  0  0  0  0  0
   34.9027  -19.7121   34.5810 C   0  0  0  0  0  0  0  0  0  0  0  0
   35.1080  -18.4450   33.8473 C   0  0  0  0  0  0  0  0  0  0  0  0
   36.5618  -18.0585   33.8960 C   0  0  0  0  0  0  0  0  0  0  0  0
   37.4231  -19.0552   34.5800 C   0  0  0  0  0  0  0  0  0  0  0  0
   38.8316  -18.5413   34.7863 C   0  0  0  0  0  0  0  0  0  0  0  0
   39.6656  -19.7680   35.1147 C   0  0  0  0  0  0  0  0  0  0  0  0
   40.7323  -19.4578   35.9731 O   0  0  0  0  0  0  0  0  0  0  0  0
   38.8781  -20.9510   35.5430 C   0  0  0  0  0  0  0  0  0  0  0  0
   37.6449  -20.6960   36.3330 C   0  0  0  0  0  0  0  0  0  0  0  0
   36.9225  -19.4434   35.9665 C   0  0  0  0  0  0  0  0  0  0  0  0
   37.3835  -18.3738   36.9702 C   0  0  0  0  0  0  0  0  0  0  0  0
   33.5922  -20.3150   34.6531 C   0  0  0  0  0  0  0  0  0  0  0  0
   32.6900  -20.2423   33.4817 C   0  0  0  0  0  0  0  0  0  0  0  0
   31.4583  -20.8393   34.1088 C   0  0  0  0  0  0  0  0  0  0  0  0
   31.4622  -20.6147   35.4059 C   0  0  0  0  0  0  0  0  0  0  0  0
   40.4714  -19.6384   36.9231 H   0  0  0  0  0  0  0  0  0  0  0  0
   30.4334  -21.0472   36.2768 N   0  0  0  0  0  0  0  0  0  0  0  0
   29.1464  -20.6103   36.3210 C   0  0  0  0  0  0  0  0  0  0  0  0
   28.4467  -21.2495   37.3129 C   0  0  0  0  0  0  0  0  0  0  0  0
   29.3186  -22.0868   37.8809 N   0  0  0  0  0  0  0  0  0  0  0  0
   30.5238  -21.9609   37.2492 C   0  0  0  0  0  0  0  0  0  0  0  0
  2  1  1  0  0  0
  2  3  1  0  0  0
  3  4  1  0  0  0
  4  5  1  0  0  0
  5  6  1  0  0  0
  6  7  1  0  0  0
  7  8  1  0  0  0
  8  9  1  0  0  0
  9 10  1  0  0  0
 10 11  1  0  0  0
 11 12  1  0  0  0
 11 13  1  0  0  0
 13 14  1  0  0  0
 14 15  1  0  0  0
 15 16  1  0  0  0
  6 17  1  0  0  0
 17 18  1  0  0  0
 18 19  1  0  0  0
 19 20  2  0  0  0
 20 22  1  0  0  0
 22 23  1  0  0  0
 23 24  2  0  0  0
 24 25  1  0  0  0
 25 26  2  0  0  0
 17  2  1  0  0  0
 26 22  1  0  0  0
 20  2  1  0  0  0
 15  5  1  0  0  0
 15  9  1  0  0  0
 12 21  1  0  0  0
M  END
> <minimizedAffinity>
-5.54217

> <CNNscore>
0.5530776978

> <CNNaffinity>
5.2792878151

> <CNN_VS>
2.9198563099

> <CNNaffinity_variance>
0.1659014523

$$$$
[H]O[C@@]1([H])C([H])([H])C([H])([H])[C@]2(C([H])([H])[H])C3([H])C([H])([H])C([H])([H])[C@]4(C([H])([H])[H])C(n5c([H])nc([H])c5[H])=C([H])C([H])([H])C4([H])C3([H])C([H])([H])C([H])([H])C2([H])C1([H])[H]


 26 30  0  0  0  0  0  0  0  0999 V2000
   34.3899  -19.3570   33.7347 C   0  0  0  0  0  0  0  0  0  0  0  0
   34.4538  -19.3935   35.2222 C   0  0  0  0  0  0  0  0  0  0  0  0
   34.6591  -20.7670   35.8031 C   0  0  0  0  0  0  0  0  0  0  0  0
   33.4056  -21.3278   36.4640 C   0  0  0  0  0  0  0  0  0  0  0  0
   32.2113  -21.0155   35.6469 C   0  0  0  0  0  0  0  0  0  0  0  0
   31.9807  -19.5004   35.7298 C   0  0  0  0  0  0  0  0  0  0  0  0
   31.1179  -19.1340   34.5865 C   0  0  0  0  0  0  0  0  0  0  0  0
   29.8502  -19.9443   34.6253 C   0  0  0  0  0  0  0  0  0  0  0  0
   29.7426  -20.8302   35.8114 C   0  0  0  0  0  0  0  0  0  0  0  0
   28.5606  -21.7701   35.7123 C   0  0  0  0  0  0  0  0  0  0  0  0
   28.3520  -22.3072   37.1181 C   0  0  0  0  0  0  0  0  0  0  0  0
   27.8351  -23.6124   37.1053 O   0  0  0  0  0  0  0  0  0  0  0  0
   29.5163  -22.1340   38.0222 C   0  0  0  0  0  0  0  0  0  0  0  0
   30.8691  -22.2361   37.4143 C   0  0  0  0  0  0  0  0  0  0  0  0
   30.9599  -21.7247   36.0159 C   0  0  0  0  0  0  0  0  0  0  0  0
   30.8237  -22.9530   35.1010 C   0  0  0  0  0  0  0  0  0  0  0  0
   33.2469  -18.8369   35.9366 C   0  0  0  0  0  0  0  0  0  0  0  0
   33.3722  -17.3932   35.6346 C   0  0  0  0  0  0  0  0  0  0  0  0
   34.8554  -17.2465   35.8473 C   0  0  0  0  0  0  0  0  0  0  0  0
   35.4577  -18.3924   35.6082 C   0  0  0  0  0  0  0  0  0  0  0  0
   28.5801  -24.2768   37.1868 H   0  0  0  0  0  0  0  0  0  0  0  0
   36.8572  -18.5768   35.7160 N   0  0  0  0  0  0  0  0  0  0  0  0
   37.7504  -18.7519   34.7057 C   0  0  0  0  0  0  0  0  0  0  0  0
   39.0198  -18.9187   35.1987 C   0  0  0  0  0  0  0  0  0  0  0  0
   38.8986  -18.8445   36.5267 N   0  0  0  0  0  0  0  0  0  0  0  0
   37.5840  -18.6370   36.8369 C   0  0  0  0  0  0  0  0  0  0  0  0
  2  1  1  0  0  0
  2  3  1  0  0  0
  3  4  1  0  0  0
  4  5  1  0  0  0
  5  6  1  0  0  0
  6  7  1  0  0  0
  7  8  1  0  0  0
  8  9  1  0  0  0
  9 10  1  0  0  0
 10 11  1  0  0  0
 11 12  1  0  0  0
 11 13  1  0  0  0
 13 14  1  0  0  0
 14 15  1  0  0  0
 15 16  1  0  0  0
  6 17  1  0  0  0
 17 18  1  0  0  0
 18 19  1  0  0  0
 19 20  2  0  0  0
 20 22  1  0  0  0
 22 23  1  0  0  0
 23 24  2  0  0  0
 24 25  1  0  0  0
 25 26  2  0  0  0
 17  2  1  0  0  0
 26 22  1  0  0  0
 20  2  1  0  0  0
 15  5  1  0  0  0
 15  9  1  0  0  0
 12 21  1  0  0  0
M  END
> <minimizedAffinity>
-5.59041

> <CNNscore>
0.5511226654

> <CNNaffinity>
5.3247995377

> <CNN_VS>
2.9346177578

> <CNNaffinity_variance>
0.0765690953

$$$$
[H]O[C@@]1([H])C([H])([H])C([H])([H])[C@]2(C([H])([H])[H])C3([H])C([H])([H])C([H])([H])[C@]4(C([H])([H])[H])C(n5c([H])nc([H])c5[H])=C([H])C([H])([H])C4([H])C3([H])C([H])([H])C([H])([H])C2([H])C1([H])[H]


 26 30  0  0  0  0  0  0  0  0999 V2000
   36.9389  -21.6711   37.0149 C   0  0  0  0  0  0  0  0  0  0  0  0
   35.8203  -22.1717   37.8612 C   0  0  0  0  0  0  0  0  0  0  0  0
   34.9530  -23.2079   37.1977 C   0  0  0  0  0  0  0  0  0  0  0  0
   33.5841  -22.6711   36.7971 C   0  0  0  0  0  0  0  0  0  0  0  0
   33.7124  -21.3084   36.2329 C   0  0  0  0  0  0  0  0  0  0  0  0
   34.1136  -20.3714   37.3803 C   0  0  0  0  0  0  0  0  0  0  0  0
   34.6834  -19.1551   36.7624 C   0  0  0  0  0  0  0  0  0  0  0  0
   33.6867  -18.5544   35.8079 C   0  0  0  0  0  0  0  0  0  0  0  0
   32.3829  -19.2632   35.7801 C   0  0  0  0  0  0  0  0  0  0  0  0
   31.4861  -18.7581   34.6706 C   0  0  0  0  0  0  0  0  0  0  0  0
   30.0964  -19.2703   35.0091 C   0  0  0  0  0  0  0  0  0  0  0  0
   29.3363  -19.5154   33.8544 O   0  0  0  0  0  0  0  0  0  0  0  0
   30.0731  -20.3857   35.9880 C   0  0  0  0  0  0  0  0  0  0  0  0
   31.1973  -21.3570   35.9376 C   0  0  0  0  0  0  0  0  0  0  0  0
   32.5107  -20.7648   35.5507 C   0  0  0  0  0  0  0  0  0  0  0  0
   32.6667  -21.0176   34.0421 C   0  0  0  0  0  0  0  0  0  0  0  0
   34.8650  -21.1170   38.3630 C   0  0  0  0  0  0  0  0  0  0  0  0
   35.7169  -20.3932   39.3333 C   0  0  0  0  0  0  0  0  0  0  0  0
   36.3768  -21.5802   39.9830 C   0  0  0  0  0  0  0  0  0  0  0  0
   36.4293  -22.5842   39.1332 C   0  0  0  0  0  0  0  0  0  0  0  0
   29.4029  -20.4816   33.5990 H   0  0  0  0  0  0  0  0  0  0  0  0
   36.9987  -23.8424   39.4447 N   0  0  0  0  0  0  0  0  0  0  0  0
   38.1981  -24.3341   39.0336 C   0  0  0  0  0  0  0  0  0  0  0  0
   38.4015  -25.5995   39.5229 C   0  0  0  0  0  0  0  0  0  0  0  0
   37.3119  -25.8829   40.2414 N   0  0  0  0  0  0  0  0  0  0  0  0
   36.4624  -24.8136   40.1913 C   0  0  0  0  0  0  0  0  0  0  0  0
  2  1  1  0  0  0
  2  3  1  0  0  0
  3  4  1  0  0  0
  4  5  1  0  0  0
  5  6  1  0  0  0
  6  7  1  0  0  0
  7  8  1  0  0  0
  8  9  1  0  0  0
  9 10  1  0  0  0
 10 11  1  0  0  0
 11 12  1  0  0  0
 11 13  1  0  0  0
 13 14  1  0  0  0
 14 15  1  0  0  0
 15 16  1  0  0  0
  6 17  1  0  0  0
 17 18  1  0  0  0
 18 19  1  0  0  0
 19 20  2  0  0  0
 20 22  1  0  0  0
 22 23  1  0  0  0
 23 24  2  0  0  0
 24 25  1  0  0  0
 25 26  2  0  0  0
 17  2  1  0  0  0
 26 22  1  0  0  0
 20  2  1  0  0  0
 15  5  1  0  0  0
 15  9  1  0  0  0
 12 21  1  0  0  0
M  END
> <minimizedAffinity>
-3.87236

> <CNNscore>
0.5410330892

> <CNNaffinity>
4.8243827820

> <CNN_VS>
2.6101508141

> <CNNaffinity_variance>
0.1159591675

$$$$
[H]O[C@@]1([H])C([H])([H])C([H])([H])[C@]2(C([H])([H])[H])C3([H])C([H])([H])C([H])([H])[C@]4(C([H])([H])[H])C(n5c([H])nc([H])c5[H])=C([H])C([H])([H])C4([H])C3([H])C([H])([H])C([H])([H])C2([H])C1([H])[H]


 26 30  0  0  0  0  0  0  0  0999 V2000
   36.5394  -21.2490   36.6322 C   0  0  0  0  0  0  0  0  0  0  0  0
   35.8709  -21.9599   37.7573 C   0  0  0  0  0  0  0  0  0  0  0  0
   35.3678  -23.3363   37.4130 C   0  0  0  0  0  0  0  0  0  0  0  0
   33.8502  -23.4024   37.2904 C   0  0  0  0  0  0  0  0  0  0  0  0
   33.3397  -22.2048   36.5856 C   0  0  0  0  0  0  0  0  0  0  0  0
   33.5454  -21.0013   37.5156 C   0  0  0  0  0  0  0  0  0  0  0  0
   33.4815  -19.7897   36.6708 C   0  0  0  0  0  0  0  0  0  0  0  0
   32.1775  -19.7611   35.9198 C   0  0  0  0  0  0  0  0  0  0  0  0
   31.2661  -20.8818   36.2609 C   0  0  0  0  0  0  0  0  0  0  0  0
   30.0617  -20.9324   35.3458 C   0  0  0  0  0  0  0  0  0  0  0  0
   29.0620  -21.8395   36.0429 C   0  0  0  0  0  0  0  0  0  0  0  0
   28.2630  -22.5375   35.1233 O   0  0  0  0  0  0  0  0  0  0  0  0
   29.6459  -22.7003   37.1017 C   0  0  0  0  0  0  0  0  0  0  0  0
   31.0295  -23.1990   36.8850 C   0  0  0  0  0  0  0  0  0  0  0  0
   31.9206  -22.2542   36.1512 C   0  0  0  0  0  0  0  0  0  0  0  0
   31.8908  -22.6940   34.6781 C   0  0  0  0  0  0  0  0  0  0  0  0
   34.6884  -21.2455   38.3642 C   0  0  0  0  0  0  0  0  0  0  0  0
   35.3529  -20.1077   39.0387 C   0  0  0  0  0  0  0  0  0  0  0  0
   36.5242  -20.8478   39.6277 C   0  0  0  0  0  0  0  0  0  0  0  0
   36.8080  -21.8988   38.8875 C   0  0  0  0  0  0  0  0  0  0  0  0
   28.6508  -23.4448   34.9519 H   0  0  0  0  0  0  0  0  0  0  0  0
   37.8646  -22.7956   39.1765 N   0  0  0  0  0  0  0  0  0  0  0  0
   37.8650  -23.8130   40.0787 C   0  0  0  0  0  0  0  0  0  0  0  0
   39.0784  -24.4530   40.0937 C   0  0  0  0  0  0  0  0  0  0  0  0
   39.8275  -23.8171   39.1890 N   0  0  0  0  0  0  0  0  0  0  0  0
   39.0871  -22.8113   38.6345 C   0  0  0  0  0  0  0  0  0  0  0  0
  2  1  1  0  0  0
  2  3  1  0  0  0
  3  4  1  0  0  0
  4  5  1  0  0  0
  5  6  1  0  0  0
  6  7  1  0  0  0
  7  8  1  0  0  0
  8  9  1  0  0  0
  9 10  1  0  0  0
 10 11  1  0  0  0
 11 12  1  0  0  0
 11 13  1  0  0  0
 13 14  1  0  0  0
 14 15  1  0  0  0
 15 16  1  0  0  0
  6 17  1  0  0  0
 17 18  1  0  0  0
 18 19  1  0  0  0
 19 20  2  0  0  0
 20 22  1  0  0  0
 22 23  1  0  0  0
 23 24  2  0  0  0
 24 25  1  0  0  0
 25 26  2  0  0  0
 17  2  1  0  0  0
 26 22  1  0  0  0
 20  2  1  0  0  0
 15  5  1  0  0  0
 15  9  1  0  0  0
 12 21  1  0  0  0
M  END
> <minimizedAffinity>
-4.07548

> <CNNscore>
0.5392786264

> <CNNaffinity>
4.6497511864

> <CNN_VS>
2.5075113773

> <CNNaffinity_variance>
0.1448834538

$$$$
[H]O[C@@]1([H])C([H])([H])C([H])([H])[C@]2(C([H])([H])[H])C3([H])C([H])([H])C([H])([H])[C@]4(C([H])([H])[H])C(n5c([H])nc([H])c5[H])=C([H])C([H])([H])C4([H])C3([H])C([H])([H])C([H])([H])C2([H])C1([H])[H]


 26 30  0  0  0  0  0  0  0  0999 V2000
   36.2891  -23.0292   37.9744 C   0  0  0  0  0  0  0  0  0  0  0  0
   36.3982  -21.5464   37.8889 C   0  0  0  0  0  0  0  0  0  0  0  0
   37.2383  -21.0489   36.7430 C   0  0  0  0  0  0  0  0  0  0  0  0
   38.5882  -20.4997   37.1886 C   0  0  0  0  0  0  0  0  0  0  0  0
   39.1694  -21.3604   38.2436 C   0  0  0  0  0  0  0  0  0  0  0  0
   38.3092  -21.1886   39.5029 C   0  0  0  0  0  0  0  0  0  0  0  0
   38.5844  -22.3517   40.3732 C   0  0  0  0  0  0  0  0  0  0  0  0
   40.0605  -22.4399   40.6533 C   0  0  0  0  0  0  0  0  0  0  0  0
   40.8475  -21.3244   40.0706 C   0  0  0  0  0  0  0  0  0  0  0  0
   42.3379  -21.5538   40.1992 C   0  0  0  0  0  0  0  0  0  0  0  0
   42.9793  -20.2017   39.9373 C   0  0  0  0  0  0  0  0  0  0  0  0
   44.2444  -20.3320   39.3427 O   0  0  0  0  0  0  0  0  0  0  0  0
   42.0960  -19.2232   39.2552 C   0  0  0  0  0  0  0  0  0  0  0  0
   41.1314  -19.7587   38.2588 C   0  0  0  0  0  0  0  0  0  0  0  0
   40.5936  -21.1120   38.5827 C   0  0  0  0  0  0  0  0  0  0  0  0
   41.4510  -22.1140   37.7921 C   0  0  0  0  0  0  0  0  0  0  0  0
   36.9560  -20.8657   39.1146 C   0  0  0  0  0  0  0  0  0  0  0  0
   35.8527  -21.0620   40.0818 C   0  0  0  0  0  0  0  0  0  0  0  0
   34.6955  -20.7558   39.1685 C   0  0  0  0  0  0  0  0  0  0  0  0
   35.0203  -21.0371   37.9242 C   0  0  0  0  0  0  0  0  0  0  0  0
   44.1650  -20.2534   38.3475 H   0  0  0  0  0  0  0  0  0  0  0  0
   34.1408  -20.8627   36.8287 N   0  0  0  0  0  0  0  0  0  0  0  0
   33.3282  -21.7940   36.2616 C   0  0  0  0  0  0  0  0  0  0  0  0
   32.6354  -21.2600   35.2047 C   0  0  0  0  0  0  0  0  0  0  0  0
   33.0310  -19.9867   35.1265 N   0  0  0  0  0  0  0  0  0  0  0  0
   33.9452  -19.7494   36.1141 C   0  0  0  0  0  0  0  0  0  0  0  0
  2  1  1  0  0  0
  2  3  1  0  0  0
  3  4  1  0  0  0
  4  5  1  0  0  0
  5  6  1  0  0  0
  6  7  1  0  0  0
  7  8  1  0  0  0
  8  9  1  0  0  0
  9 10  1  0  0  0
 10 11  1  0  0  0
 11 12  1  0  0  0
 11 13  1  0  0  0
 13 14  1  0  0  0
 14 15  1  0  0  0
 15 16  1  0  0  0
  6 17  1  0  0  0
 17 18  1  0  0  0
 18 19  1  0  0  0
 19 20  2  0  0  0
 20 22  1  0  0  0
 22 23  1  0  0  0
 23 24  2  0  0  0
 24 25  1  0  0  0
 25 26  2  0  0  0
 17  2  1  0  0  0
 26 22  1  0  0  0
 20  2  1  0  0  0
 15  5  1  0  0  0
 15  9  1  0  0  0
 12 21  1  0  0  0
M  END
> <minimizedAffinity>
-4.14700

> <CNNscore>
0.5334967971

> <CNNaffinity>
4.8458600044

> <CNN_VS>
2.5852508545

> <CNNaffinity_variance>
0.0773892850

$$$$
[H]O[C@@]1([H])C([H])([H])C([H])([H])[C@]2(C([H])([H])[H])C3([H])C([H])([H])C([H])([H])[C@]4(C([H])([H])[H])C(n5c([H])nc([H])c5[H])=C([H])C([H])([H])C4([H])C3([H])C([H])([H])C([H])([H])C2([H])C1([H])[H]


 26 30  0  0  0  0  0  0  0  0999 V2000
   35.9020  -17.9406   36.8247 C   0  0  0  0  0  0  0  0  0  0  0  0
   35.8496  -19.2301   36.0814 C   0  0  0  0  0  0  0  0  0  0  0  0
   35.5429  -20.4301   36.9370 C   0  0  0  0  0  0  0  0  0  0  0  0
   36.7550  -21.3259   37.1631 C   0  0  0  0  0  0  0  0  0  0  0  0
   37.9623  -20.5042   37.4055 C   0  0  0  0  0  0  0  0  0  0  0  0
   38.3114  -19.7998   36.0874 C   0  0  0  0  0  0  0  0  0  0  0  0
   39.1894  -18.6602   36.4286 C   0  0  0  0  0  0  0  0  0  0  0  0
   40.3902  -19.1532   37.1904 C   0  0  0  0  0  0  0  0  0  0  0  0
   40.4393  -20.6291   37.3396 C   0  0  0  0  0  0  0  0  0  0  0  0
   41.5433  -21.0683   38.2771 C   0  0  0  0  0  0  0  0  0  0  0  0
   41.7225  -22.5553   38.0224 C   0  0  0  0  0  0  0  0  0  0  0  0
   42.1356  -23.2355   39.1790 O   0  0  0  0  0  0  0  0  0  0  0  0
   40.5839  -23.2016   37.3232 C   0  0  0  0  0  0  0  0  0  0  0  0
   39.2216  -22.6904   37.6278 C   0  0  0  0  0  0  0  0  0  0  0  0
   39.1578  -21.2268   37.9090 C   0  0  0  0  0  0  0  0  0  0  0  0
   39.1889  -21.0831   39.4395 C   0  0  0  0  0  0  0  0  0  0  0  0
   37.1030  -19.5929   35.3237 C   0  0  0  0  0  0  0  0  0  0  0  0
   37.0882  -18.5845   34.2401 C   0  0  0  0  0  0  0  0  0  0  0  0
   35.6230  -18.6427   33.8984 C   0  0  0  0  0  0  0  0  0  0  0  0
   34.9307  -19.0106   34.9559 C   0  0  0  0  0  0  0  0  0  0  0  0
   41.3417  -23.6243   39.6498 H   0  0  0  0  0  0  0  0  0  0  0  0
   33.5222  -19.1527   34.9569 N   0  0  0  0  0  0  0  0  0  0  0  0
   32.7714  -19.9749   34.1761 C   0  0  0  0  0  0  0  0  0  0  0  0
   31.4355  -19.8223   34.4483 C   0  0  0  0  0  0  0  0  0  0  0  0
   31.3711  -18.8948   35.4071 N   0  0  0  0  0  0  0  0  0  0  0  0
   32.6401  -18.4905   35.7131 C   0  0  0  0  0  0  0  0  0  0  0  0
  2  1  1  0  0  0
  2  3  1  0  0  0
  3  4  1  0  0  0
  4  5  1  0  0  0
  5  6  1  0  0  0
  6  7  1  0  0  0
  7  8  1  0  0  0
  8  9  1  0  0  0
  9 10  1  0  0  0
 10 11  1  0  0  0
 11 12  1  0  0  0
 11 13  1  0  0  0
 13 14  1  0  0  0
 14 15  1  0  0  0
 15 16  1  0  0  0
  6 17  1  0  0  0
 17 18  1  0  0  0
 18 19  1  0  0  0
 19 20  2  0  0  0
 20 22  1  0  0  0
 22 23  1  0  0  0
 23 24  2  0  0  0
 24 25  1  0  0  0
 25 26  2  0  0  0
 17  2  1  0  0  0
 26 22  1  0  0  0
 20  2  1  0  0  0
 15  5  1  0  0  0
 15  9  1  0  0  0
 12 21  1  0  0  0
M  END
> <minimizedAffinity>
-5.92742

> <CNNscore>
0.5283529758

> <CNNaffinity>
5.1002817154

> <CNN_VS>
2.6947491169

> <CNNaffinity_variance>
0.0727893934

$$$$
[H]O[C@@]1([H])C([H])([H])C([H])([H])[C@]2(C([H])([H])[H])C3([H])C([H])([H])C([H])([H])[C@]4(C([H])([H])[H])C(n5c([H])nc([H])c5[H])=C([H])C([H])([H])C4([H])C3([H])C([H])([H])C([H])([H])C2([H])C1([H])[H]


 26 30  0  0  0  0  0  0  0  0999 V2000
   35.4070  -18.8941   34.5409 C   0  0  0  0  0  0  0  0  0  0  0  0
   34.6259  -18.5173   35.7516 C   0  0  0  0  0  0  0  0  0  0  0  0
   35.0967  -19.1693   37.0242 C   0  0  0  0  0  0  0  0  0  0  0  0
   34.1543  -20.2602   37.5186 C   0  0  0  0  0  0  0  0  0  0  0  0
   33.6668  -21.0716   36.3804 C   0  0  0  0  0  0  0  0  0  0  0  0
   32.7355  -20.1814   35.5464 C   0  0  0  0  0  0  0  0  0  0  0  0
   32.6282  -20.8048   34.2101 C   0  0  0  0  0  0  0  0  0  0  0  0
   32.1485  -22.2247   34.3478 C   0  0  0  0  0  0  0  0  0  0  0  0
   31.8326  -22.6165   35.7441 C   0  0  0  0  0  0  0  0  0  0  0  0
   31.5506  -24.0982   35.8677 C   0  0  0  0  0  0  0  0  0  0  0  0
   30.8747  -24.2701   37.2174 C   0  0  0  0  0  0  0  0  0  0  0  0
   31.1651  -25.5188   37.7899 O   0  0  0  0  0  0  0  0  0  0  0  0
   31.0589  -23.1285   38.1479 C   0  0  0  0  0  0  0  0  0  0  0  0
   32.3572  -22.4068   38.0884 C   0  0  0  0  0  0  0  0  0  0  0  0
   32.9626  -22.3321   36.7270 C   0  0  0  0  0  0  0  0  0  0  0  0
   33.9808  -23.4815   36.6476 C   0  0  0  0  0  0  0  0  0  0  0  0
   33.1460  -18.8034   35.6832 C   0  0  0  0  0  0  0  0  0  0  0  0
   32.7049  -17.8076   34.6806 C   0  0  0  0  0  0  0  0  0  0  0  0
   33.5063  -16.6291   35.1661 C   0  0  0  0  0  0  0  0  0  0  0  0
   34.5968  -17.0483   35.7727 C   0  0  0  0  0  0  0  0  0  0  0  0
   31.9378  -25.4348   38.4216 H   0  0  0  0  0  0  0  0  0  0  0  0
   35.5612  -16.1782   36.3358 N   0  0  0  0  0  0  0  0  0  0  0  0
   35.7548  -14.8620   36.0543 C   0  0  0  0  0  0  0  0  0  0  0  0
   36.7986  -14.3539   36.7854 C   0  0  0  0  0  0  0  0  0  0  0  0
   37.2471  -15.3738   37.5219 N   0  0  0  0  0  0  0  0  0  0  0  0
   36.4934  -16.4798   37.2460 C   0  0  0  0  0  0  0  0  0  0  0  0
  2  1  1  0  0  0
  2  3  1  0  0  0
  3  4  1  0  0  0
  4  5  1  0  0  0
  5  6  1  0  0  0
  6  7  1  0  0  0
  7  8  1  0  0  0
  8  9  1  0  0  0
  9 10  1  0  0  0
 10 11  1  0  0  0
 11 12  1  0  0  0
 11 13  1  0  0  0
 13 14  1  0  0  0
 14 15  1  0  0  0
 15 16  1  0  0  0
  6 17  1  0  0  0
 17 18  1  0  0  0
 18 19  1  0  0  0
 19 20  2  0  0  0
 20 22  1  0  0  0
 22 23  1  0  0  0
 23 24  2  0  0  0
 24 25  1  0  0  0
 25 26  2  0  0  0
 17  2  1  0  0  0
 26 22  1  0  0  0
 20  2  1  0  0  0
 15  5  1  0  0  0
 15  9  1  0  0  0
 12 21  1  0  0  0
M  END
> <minimizedAffinity>
-6.41044

> <CNNscore>
0.5226449966

> <CNNaffinity>
5.1973581314

> <CNN_VS>
2.7163732052

> <CNNaffinity_variance>
0.1414395124

$$$$
[H]OC(=O)[C@@]([H])(N([H])C(=O)[C@@]([H])(N([H])C(=O)[C@@]([H])(N([H])C(=O)[C@@]([H])(N([H])C(=O)[C@@]([H])(N([H])C(=O)[C@@]([H])(N([H])C(=O)[C@@]([H])(N([H])C(=O)C([H])([H])[H])C([H])([H])O[H])C([H])(C([H])([H])[H])C([H])([H])[H])C([H])([H])C([H])([H])C([H])([H])N=C(N([H])[H])N([H])[H])C([H])([H])O[H])C([H])(C([H])([H])[H])C([H])([H])[H])C([H])([H])O[H])C([H])([H])O[H]


 69 68  0  0  0  0  0  0  0  0999 V2000
   33.3778  -12.6225   37.3893 C   0  0  0  0  0  0  0  0  0  0  0  0
   33.6357  -13.2388   38.4796 O   0  0  0  0  0  0  0  0  0  0  0  0
   34.1319  -12.9496   36.2298 N   0  0  0  0  0  0  0  0  0  0  0  0
   34.0344  -12.5395   35.2923 H   0  0  0  0  0  0  0  0  0  0  0  0
   32.3101  -11.6127   37.4011 C   0  0  0  0  0  0  0  0  0  0  0  0
   29.8766  -11.8913   38.0979 C   0  0  0  0  0  0  0  0  0  0  0  0
   29.4702  -11.2714   37.0390 O   0  0  0  0  0  0  0  0  0  0  0  0
   31.2536  -12.0847   38.2986 N   0  0  0  0  0  0  0  0  0  0  0  0
   31.5980  -12.5943   39.1249 H   0  0  0  0  0  0  0  0  0  0  0  0
   28.8969  -12.3866   39.0737 C   0  0  0  0  0  0  0  0  0  0  0  0
   29.8464  -13.5549   41.3527 C   0  0  0  0  0  0  0  0  0  0  0  0
   31.0313  -13.2729   41.8209 O   0  0  0  0  0  0  0  0  0  0  0  0
   29.3630  -12.9864   40.2287 N   0  0  0  0  0  0  0  0  0  0  0  0
   30.5152  -12.2784   40.0745 H   0  0  0  0  0  0  0  0  0  0  0  0
   29.1712  -14.5661   42.2394 C   0  0  0  0  0  0  0  0  0  0  0  0
   27.5027  -17.7009   40.6609 C   0  0  0  0  0  0  0  0  0  0  0  0
   27.7148  -16.4536   41.4351 C   0  0  0  0  0  0  0  0  0  0  0  0
   26.7445  -15.9673   42.0650 O   0  0  0  0  0  0  0  0  0  0  0  0
   28.9587  -15.7843   41.4946 N   0  0  0  0  0  0  0  0  0  0  0  0
   29.7737  -16.2171   40.9553 H   0  0  0  0  0  0  0  0  0  0  0  0
   29.9492  -14.8059   43.4748 C   0  0  0  0  0  0  0  0  0  0  0  0
   29.8346  -13.7344   44.3885 O   0  0  0  0  0  0  0  0  0  0  0  0
   30.1270  -12.9003   43.9295 H   0  0  0  0  0  0  0  0  0  0  0  0
   27.7986  -11.3652   39.2600 C   0  0  0  0  0  0  0  0  0  0  0  0
   28.5317  -10.0001   39.1231 C   0  0  0  0  0  0  0  0  0  0  0  0
   26.7644  -11.3550   38.1885 C   0  0  0  0  0  0  0  0  0  0  0  0
   32.7762  -10.2519   37.7186 C   0  0  0  0  0  0  0  0  0  0  0  0
   31.8896   -9.1062   37.4133 C   0  0  0  0  0  0  0  0  0  0  0  0
   32.3584   -8.0494   36.4944 C   0  0  0  0  0  0  0  0  0  0  0  0
   33.8297   -8.0442   36.4517 N   0  0  0  0  0  0  0  0  0  0  0  0
   34.5289   -7.6870   35.4726 C   0  0  0  0  0  0  0  0  0  0  0  0
   34.0334   -7.2235   34.2221 N   0  0  0  0  0  0  0  0  0  0  0  0
   35.9616   -7.7376   35.6200 N   0  0  0  0  0  0  0  0  0  0  0  0
   33.9264   -6.1908   34.0479 H   0  0  0  0  0  0  0  0  0  0  0  0
   33.7778   -7.8999   33.4814 H   0  0  0  0  0  0  0  0  0  0  0  0
   36.5710   -8.0012   34.8365 H   0  0  0  0  0  0  0  0  0  0  0  0
   36.3967   -7.5119   36.5366 H   0  0  0  0  0  0  0  0  0  0  0  0
   35.1443  -13.9904   36.4330 C   0  0  0  0  0  0  0  0  0  0  0  0
   34.5345  -15.3066   36.2763 C   0  0  0  0  0  0  0  0  0  0  0  0
   33.3223  -15.4593   36.0479 O   0  0  0  0  0  0  0  0  0  0  0  0
   35.3754  -16.4312   36.3869 N   0  0  0  0  0  0  0  0  0  0  0  0
   36.3972  -16.3935   36.5733 H   0  0  0  0  0  0  0  0  0  0  0  0
   34.7912  -17.7912   36.2207 C   0  0  0  0  0  0  0  0  0  0  0  0
   35.4576  -18.6901   37.2259 C   0  0  0  0  0  0  0  0  0  0  0  0
   35.8979  -18.0867   38.2527 O   0  0  0  0  0  0  0  0  0  0  0  0
   35.5650  -20.0449   37.0350 N   0  0  0  0  0  0  0  0  0  0  0  0
   35.0772  -20.3785   36.0859 H   0  0  0  0  0  0  0  0  0  0  0  0
   36.1195  -21.0820   37.8043 C   0  0  0  0  0  0  0  0  0  0  0  0
   35.4931  -21.4618   39.0607 C   0  0  0  0  0  0  0  0  0  0  0  0
   34.9981  -22.5411   39.3510 O   0  0  0  0  0  0  0  0  0  0  0  0
   35.4394  -20.4565   40.1180 N   0  0  0  0  0  0  0  0  0  0  0  0
   35.8522  -19.5264   39.9037 H   0  0  0  0  0  0  0  0  0  0  0  0
   34.8406  -20.7761   41.3849 C   0  0  0  0  0  0  0  0  0  0  0  0
   34.1949  -19.6245   41.9846 C   0  0  0  0  0  0  0  0  0  0  0  0
   32.8346  -19.6235   42.1751 O   0  0  0  0  0  0  0  0  0  0  0  0
   34.8660  -18.6387   42.3288 O   0  0  0  0  0  0  0  0  0  0  0  0
   32.3401  -18.9412   42.7132 H   0  0  0  0  0  0  0  0  0  0  0  0
   35.9385  -21.2672   42.3557 C   0  0  0  0  0  0  0  0  0  0  0  0
   35.9805  -22.6775   42.2587 O   0  0  0  0  0  0  0  0  0  0  0  0
   35.2954  -23.0861   42.8126 H   0  0  0  0  0  0  0  0  0  0  0  0
   37.5987  -20.7647   38.0171 C   0  0  0  0  0  0  0  0  0  0  0  0
   38.0538  -21.1964   39.2602 O   0  0  0  0  0  0  0  0  0  0  0  0
   38.5672  -20.4345   39.6493 H   0  0  0  0  0  0  0  0  0  0  0  0
   35.0982  -18.1712   34.8008 C   0  0  0  0  0  0  0  0  0  0  0  0
   36.4707  -17.6106   34.4267 C   0  0  0  0  0  0  0  0  0  0  0  0
   34.0776  -17.9609   33.7658 C   0  0  0  0  0  0  0  0  0  0  0  0
   35.7032  -13.7995   37.8599 C   0  0  0  0  0  0  0  0  0  0  0  0
   36.8303  -14.6153   37.9510 O   0  0  0  0  0  0  0  0  0  0  0  0
   36.5464  -15.5500   38.0883 H   0  0  0  0  0  0  0  0  0  0  0  0
 16 17  1  0  0  0
 17 18  2  0  0  0
 17 19  1  0  0  0
 19 15  1  0  0  0
 15 21  1  0  0  0
 21 22  1  0  0  0
 15 11  1  0  0  0
 11 12  2  0  0  0
 11 13  1  0  0  0
 13 10  1  0  0  0
 10 24  1  0  0  0
 24 25  1  0  0  0
 24 26  1  0  0  0
 10  6  1  0  0  0
  6  7  2  0  0  0
  6  8  1  0  0  0
  8  5  1  0  0  0
  5 27  1  0  0  0
 27 28  1  0  0  0
 28 29  1  0  0  0
 29 30  1  0  0  0
 30 31  2  0  0  0
 31 32  1  0  0  0
 31 33  1  0  0  0
  5  1  1  0  0  0
  1  2  2  0  0  0
  1  3  1  0  0  0
  3 38  1  0  0  0
 38 67  1  0  0  0
 67 68  1  0  0  0
 38 39  1  0  0  0
 39 40  2  0  0  0
 39 41  1  0  0  0
 41 43  1  0  0  0
 43 64  1  0  0  0
 64 65  1  0  0  0
 64 66  1  0  0  0
 43 44  1  0  0  0
 44 45  2  0  0  0
 44 46  1  0  0  0
 46 48  1  0  0  0
 48 61  1  0  0  0
 61 62  1  0  0  0
 48 49  1  0  0  0
 49 50  2  0  0  0
 49 51  1  0  0  0
 51 53  1  0  0  0
 53 58  1  0  0  0
 58 59  1  0  0  0
 53 54  1  0  0  0
 54 55  1  0  0  0
 54 56  2  0  0  0
 19 20  1  0  0  0
 22 23  1  0  0  0
 13 14  1  0  0  0
  8  9  1  0  0  0
 32 34  1  0  0  0
 32 35  1  0  0  0
 33 36  1  0  0  0
 33 37  1  0  0  0
  3  4  1  0  0  0
 68 69  1  0  0  0
 41 42  1  0  0  0
 46 47  1  0  0  0
 62 63  1  0  0  0
 51 52  1  0  0  0
 59 60  1  0  0  0
 55 57  1  0  0  0
M  END
> <minimizedAffinity>
-7.52797

> <CNNscore>
0.7310596108

> <CNNaffinity>
7.7997817993

> <CNN_VS>
5.7021055222

> <CNNaffinity_variance>
0.4505452514

$$$$
[H]OC(=O)[C@@]([H])(N([H])C(=O)[C@@]([H])(N([H])C(=O)[C@@]([H])(N([H])C(=O)[C@@]([H])(N([H])C(=O)[C@@]([H])(N([H])C(=O)[C@@]([H])(N([H])C(=O)[C@@]([H])(N([H])C(=O)C([H])([H])[H])C([H])([H])O[H])C([H])(C([H])([H])[H])C([H])([H])[H])C([H])([H])C([H])([H])C([H])([H])N=C(N([H])[H])N([H])[H])C([H])([H])O[H])C([H])(C([H])([H])[H])C([H])([H])[H])C([H])([H])O[H])C([H])([H])O[H]


 69 68  0  0  0  0  0  0  0  0999 V2000
   33.5066  -12.4698   37.2940 C   0  0  0  0  0  0  0  0  0  0  0  0
   33.8191  -13.1323   38.3422 O   0  0  0  0  0  0  0  0  0  0  0  0
   34.2378  -12.7063   36.0984 N   0  0  0  0  0  0  0  0  0  0  0  0
   34.0977  -12.2515   35.1872 H   0  0  0  0  0  0  0  0  0  0  0  0
   32.4034  -11.5037   37.3894 C   0  0  0  0  0  0  0  0  0  0  0  0
   29.9791  -11.9301   38.0423 C   0  0  0  0  0  0  0  0  0  0  0  0
   29.5542  -11.2325   37.0404 O   0  0  0  0  0  0  0  0  0  0  0  0
   31.3615  -12.0915   38.2340 N   0  0  0  0  0  0  0  0  0  0  0  0
   31.7212  -12.6607   39.0136 H   0  0  0  0  0  0  0  0  0  0  0  0
   29.0145  -12.5455   38.9632 C   0  0  0  0  0  0  0  0  0  0  0  0
   29.8082  -12.9750   41.5412 C   0  0  0  0  0  0  0  0  0  0  0  0
   31.0657  -13.1367   41.8496 O   0  0  0  0  0  0  0  0  0  0  0  0
   29.4001  -12.7619   40.2730 N   0  0  0  0  0  0  0  0  0  0  0  0
   30.6861  -12.8327   39.8325 H   0  0  0  0  0  0  0  0  0  0  0  0
   28.9594  -13.0691   42.7802 C   0  0  0  0  0  0  0  0  0  0  0  0
   25.2824  -11.8346   43.0219 C   0  0  0  0  0  0  0  0  0  0  0  0
   26.6809  -12.1820   43.3736 C   0  0  0  0  0  0  0  0  0  0  0  0
   27.0731  -11.9727   44.5472 O   0  0  0  0  0  0  0  0  0  0  0  0
   27.5949  -12.7355   42.4477 N   0  0  0  0  0  0  0  0  0  0  0  0
   27.2401  -12.9107   41.4549 H   0  0  0  0  0  0  0  0  0  0  0  0
   29.0617  -14.4066   43.4045 C   0  0  0  0  0  0  0  0  0  0  0  0
   30.3307  -14.6231   43.9866 O   0  0  0  0  0  0  0  0  0  0  0  0
   31.0230  -14.4955   43.2822 H   0  0  0  0  0  0  0  0  0  0  0  0
   27.6531  -11.9172   38.7735 C   0  0  0  0  0  0  0  0  0  0  0  0
   26.6625  -13.0354   39.2072 C   0  0  0  0  0  0  0  0  0  0  0  0
   27.3601  -10.7719   39.6793 C   0  0  0  0  0  0  0  0  0  0  0  0
   32.8192  -10.1612   37.8309 C   0  0  0  0  0  0  0  0  0  0  0  0
   32.0096   -8.9929   37.4168 C   0  0  0  0  0  0  0  0  0  0  0  0
   32.4831   -8.1359   36.3112 C   0  0  0  0  0  0  0  0  0  0  0  0
   33.9507   -8.0326   36.3554 N   0  0  0  0  0  0  0  0  0  0  0  0
   34.6827   -7.6477   35.4115 C   0  0  0  0  0  0  0  0  0  0  0  0
   34.2343   -7.2422   34.1236 N   0  0  0  0  0  0  0  0  0  0  0  0
   36.1041   -7.5990   35.6444 N   0  0  0  0  0  0  0  0  0  0  0  0
   34.0702   -6.2225   33.9198 H   0  0  0  0  0  0  0  0  0  0  0  0
   34.0693   -7.9481   33.3848 H   0  0  0  0  0  0  0  0  0  0  0  0
   36.7759   -7.8358   34.9046 H   0  0  0  0  0  0  0  0  0  0  0  0
   36.4671   -7.3274   36.5798 H   0  0  0  0  0  0  0  0  0  0  0  0
   35.2933  -13.7169   36.2175 C   0  0  0  0  0  0  0  0  0  0  0  0
   34.7176  -15.0491   36.0678 C   0  0  0  0  0  0  0  0  0  0  0  0
   33.4971  -15.2648   36.1622 O   0  0  0  0  0  0  0  0  0  0  0  0
   35.6002  -16.1137   35.8005 N   0  0  0  0  0  0  0  0  0  0  0  0
   36.6309  -16.0213   35.7035 H   0  0  0  0  0  0  0  0  0  0  0  0
   35.0481  -17.4864   35.6291 C   0  0  0  0  0  0  0  0  0  0  0  0
   35.6378  -18.3443   36.7148 C   0  0  0  0  0  0  0  0  0  0  0  0
   36.4159  -17.7242   37.5036 O   0  0  0  0  0  0  0  0  0  0  0  0
   35.3429  -19.6797   36.8307 N   0  0  0  0  0  0  0  0  0  0  0  0
   34.6067  -20.0189   36.0605 H   0  0  0  0  0  0  0  0  0  0  0  0
   35.7437  -20.6764   37.7365 C   0  0  0  0  0  0  0  0  0  0  0  0
   37.0400  -21.3163   37.5774 C   0  0  0  0  0  0  0  0  0  0  0  0
   37.9317  -21.4119   38.4081 O   0  0  0  0  0  0  0  0  0  0  0  0
   37.3357  -21.9277   36.2850 N   0  0  0  0  0  0  0  0  0  0  0  0
   36.5977  -21.8643   35.5551 H   0  0  0  0  0  0  0  0  0  0  0  0
   38.5970  -22.5828   36.0707 C   0  0  0  0  0  0  0  0  0  0  0  0
   39.2483  -22.1208   34.8602 C   0  0  0  0  0  0  0  0  0  0  0  0
   38.5464  -21.3719   33.9473 O   0  0  0  0  0  0  0  0  0  0  0  0
   40.4390  -22.3974   34.6449 O   0  0  0  0  0  0  0  0  0  0  0  0
   38.9591  -20.8936   33.1725 H   0  0  0  0  0  0  0  0  0  0  0  0
   38.3621  -24.1044   35.9355 C   0  0  0  0  0  0  0  0  0  0  0  0
   38.1592  -24.3746   34.5622 O   0  0  0  0  0  0  0  0  0  0  0  0
   37.2392  -24.2006   34.3043 H   0  0  0  0  0  0  0  0  0  0  0  0
   34.6330  -21.7236   37.7986 C   0  0  0  0  0  0  0  0  0  0  0  0
   34.5358  -22.4551   36.6178 O   0  0  0  0  0  0  0  0  0  0  0  0
   33.5665  -22.4762   36.3818 H   0  0  0  0  0  0  0  0  0  0  0  0
   35.4783  -17.9054   34.2529 C   0  0  0  0  0  0  0  0  0  0  0  0
   34.5600  -19.0288   33.7705 C   0  0  0  0  0  0  0  0  0  0  0  0
   36.9013  -18.1596   33.9930 C   0  0  0  0  0  0  0  0  0  0  0  0
   35.9307  -13.5369   37.6126 C   0  0  0  0  0  0  0  0  0  0  0  0
   36.1194  -14.8198   38.1250 O   0  0  0  0  0  0  0  0  0  0  0  0
   35.2593  -15.1667   38.4614 H   0  0  0  0  0  0  0  0  0  0  0  0
 16 17  1  0  0  0
 17 18  2  0  0  0
 17 19  1  0  0  0
 19 15  1  0  0  0
 15 21  1  0  0  0
 21 22  1  0  0  0
 15 11  1  0  0  0
 11 12  2  0  0  0
 11 13  1  0  0  0
 13 10  1  0  0  0
 10 24  1  0  0  0
 24 25  1  0  0  0
 24 26  1  0  0  0
 10  6  1  0  0  0
  6  7  2  0  0  0
  6  8  1  0  0  0
  8  5  1  0  0  0
  5 27  1  0  0  0
 27 28  1  0  0  0
 28 29  1  0  0  0
 29 30  1  0  0  0
 30 31  2  0  0  0
 31 32  1  0  0  0
 31 33  1  0  0  0
  5  1  1  0  0  0
  1  2  2  0  0  0
  1  3  1  0  0  0
  3 38  1  0  0  0
 38 67  1  0  0  0
 67 68  1  0  0  0
 38 39  1  0  0  0
 39 40  2  0  0  0
 39 41  1  0  0  0
 41 43  1  0  0  0
 43 64  1  0  0  0
 64 65  1  0  0  0
 64 66  1  0  0  0
 43 44  1  0  0  0
 44 45  2  0  0  0
 44 46  1  0  0  0
 46 48  1  0  0  0
 48 61  1  0  0  0
 61 62  1  0  0  0
 48 49  1  0  0  0
 49 50  2  0  0  0
 49 51  1  0  0  0
 51 53  1  0  0  0
 53 58  1  0  0  0
 58 59  1  0  0  0
 53 54  1  0  0  0
 54 55  1  0  0  0
 54 56  2  0  0  0
 19 20  1  0  0  0
 22 23  1  0  0  0
 13 14  1  0  0  0
  8  9  1  0  0  0
 32 34  1  0  0  0
 32 35  1  0  0  0
 33 36  1  0  0  0
 33 37  1  0  0  0
  3  4  1  0  0  0
 68 69  1  0  0  0
 41 42  1  0  0  0
 46 47  1  0  0  0
 62 63  1  0  0  0
 51 52  1  0  0  0
 59 60  1  0  0  0
 55 57  1  0  0  0
M  END
> <minimizedAffinity>
-8.06458

> <CNNscore>
0.6977795959

> <CNNaffinity>
7.6791753769

> <CNN_VS>
5.3583717346

> <CNNaffinity_variance>
0.5527605414

$$$$
[H]OC(=O)[C@@]([H])(N([H])C(=O)[C@@]([H])(N([H])C(=O)[C@@]([H])(N([H])C(=O)[C@@]([H])(N([H])C(=O)[C@@]([H])(N([H])C(=O)[C@@]([H])(N([H])C(=O)[C@@]([H])(N([H])C(=O)C([H])([H])[H])C([H])([H])O[H])C([H])(C([H])([H])[H])C([H])([H])[H])C([H])([H])C([H])([H])C([H])([H])N=C(N([H])[H])N([H])[H])C([H])([H])O[H])C([H])(C([H])([H])[H])C([H])([H])[H])C([H])([H])O[H])C([H])([H])O[H]


 69 68  0  0  0  0  0  0  0  0999 V2000
   33.6105  -12.5540   37.2998 C   0  0  0  0  0  0  0  0  0  0  0  0
   33.9952  -13.1381   38.3704 O   0  0  0  0  0  0  0  0  0  0  0  0
   34.3005  -12.8328   36.0889 N   0  0  0  0  0  0  0  0  0  0  0  0
   34.1028  -12.4403   35.1596 H   0  0  0  0  0  0  0  0  0  0  0  0
   32.4713  -11.6296   37.3869 C   0  0  0  0  0  0  0  0  0  0  0  0
   30.0423  -12.0874   37.9994 C   0  0  0  0  0  0  0  0  0  0  0  0
   29.6255  -11.2981   37.0645 O   0  0  0  0  0  0  0  0  0  0  0  0
   31.4228  -12.2801   38.1755 N   0  0  0  0  0  0  0  0  0  0  0  0
   31.7759  -12.9209   38.9006 H   0  0  0  0  0  0  0  0  0  0  0  0
   29.0706  -12.7729   38.8615 C   0  0  0  0  0  0  0  0  0  0  0  0
   29.8491  -13.4075   41.4015 C   0  0  0  0  0  0  0  0  0  0  0  0
   31.0093  -13.0390   41.8713 O   0  0  0  0  0  0  0  0  0  0  0  0
   29.4499  -13.1020   40.1495 N   0  0  0  0  0  0  0  0  0  0  0  0
   30.6262  -12.4580   39.9166 H   0  0  0  0  0  0  0  0  0  0  0  0
   29.0961  -14.1866   42.4459 C   0  0  0  0  0  0  0  0  0  0  0  0
   30.9378  -16.9217   44.5026 C   0  0  0  0  0  0  0  0  0  0  0  0
   29.9608  -16.2358   43.6222 C   0  0  0  0  0  0  0  0  0  0  0  0
   29.0223  -16.9084   43.1305 O   0  0  0  0  0  0  0  0  0  0  0  0
   30.0385  -14.8596   43.3078 N   0  0  0  0  0  0  0  0  0  0  0  0
   30.8421  -14.3033   43.7404 H   0  0  0  0  0  0  0  0  0  0  0  0
   28.1766  -13.3156   43.2108 C   0  0  0  0  0  0  0  0  0  0  0  0
   28.4607  -11.9455   43.0154 O   0  0  0  0  0  0  0  0  0  0  0  0
   29.4104  -11.7846   43.2684 H   0  0  0  0  0  0  0  0  0  0  0  0
   27.7135  -12.1227   38.7211 C   0  0  0  0  0  0  0  0  0  0  0  0
   26.7148  -13.2699   39.0468 C   0  0  0  0  0  0  0  0  0  0  0  0
   27.4205  -11.0619   39.7245 C   0  0  0  0  0  0  0  0  0  0  0  0
   32.8244  -10.2890   37.8848 C   0  0  0  0  0  0  0  0  0  0  0  0
   31.9631   -9.1427   37.5160 C   0  0  0  0  0  0  0  0  0  0  0  0
   32.3844   -8.2380   36.4274 C   0  0  0  0  0  0  0  0  0  0  0  0
   33.8505   -8.1077   36.4283 N   0  0  0  0  0  0  0  0  0  0  0  0
   34.5532   -7.7773   35.4423 C   0  0  0  0  0  0  0  0  0  0  0  0
   34.0676   -7.4695   34.1410 N   0  0  0  0  0  0  0  0  0  0  0  0
   35.9786   -7.6891   35.6364 N   0  0  0  0  0  0  0  0  0  0  0  0
   33.8802   -6.4692   33.8715 H   0  0  0  0  0  0  0  0  0  0  0  0
   33.8981   -8.2276   33.4569 H   0  0  0  0  0  0  0  0  0  0  0  0
   36.6370   -7.9656   34.8984 H   0  0  0  0  0  0  0  0  0  0  0  0
   36.3583   -7.3474   36.5416 H   0  0  0  0  0  0  0  0  0  0  0  0
   35.4030  -13.7902   36.2204 C   0  0  0  0  0  0  0  0  0  0  0  0
   34.8862  -15.1512   36.1246 C   0  0  0  0  0  0  0  0  0  0  0  0
   33.6812  -15.4208   36.2673 O   0  0  0  0  0  0  0  0  0  0  0  0
   35.8086  -16.1805   35.8530 N   0  0  0  0  0  0  0  0  0  0  0  0
   36.8298  -16.0430   35.7174 H   0  0  0  0  0  0  0  0  0  0  0  0
   35.3165  -17.5814   35.7357 C   0  0  0  0  0  0  0  0  0  0  0  0
   36.1296  -18.4217   36.6818 C   0  0  0  0  0  0  0  0  0  0  0  0
   35.5978  -18.5830   37.8235 O   0  0  0  0  0  0  0  0  0  0  0  0
   37.3375  -18.9646   36.3216 N   0  0  0  0  0  0  0  0  0  0  0  0
   37.6050  -18.7353   35.2604 H   0  0  0  0  0  0  0  0  0  0  0  0
   38.2669  -19.7730   36.9980 C   0  0  0  0  0  0  0  0  0  0  0  0
   39.6839  -19.6520   36.6937 C   0  0  0  0  0  0  0  0  0  0  0  0
   40.6006  -19.4519   37.4771 O   0  0  0  0  0  0  0  0  0  0  0  0
   40.0869  -19.7850   35.2968 N   0  0  0  0  0  0  0  0  0  0  0  0
   39.3309  -19.9561   34.6036 H   0  0  0  0  0  0  0  0  0  0  0  0
   41.4744  -19.6837   34.9355 C   0  0  0  0  0  0  0  0  0  0  0  0
   41.7049  -18.6356   33.9603 C   0  0  0  0  0  0  0  0  0  0  0  0
   42.9863  -18.2217   33.6889 O   0  0  0  0  0  0  0  0  0  0  0  0
   40.7493  -18.1106   33.3671 O   0  0  0  0  0  0  0  0  0  0  0  0
   43.2369  -17.6202   32.9307 H   0  0  0  0  0  0  0  0  0  0  0  0
   41.9366  -21.0223   34.3161 C   0  0  0  0  0  0  0  0  0  0  0  0
   40.8157  -21.8846   34.3029 O   0  0  0  0  0  0  0  0  0  0  0  0
   40.6959  -22.3147   35.1653 H   0  0  0  0  0  0  0  0  0  0  0  0
   37.8106  -21.2244   36.8584 C   0  0  0  0  0  0  0  0  0  0  0  0
   38.0238  -21.7196   35.5746 O   0  0  0  0  0  0  0  0  0  0  0  0
   37.1771  -22.1745   35.3070 H   0  0  0  0  0  0  0  0  0  0  0  0
   35.5324  -17.9460   34.2952 C   0  0  0  0  0  0  0  0  0  0  0  0
   34.8319  -19.2756   34.0133 C   0  0  0  0  0  0  0  0  0  0  0  0
   36.8859  -17.8657   33.7305 C   0  0  0  0  0  0  0  0  0  0  0  0
   36.0558  -13.5358   37.5967 C   0  0  0  0  0  0  0  0  0  0  0  0
   36.2298  -14.7880   38.1846 O   0  0  0  0  0  0  0  0  0  0  0  0
   35.3678  -15.1004   38.5486 H   0  0  0  0  0  0  0  0  0  0  0  0
 16 17  1  0  0  0
 17 18  2  0  0  0
 17 19  1  0  0  0
 19 15  1  0  0  0
 15 21  1  0  0  0
 21 22  1  0  0  0
 15 11  1  0  0  0
 11 12  2  0  0  0
 11 13  1  0  0  0
 13 10  1  0  0  0
 10 24  1  0  0  0
 24 25  1  0  0  0
 24 26  1  0  0  0
 10  6  1  0  0  0
  6  7  2  0  0  0
  6  8  1  0  0  0
  8  5  1  0  0  0
  5 27  1  0  0  0
 27 28  1  0  0  0
 28 29  1  0  0  0
 29 30  1  0  0  0
 30 31  2  0  0  0
 31 32  1  0  0  0
 31 33  1  0  0  0
  5  1  1  0  0  0
  1  2  2  0  0  0
  1  3  1  0  0  0
  3 38  1  0  0  0
 38 67  1  0  0  0
 67 68  1  0  0  0
 38 39  1  0  0  0
 39 40  2  0  0  0
 39 41  1  0  0  0
 41 43  1  0  0  0
 43 64  1  0  0  0
 64 65  1  0  0  0
 64 66  1  0  0  0
 43 44  1  0  0  0
 44 45  2  0  0  0
 44 46  1  0  0  0
 46 48  1  0  0  0
 48 61  1  0  0  0
 61 62  1  0  0  0
 48 49  1  0  0  0
 49 50  2  0  0  0
 49 51  1  0  0  0
 51 53  1  0  0  0
 53 58  1  0  0  0
 58 59  1  0  0  0
 53 54  1  0  0  0
 54 55  1  0  0  0
 54 56  2  0  0  0
 19 20  1  0  0  0
 22 23  1  0  0  0
 13 14  1  0  0  0
  8  9  1  0  0  0
 32 34  1  0  0  0
 32 35  1  0  0  0
 33 36  1  0  0  0
 33 37  1  0  0  0
  3  4  1  0  0  0
 68 69  1  0  0  0
 41 42  1  0  0  0
 46 47  1  0  0  0
 62 63  1  0  0  0
 51 52  1  0  0  0
 59 60  1  0  0  0
 55 57  1  0  0  0
M  END
> <minimizedAffinity>
-8.15574

> <CNNscore>
0.6309226155

> <CNNaffinity>
7.6285996437

> <CNN_VS>
4.8130559921

> <CNNaffinity_variance>
0.3936515450

$$$$
[H]OC(=O)[C@@]([H])(N([H])C(=O)[C@@]([H])(N([H])C(=O)[C@@]([H])(N([H])C(=O)[C@@]([H])(N([H])C(=O)[C@@]([H])(N([H])C(=O)[C@@]([H])(N([H])C(=O)[C@@]([H])(N([H])C(=O)C([H])([H])[H])C([H])([H])O[H])C([H])(C([H])([H])[H])C([H])([H])[H])C([H])([H])C([H])([H])C([H])([H])N=C(N([H])[H])N([H])[H])C([H])([H])O[H])C([H])(C([H])([H])[H])C([H])([H])[H])C([H])([H])O[H])C([H])([H])O[H]


 69 68  0  0  0  0  0  0  0  0999 V2000
   33.6507  -12.4891   37.3410 C   0  0  0  0  0  0  0  0  0  0  0  0
   33.8265  -13.2526   38.3516 O   0  0  0  0  0  0  0  0  0  0  0  0
   34.5589  -12.5845   36.2519 N   0  0  0  0  0  0  0  0  0  0  0  0
   34.5402  -12.0386   35.3810 H   0  0  0  0  0  0  0  0  0  0  0  0
   32.5131  -11.5590   37.3661 C   0  0  0  0  0  0  0  0  0  0  0  0
   30.0677  -11.9702   37.9456 C   0  0  0  0  0  0  0  0  0  0  0  0
   29.6782  -11.1948   36.9876 O   0  0  0  0  0  0  0  0  0  0  0  0
   31.4421  -12.1783   38.1495 N   0  0  0  0  0  0  0  0  0  0  0  0
   31.7736  -12.8088   38.8937 H   0  0  0  0  0  0  0  0  0  0  0  0
   29.0718  -12.6242   38.8046 C   0  0  0  0  0  0  0  0  0  0  0  0
   29.8467  -13.3593   41.3185 C   0  0  0  0  0  0  0  0  0  0  0  0
   31.0176  -13.0340   41.7937 O   0  0  0  0  0  0  0  0  0  0  0  0
   29.4490  -13.0038   40.0792 N   0  0  0  0  0  0  0  0  0  0  0  0
   30.6394  -12.3809   39.8609 H   0  0  0  0  0  0  0  0  0  0  0  0
   29.0801  -14.1538   42.3412 C   0  0  0  0  0  0  0  0  0  0  0  0
   30.3698  -17.7705   42.9396 C   0  0  0  0  0  0  0  0  0  0  0  0
   29.5376  -16.6225   42.5042 C   0  0  0  0  0  0  0  0  0  0  0  0
   28.4805  -16.8556   41.8692 O   0  0  0  0  0  0  0  0  0  0  0  0
   29.8806  -15.2766   42.7681 N   0  0  0  0  0  0  0  0  0  0  0  0
   30.7820  -15.0993   43.3143 H   0  0  0  0  0  0  0  0  0  0  0  0
   28.6665  -13.3081   43.4826 C   0  0  0  0  0  0  0  0  0  0  0  0
   28.4313  -11.9707   43.0923 O   0  0  0  0  0  0  0  0  0  0  0  0
   29.2581  -11.6217   42.6606 H   0  0  0  0  0  0  0  0  0  0  0  0
   27.7495  -11.9000   38.6982 C   0  0  0  0  0  0  0  0  0  0  0  0
   26.6918  -13.0306   38.8496 C   0  0  0  0  0  0  0  0  0  0  0  0
   27.4623  -10.9537   39.8117 C   0  0  0  0  0  0  0  0  0  0  0  0
   32.8583  -10.2027   37.8257 C   0  0  0  0  0  0  0  0  0  0  0  0
   31.9814   -9.0747   37.4378 C   0  0  0  0  0  0  0  0  0  0  0  0
   32.4339   -8.1261   36.4004 C   0  0  0  0  0  0  0  0  0  0  0  0
   33.9039   -8.0506   36.4025 N   0  0  0  0  0  0  0  0  0  0  0  0
   34.6143   -7.6507   35.4483 C   0  0  0  0  0  0  0  0  0  0  0  0
   34.1350   -7.1984   34.1875 N   0  0  0  0  0  0  0  0  0  0  0  0
   36.0428   -7.6347   35.6389 N   0  0  0  0  0  0  0  0  0  0  0  0
   33.9841   -6.1701   34.0192 H   0  0  0  0  0  0  0  0  0  0  0  0
   33.9344   -7.8786   33.4335 H   0  0  0  0  0  0  0  0  0  0  0  0
   36.6873   -7.8611   34.8720 H   0  0  0  0  0  0  0  0  0  0  0  0
   36.4389   -7.3981   36.5703 H   0  0  0  0  0  0  0  0  0  0  0  0
   35.6190  -13.5822   36.4259 C   0  0  0  0  0  0  0  0  0  0  0  0
   35.2094  -14.8452   35.8211 C   0  0  0  0  0  0  0  0  0  0  0  0
   34.0259  -15.0987   35.5382 O   0  0  0  0  0  0  0  0  0  0  0  0
   36.2146  -15.7945   35.5520 N   0  0  0  0  0  0  0  0  0  0  0  0
   37.2257  -15.6631   35.7536 H   0  0  0  0  0  0  0  0  0  0  0  0
   35.8366  -17.0909   34.9235 C   0  0  0  0  0  0  0  0  0  0  0  0
   34.8204  -17.7432   35.8204 C   0  0  0  0  0  0  0  0  0  0  0  0
   35.1473  -17.7665   37.0471 O   0  0  0  0  0  0  0  0  0  0  0  0
   33.6434  -18.2573   35.3368 N   0  0  0  0  0  0  0  0  0  0  0  0
   33.5332  -18.0986   34.2355 H   0  0  0  0  0  0  0  0  0  0  0  0
   32.5504  -18.8940   35.9488 C   0  0  0  0  0  0  0  0  0  0  0  0
   32.7194  -20.2162   36.5306 C   0  0  0  0  0  0  0  0  0  0  0  0
   33.6001  -20.5891   37.2918 O   0  0  0  0  0  0  0  0  0  0  0  0
   31.7332  -21.2357   36.1848 N   0  0  0  0  0  0  0  0  0  0  0  0
   30.9697  -20.9511   35.5387 H   0  0  0  0  0  0  0  0  0  0  0  0
   31.8425  -22.5586   36.7359 C   0  0  0  0  0  0  0  0  0  0  0  0
   32.2173  -23.5346   35.7310 C   0  0  0  0  0  0  0  0  0  0  0  0
   33.2462  -24.4107   35.9767 O   0  0  0  0  0  0  0  0  0  0  0  0
   31.6113  -23.5838   34.6488 O   0  0  0  0  0  0  0  0  0  0  0  0
   33.4631  -25.2019   35.4053 H   0  0  0  0  0  0  0  0  0  0  0  0
   30.4757  -22.9784   37.3228 C   0  0  0  0  0  0  0  0  0  0  0  0
   30.3947  -24.3870   37.2248 O   0  0  0  0  0  0  0  0  0  0  0  0
   30.1077  -24.6593   36.3379 H   0  0  0  0  0  0  0  0  0  0  0  0
   31.3917  -18.8906   34.9530 C   0  0  0  0  0  0  0  0  0  0  0  0
   30.1653  -18.6776   35.5768 O   0  0  0  0  0  0  0  0  0  0  0  0
   29.5427  -19.3658   35.2102 H   0  0  0  0  0  0  0  0  0  0  0  0
   37.1206  -17.8641   34.8336 C   0  0  0  0  0  0  0  0  0  0  0  0
   36.8703  -19.1432   34.0341 C   0  0  0  0  0  0  0  0  0  0  0  0
   37.9142  -18.0797   36.0505 C   0  0  0  0  0  0  0  0  0  0  0  0
   35.8433  -13.7372   37.9460 C   0  0  0  0  0  0  0  0  0  0  0  0
   35.9938  -15.1031   38.1820 O   0  0  0  0  0  0  0  0  0  0  0  0
   35.1069  -15.5350   38.1759 H   0  0  0  0  0  0  0  0  0  0  0  0
 16 17  1  0  0  0
 17 18  2  0  0  0
 17 19  1  0  0  0
 19 15  1  0  0  0
 15 21  1  0  0  0
 21 22  1  0  0  0
 15 11  1  0  0  0
 11 12  2  0  0  0
 11 13  1  0  0  0
 13 10  1  0  0  0
 10 24  1  0  0  0
 24 25  1  0  0  0
 24 26  1  0  0  0
 10  6  1  0  0  0
  6  7  2  0  0  0
  6  8  1  0  0  0
  8  5  1  0  0  0
  5 27  1  0  0  0
 27 28  1  0  0  0
 28 29  1  0  0  0
 29 30  1  0  0  0
 30 31  2  0  0  0
 31 32  1  0  0  0
 31 33  1  0  0  0
  5  1  1  0  0  0
  1  2  2  0  0  0
  1  3  1  0  0  0
  3 38  1  0  0  0
 38 67  1  0  0  0
 67 68  1  0  0  0
 38 39  1  0  0  0
 39 40  2  0  0  0
 39 41  1  0  0  0
 41 43  1  0  0  0
 43 64  1  0  0  0
 64 65  1  0  0  0
 64 66  1  0  0  0
 43 44  1  0  0  0
 44 45  2  0  0  0
 44 46  1  0  0  0
 46 48  1  0  0  0
 48 61  1  0  0  0
 61 62  1  0  0  0
 48 49  1  0  0  0
 49 50  2  0  0  0
 49 51  1  0  0  0
 51 53  1  0  0  0
 53 58  1  0  0  0
 58 59  1  0  0  0
 53 54  1  0  0  0
 54 55  1  0  0  0
 54 56  2  0  0  0
 19 20  1  0  0  0
 22 23  1  0  0  0
 13 14  1  0  0  0
  8  9  1  0  0  0
 32 34  1  0  0  0
 32 35  1  0  0  0
 33 36  1  0  0  0
 33 37  1  0  0  0
  3  4  1  0  0  0
 68 69  1  0  0  0
 41 42  1  0  0  0
 46 47  1  0  0  0
 62 63  1  0  0  0
 51 52  1  0  0  0
 59 60  1  0  0  0
 55 57  1  0  0  0
M  END
> <minimizedAffinity>
-7.82628

> <CNNscore>
0.6298962235

> <CNNaffinity>
7.6469278336

> <CNN_VS>
4.8167710304

> <CNNaffinity_variance>
0.4046178758

$$$$
[H]OC(=O)[C@@]([H])(N([H])C(=O)[C@@]([H])(N([H])C(=O)[C@@]([H])(N([H])C(=O)[C@@]([H])(N([H])C(=O)[C@@]([H])(N([H])C(=O)[C@@]([H])(N([H])C(=O)[C@@]([H])(N([H])C(=O)C([H])([H])[H])C([H])([H])O[H])C([H])(C([H])([H])[H])C([H])([H])[H])C([H])([H])C([H])([H])C([H])([H])N=C(N([H])[H])N([H])[H])C([H])([H])O[H])C([H])(C([H])([H])[H])C([H])([H])[H])C([H])([H])O[H])C([H])([H])O[H]


 69 68  0  0  0  0  0  0  0  0999 V2000
   33.3339  -12.6193   37.3037 C   0  0  0  0  0  0  0  0  0  0  0  0
   33.6840  -13.2250   38.3741 O   0  0  0  0  0  0  0  0  0  0  0  0
   34.0677  -12.8678   36.1121 N   0  0  0  0  0  0  0  0  0  0  0  0
   33.9005  -12.4558   35.1853 H   0  0  0  0  0  0  0  0  0  0  0  0
   32.1870  -11.7029   37.3708 C   0  0  0  0  0  0  0  0  0  0  0  0
   29.7592  -12.0844   38.0377 C   0  0  0  0  0  0  0  0  0  0  0  0
   29.3529  -11.2100   37.1767 O   0  0  0  0  0  0  0  0  0  0  0  0
   31.1330  -12.3566   38.1492 N   0  0  0  0  0  0  0  0  0  0  0  0
   31.4764  -13.0648   38.8139 H   0  0  0  0  0  0  0  0  0  0  0  0
   28.7824  -12.7822   38.8841 C   0  0  0  0  0  0  0  0  0  0  0  0
   29.6860  -13.9456   41.1843 C   0  0  0  0  0  0  0  0  0  0  0  0
   30.6398  -13.4057   41.8924 O   0  0  0  0  0  0  0  0  0  0  0  0
   29.2285  -13.3835   40.0462 N   0  0  0  0  0  0  0  0  0  0  0  0
   30.1153  -12.3595   40.1791 H   0  0  0  0  0  0  0  0  0  0  0  0
   29.2286  -15.2257   41.8298 C   0  0  0  0  0  0  0  0  0  0  0  0
   31.3037  -16.8988   44.6578 C   0  0  0  0  0  0  0  0  0  0  0  0
   30.5277  -16.6894   43.4111 C   0  0  0  0  0  0  0  0  0  0  0  0
   30.3525  -17.6665   42.6433 O   0  0  0  0  0  0  0  0  0  0  0  0
   29.9783  -15.4393   43.0448 N   0  0  0  0  0  0  0  0  0  0  0  0
   30.1344  -14.6209   43.7144 H   0  0  0  0  0  0  0  0  0  0  0  0
   27.7702  -15.2138   42.0788 C   0  0  0  0  0  0  0  0  0  0  0  0
   27.0440  -15.7561   40.9950 O   0  0  0  0  0  0  0  0  0  0  0  0
   27.2781  -15.2426   40.1745 H   0  0  0  0  0  0  0  0  0  0  0  0
   27.5293  -11.9475   39.0145 C   0  0  0  0  0  0  0  0  0  0  0  0
   26.3771  -12.9635   38.7697 C   0  0  0  0  0  0  0  0  0  0  0  0
   27.2783  -11.4033   40.3779 C   0  0  0  0  0  0  0  0  0  0  0  0
   32.5238  -10.3569   37.8658 C   0  0  0  0  0  0  0  0  0  0  0  0
   31.7242   -9.2039   37.3939 C   0  0  0  0  0  0  0  0  0  0  0  0
   32.4104   -8.0356   36.8063 C   0  0  0  0  0  0  0  0  0  0  0  0
   33.8403   -8.3362   36.6285 N   0  0  0  0  0  0  0  0  0  0  0  0
   34.5042   -8.1277   35.5841 C   0  0  0  0  0  0  0  0  0  0  0  0
   34.0017   -7.5658   34.3777 N   0  0  0  0  0  0  0  0  0  0  0  0
   35.9028   -8.4756   35.6001 N   0  0  0  0  0  0  0  0  0  0  0  0
   34.0955   -6.5326   34.1986 H   0  0  0  0  0  0  0  0  0  0  0  0
   33.5437   -8.1710   33.6738 H   0  0  0  0  0  0  0  0  0  0  0  0
   36.3687   -8.8567   34.7680 H   0  0  0  0  0  0  0  0  0  0  0  0
   36.4584   -8.3495   36.4695 H   0  0  0  0  0  0  0  0  0  0  0  0
   35.1704  -13.8224   36.2615 C   0  0  0  0  0  0  0  0  0  0  0  0
   34.6663  -15.1832   36.1111 C   0  0  0  0  0  0  0  0  0  0  0  0
   33.4652  -15.4709   36.2512 O   0  0  0  0  0  0  0  0  0  0  0  0
   35.5966  -16.1904   35.7887 N   0  0  0  0  0  0  0  0  0  0  0  0
   36.6154  -16.0369   35.6516 H   0  0  0  0  0  0  0  0  0  0  0  0
   35.1175  -17.5900   35.6150 C   0  0  0  0  0  0  0  0  0  0  0  0
   35.7181  -18.4092   36.7244 C   0  0  0  0  0  0  0  0  0  0  0  0
   36.5354  -17.7723   37.4583 O   0  0  0  0  0  0  0  0  0  0  0  0
   35.3933  -19.7289   36.9151 N   0  0  0  0  0  0  0  0  0  0  0  0
   34.6256  -20.0856   36.1845 H   0  0  0  0  0  0  0  0  0  0  0  0
   35.7962  -20.6905   37.8572 C   0  0  0  0  0  0  0  0  0  0  0  0
   35.8284  -22.0959   37.4845 C   0  0  0  0  0  0  0  0  0  0  0  0
   34.8863  -22.8025   37.1569 O   0  0  0  0  0  0  0  0  0  0  0  0
   37.1260  -22.7650   37.4901 N   0  0  0  0  0  0  0  0  0  0  0  0
   37.9493  -22.1919   37.7642 H   0  0  0  0  0  0  0  0  0  0  0  0
   37.2223  -24.1511   37.1223 C   0  0  0  0  0  0  0  0  0  0  0  0
   37.5188  -24.9949   38.2637 C   0  0  0  0  0  0  0  0  0  0  0  0
   36.7608  -26.1152   38.5031 O   0  0  0  0  0  0  0  0  0  0  0  0
   38.4563  -24.7109   39.0260 O   0  0  0  0  0  0  0  0  0  0  0  0
   36.9926  -26.8217   39.1713 H   0  0  0  0  0  0  0  0  0  0  0  0
   38.3609  -24.3248   36.0916 C   0  0  0  0  0  0  0  0  0  0  0  0
   38.2278  -23.2836   35.1438 O   0  0  0  0  0  0  0  0  0  0  0  0
   37.5688  -23.5094   34.4672 H   0  0  0  0  0  0  0  0  0  0  0  0
   34.9558  -20.4891   39.1171 C   0  0  0  0  0  0  0  0  0  0  0  0
   33.6390  -20.9057   38.9408 O   0  0  0  0  0  0  0  0  0  0  0  0
   33.0642  -20.1739   39.3009 H   0  0  0  0  0  0  0  0  0  0  0  0
   35.6058  -17.9981   34.2550 C   0  0  0  0  0  0  0  0  0  0  0  0
   34.7698  -19.1814   33.7662 C   0  0  0  0  0  0  0  0  0  0  0  0
   37.0476  -18.1677   34.0321 C   0  0  0  0  0  0  0  0  0  0  0  0
   35.7684  -13.5999   37.6679 C   0  0  0  0  0  0  0  0  0  0  0  0
   36.0878  -14.8642   38.1616 O   0  0  0  0  0  0  0  0  0  0  0  0
   35.2662  -15.3072   38.4806 H   0  0  0  0  0  0  0  0  0  0  0  0
 16 17  1  0  0  0
 17 18  2  0  0  0
 17 19  1  0  0  0
 19 15  1  0  0  0
 15 21  1  0  0  0
 21 22  1  0  0  0
 15 11  1  0  0  0
 11 12  2  0  0  0
 11 13  1  0  0  0
 13 10  1  0  0  0
 10 24  1  0  0  0
 24 25  1  0  0  0
 24 26  1  0  0  0
 10  6  1  0  0  0
  6  7  2  0  0  0
  6  8  1  0  0  0
  8  5  1  0  0  0
  5 27  1  0  0  0
 27 28  1  0  0  0
 28 29  1  0  0  0
 29 30  1  0  0  0
 30 31  2  0  0  0
 31 32  1  0  0  0
 31 33  1  0  0  0
  5  1  1  0  0  0
  1  2  2  0  0  0
  1  3  1  0  0  0
  3 38  1  0  0  0
 38 67  1  0  0  0
 67 68  1  0  0  0
 38 39  1  0  0  0
 39 40  2  0  0  0
 39 41  1  0  0  0
 41 43  1  0  0  0
 43 64  1  0  0  0
 64 65  1  0  0  0
 64 66  1  0  0  0
 43 44  1  0  0  0
 44 45  2  0  0  0
 44 46  1  0  0  0
 46 48  1  0  0  0
 48 61  1  0  0  0
 61 62  1  0  0  0
 48 49  1  0  0  0
 49 50  2  0  0  0
 49 51  1  0  0  0
 51 53  1  0  0  0
 53 58  1  0  0  0
 58 59  1  0  0  0
 53 54  1  0  0  0
 54 55  1  0  0  0
 54 56  2  0  0  0
 19 20  1  0  0  0
 22 23  1  0  0  0
 13 14  1  0  0  0
  8  9  1  0  0  0
 32 34  1  0  0  0
 32 35  1  0  0  0
 33 36  1  0  0  0
 33 37  1  0  0  0
  3  4  1  0  0  0
 68 69  1  0  0  0
 41 42  1  0  0  0
 46 47  1  0  0  0
 62 63  1  0  0  0
 51 52  1  0  0  0
 59 60  1  0  0  0
 55 57  1  0  0  0
M  END
> <minimizedAffinity>
-7.51192

> <CNNscore>
0.5545678139

> <CNNaffinity>
7.3155198097

> <CNN_VS>
4.0569519997

> <CNNaffinity_variance>
0.5394308567

$$$$
[H]OC(=O)[C@@]([H])(N([H])C(=O)[C@@]([H])(N([H])C(=O)[C@@]([H])(N([H])C(=O)[C@@]([H])(N([H])C(=O)[C@@]([H])(N([H])C(=O)[C@@]([H])(N([H])C(=O)[C@@]([H])(N([H])C(=O)C([H])([H])[H])C([H])([H])O[H])C([H])(C([H])([H])[H])C([H])([H])[H])C([H])([H])C([H])([H])C([H])([H])N=C(N([H])[H])N([H])[H])C([H])([H])O[H])C([H])(C([H])([H])[H])C([H])([H])[H])C([H])([H])O[H])C([H])([H])O[H]


 69 68  0  0  0  0  0  0  0  0999 V2000
   33.5818  -12.8410   37.0891 C   0  0  0  0  0  0  0  0  0  0  0  0
   34.4785  -12.1379   36.5087 O   0  0  0  0  0  0  0  0  0  0  0  0
   33.7801  -14.2447   37.1907 N   0  0  0  0  0  0  0  0  0  0  0  0
   33.1493  -14.9287   37.6277 H   0  0  0  0  0  0  0  0  0  0  0  0
   32.3984  -12.1510   37.6213 C   0  0  0  0  0  0  0  0  0  0  0  0
   30.5654  -12.8806   39.2314 C   0  0  0  0  0  0  0  0  0  0  0  0
   29.7127  -12.0890   38.6681 O   0  0  0  0  0  0  0  0  0  0  0  0
   31.8793  -12.9433   38.7381 N   0  0  0  0  0  0  0  0  0  0  0  0
   32.5689  -13.5827   39.1587 H   0  0  0  0  0  0  0  0  0  0  0  0
   30.1505  -13.7039   40.3748 C   0  0  0  0  0  0  0  0  0  0  0  0
   29.0553  -12.4817   42.5583 C   0  0  0  0  0  0  0  0  0  0  0  0
   29.3452  -12.8651   43.7714 O   0  0  0  0  0  0  0  0  0  0  0  0
   29.5878  -13.0748   41.4697 N   0  0  0  0  0  0  0  0  0  0  0  0
   30.2822  -13.9368   42.2618 H   0  0  0  0  0  0  0  0  0  0  0  0
   28.0800  -11.3365   42.6009 C   0  0  0  0  0  0  0  0  0  0  0  0
   27.6288   -8.7493   39.7364 C   0  0  0  0  0  0  0  0  0  0  0  0
   27.7009   -9.3655   41.0837 C   0  0  0  0  0  0  0  0  0  0  0  0
   27.4888   -8.6406   42.0860 O   0  0  0  0  0  0  0  0  0  0  0  0
   28.0005  -10.7312   41.2928 N   0  0  0  0  0  0  0  0  0  0  0  0
   28.1731  -11.3327   40.4263 H   0  0  0  0  0  0  0  0  0  0  0  0
   26.7525  -11.7755   43.0850 C   0  0  0  0  0  0  0  0  0  0  0  0
   26.4924  -13.1264   42.7635 O   0  0  0  0  0  0  0  0  0  0  0  0
   26.5746  -13.2337   41.7768 H   0  0  0  0  0  0  0  0  0  0  0  0
   29.4296  -14.9376   39.8826 C   0  0  0  0  0  0  0  0  0  0  0  0
   29.5103  -15.9214   41.0848 C   0  0  0  0  0  0  0  0  0  0  0  0
   27.9729  -14.7542   39.6333 C   0  0  0  0  0  0  0  0  0  0  0  0
   32.6348  -10.7398   37.9716 C   0  0  0  0  0  0  0  0  0  0  0  0
   31.7062   -9.7115   37.4500 C   0  0  0  0  0  0  0  0  0  0  0  0
   32.2315   -8.3855   37.0667 C   0  0  0  0  0  0  0  0  0  0  0  0
   33.6763   -8.4804   36.8021 N   0  0  0  0  0  0  0  0  0  0  0  0
   34.2535   -8.0864   35.7596 C   0  0  0  0  0  0  0  0  0  0  0  0
   33.6223   -7.4778   34.6392 N   0  0  0  0  0  0  0  0  0  0  0  0
   35.6832   -8.2512   35.6837 N   0  0  0  0  0  0  0  0  0  0  0  0
   33.5776   -6.4286   34.5653 H   0  0  0  0  0  0  0  0  0  0  0  0
   33.2066   -8.0647   33.8948 H   0  0  0  0  0  0  0  0  0  0  0  0
   36.1485   -8.4853   34.7985 H   0  0  0  0  0  0  0  0  0  0  0  0
   36.2639   -8.1407   36.5387 H   0  0  0  0  0  0  0  0  0  0  0  0
   35.0318  -14.7292   36.6006 C   0  0  0  0  0  0  0  0  0  0  0  0
   34.7916  -15.9880   35.9033 C   0  0  0  0  0  0  0  0  0  0  0  0
   33.7817  -16.1843   35.2057 O   0  0  0  0  0  0  0  0  0  0  0  0
   35.7602  -17.0019   36.0375 N   0  0  0  0  0  0  0  0  0  0  0  0
   36.6321  -16.9208   36.5974 H   0  0  0  0  0  0  0  0  0  0  0  0
   35.5557  -18.2967   35.3303 C   0  0  0  0  0  0  0  0  0  0  0  0
   34.3795  -18.9775   35.9751 C   0  0  0  0  0  0  0  0  0  0  0  0
   34.6075  -19.4135   37.1456 O   0  0  0  0  0  0  0  0  0  0  0  0
   33.1695  -19.1013   35.3393 N   0  0  0  0  0  0  0  0  0  0  0  0
   33.1687  -18.6147   34.3327 H   0  0  0  0  0  0  0  0  0  0  0  0
   31.9412  -19.6710   35.7152 C   0  0  0  0  0  0  0  0  0  0  0  0
   31.7952  -21.1178   35.7406 C   0  0  0  0  0  0  0  0  0  0  0  0
   32.5511  -21.9522   35.2646 O   0  0  0  0  0  0  0  0  0  0  0  0
   30.6187  -21.6648   36.4100 N   0  0  0  0  0  0  0  0  0  0  0  0
   29.9546  -20.9815   36.8264 H   0  0  0  0  0  0  0  0  0  0  0  0
   30.4244  -23.0874   36.4752 C   0  0  0  0  0  0  0  0  0  0  0  0
   29.5160  -23.5576   35.4474 C   0  0  0  0  0  0  0  0  0  0  0  0
   28.3383  -22.8896   35.2158 O   0  0  0  0  0  0  0  0  0  0  0  0
   29.7979  -24.5610   34.7734 O   0  0  0  0  0  0  0  0  0  0  0  0
   27.7380  -23.0574   34.4341 H   0  0  0  0  0  0  0  0  0  0  0  0
   29.8211  -23.4548   37.8500 C   0  0  0  0  0  0  0  0  0  0  0  0
   30.5065  -22.6915   38.8235 O   0  0  0  0  0  0  0  0  0  0  0  0
   31.3464  -23.1125   39.0695 H   0  0  0  0  0  0  0  0  0  0  0  0
   30.8504  -19.0371   34.8536 C   0  0  0  0  0  0  0  0  0  0  0  0
   29.7165  -18.7168   35.5955 O   0  0  0  0  0  0  0  0  0  0  0  0
   28.9367  -19.0572   35.0742 H   0  0  0  0  0  0  0  0  0  0  0  0
   36.8427  -19.0465   35.5201 C   0  0  0  0  0  0  0  0  0  0  0  0
   37.7330  -18.2607   36.4834 C   0  0  0  0  0  0  0  0  0  0  0  0
   37.5584  -19.5521   34.3414 C   0  0  0  0  0  0  0  0  0  0  0  0
   36.0322  -14.9156   37.7623 C   0  0  0  0  0  0  0  0  0  0  0  0
   37.3050  -14.8026   37.2044 O   0  0  0  0  0  0  0  0  0  0  0  0
   37.5372  -15.6455   36.7475 H   0  0  0  0  0  0  0  0  0  0  0  0
 16 17  1  0  0  0
 17 18  2  0  0  0
 17 19  1  0  0  0
 19 15  1  0  0  0
 15 21  1  0  0  0
 21 22  1  0  0  0
 15 11  1  0  0  0
 11 12  2  0  0  0
 11 13  1  0  0  0
 13 10  1  0  0  0
 10 24  1  0  0  0
 24 25  1  0  0  0
 24 26  1  0  0  0
 10  6  1  0  0  0
  6  7  2  0  0  0
  6  8  1  0  0  0
  8  5  1  0  0  0
  5 27  1  0  0  0
 27 28  1  0  0  0
 28 29  1  0  0  0
 29 30  1  0  0  0
 30 31  2  0  0  0
 31 32  1  0  0  0
 31 33  1  0  0  0
  5  1  1  0  0  0
  1  2  2  0  0  0
  1  3  1  0  0  0
  3 38  1  0  0  0
 38 67  1  0  0  0
 67 68  1  0  0  0
 38 39  1  0  0  0
 39 40  2  0  0  0
 39 41  1  0  0  0
 41 43  1  0  0  0
 43 64  1  0  0  0
 64 65  1  0  0  0
 64 66  1  0  0  0
 43 44  1  0  0  0
 44 45  2  0  0  0
 44 46  1  0  0  0
 46 48  1  0  0  0
 48 61  1  0  0  0
 61 62  1  0  0  0
 48 49  1  0  0  0
 49 50  2  0  0  0
 49 51  1  0  0  0
 51 53  1  0  0  0
 53 58  1  0  0  0
 58 59  1  0  0  0
 53 54  1  0  0  0
 54 55  1  0  0  0
 54 56  2  0  0  0
 19 20  1  0  0  0
 22 23  1  0  0  0
 13 14  1  0  0  0
  8  9  1  0  0  0
 32 34  1  0  0  0
 32 35  1  0  0  0
 33 36  1  0  0  0
 33 37  1  0  0  0
  3  4  1  0  0  0
 68 69  1  0  0  0
 41 42  1  0  0  0
 46 47  1  0  0  0
 62 63  1  0  0  0
 51 52  1  0  0  0
 59 60  1  0  0  0
 55 57  1  0  0  0
M  END
> <minimizedAffinity>
-7.64779

> <CNNscore>
0.4141961038

> <CNNaffinity>
7.1815438271

> <CNN_VS>
2.9745674133

> <CNNaffinity_variance>
0.3519549966

$$$$
[H]OC(=O)[C@@]([H])(N([H])C(=O)[C@@]([H])(N([H])C(=O)[C@@]([H])(N([H])C(=O)[C@@]([H])(N([H])C(=O)[C@@]([H])(N([H])C(=O)[C@@]([H])(N([H])C(=O)[C@@]([H])(N([H])C(=O)C([H])([H])[H])C([H])([H])O[H])C([H])(C([H])([H])[H])C([H])([H])[H])C([H])([H])C([H])([H])C([H])([H])N=C(N([H])[H])N([H])[H])C([H])([H])O[H])C([H])(C([H])([H])[H])C([H])([H])[H])C([H])([H])O[H])C([H])([H])O[H]


 69 68  0  0  0  0  0  0  0  0999 V2000
   33.5916  -12.6761   37.1177 C   0  0  0  0  0  0  0  0  0  0  0  0
   34.6490  -12.1172   36.6653 O   0  0  0  0  0  0  0  0  0  0  0  0
   33.5355  -14.0959   37.1515 N   0  0  0  0  0  0  0  0  0  0  0  0
   32.7563  -14.6765   37.4868 H   0  0  0  0  0  0  0  0  0  0  0  0
   32.4964  -11.8125   37.5808 C   0  0  0  0  0  0  0  0  0  0  0  0
   30.5442  -12.5322   39.0491 C   0  0  0  0  0  0  0  0  0  0  0  0
   29.6908  -12.0921   38.1835 O   0  0  0  0  0  0  0  0  0  0  0  0
   31.9188  -12.4218   38.7806 N   0  0  0  0  0  0  0  0  0  0  0  0
   32.6154  -12.7849   39.4470 H   0  0  0  0  0  0  0  0  0  0  0  0
   30.0675  -13.1425   40.2971 C   0  0  0  0  0  0  0  0  0  0  0  0
   28.5963  -11.6353   42.0362 C   0  0  0  0  0  0  0  0  0  0  0  0
   28.4835  -11.9615   43.2945 O   0  0  0  0  0  0  0  0  0  0  0  0
   29.3192  -12.3690   41.1647 N   0  0  0  0  0  0  0  0  0  0  0  0
   29.6397  -13.2504   42.1512 H   0  0  0  0  0  0  0  0  0  0  0  0
   27.8185  -10.3770   41.7601 C   0  0  0  0  0  0  0  0  0  0  0  0
   25.1293  -10.7689   38.9821 C   0  0  0  0  0  0  0  0  0  0  0  0
   26.3791  -10.4117   39.6968 C   0  0  0  0  0  0  0  0  0  0  0  0
   27.2826   -9.8154   39.0620 O   0  0  0  0  0  0  0  0  0  0  0  0
   26.6022  -10.7143   41.0597 N   0  0  0  0  0  0  0  0  0  0  0  0
   25.8187  -11.2180   41.5838 H   0  0  0  0  0  0  0  0  0  0  0  0
   27.5453   -9.6268   43.0059 C   0  0  0  0  0  0  0  0  0  0  0  0
   28.6036   -8.7524   43.3397 O   0  0  0  0  0  0  0  0  0  0  0  0
   29.4399   -9.2882   43.4126 H   0  0  0  0  0  0  0  0  0  0  0  0
   29.5278  -14.5260   40.0169 C   0  0  0  0  0  0  0  0  0  0  0  0
   29.6063  -15.2433   41.3950 C   0  0  0  0  0  0  0  0  0  0  0  0
   28.0874  -14.5722   39.6413 C   0  0  0  0  0  0  0  0  0  0  0  0
   32.8847  -10.4047   37.7746 C   0  0  0  0  0  0  0  0  0  0  0  0
   31.8996   -9.3448   37.4618 C   0  0  0  0  0  0  0  0  0  0  0  0
   32.3213   -8.1715   36.6702 C   0  0  0  0  0  0  0  0  0  0  0  0
   33.7859   -8.1716   36.5225 N   0  0  0  0  0  0  0  0  0  0  0  0
   34.4219   -7.6617   35.5683 C   0  0  0  0  0  0  0  0  0  0  0  0
   33.8496   -6.9916   34.4514 N   0  0  0  0  0  0  0  0  0  0  0  0
   35.8601   -7.7483   35.6011 N   0  0  0  0  0  0  0  0  0  0  0  0
   33.7518   -5.9434   34.4593 H   0  0  0  0  0  0  0  0  0  0  0  0
   33.5291   -7.5326   33.6292 H   0  0  0  0  0  0  0  0  0  0  0  0
   36.4076   -7.8824   34.7427 H   0  0  0  0  0  0  0  0  0  0  0  0
   36.3628   -7.6827   36.5085 H   0  0  0  0  0  0  0  0  0  0  0  0
   34.7385  -14.7670   36.6496 C   0  0  0  0  0  0  0  0  0  0  0  0
   34.4031  -16.1199   36.2184 C   0  0  0  0  0  0  0  0  0  0  0  0
   33.4227  -16.3680   35.4958 O   0  0  0  0  0  0  0  0  0  0  0  0
   35.2425  -17.1667   36.6468 N   0  0  0  0  0  0  0  0  0  0  0  0
   36.0818  -17.0476   37.2481 H   0  0  0  0  0  0  0  0  0  0  0  0
   34.9391  -18.5601   36.2167 C   0  0  0  0  0  0  0  0  0  0  0  0
   35.2672  -19.4660   37.3719 C   0  0  0  0  0  0  0  0  0  0  0  0
   36.2840  -19.1073   38.0425 O   0  0  0  0  0  0  0  0  0  0  0  0
   34.5161  -20.5769   37.6642 N   0  0  0  0  0  0  0  0  0  0  0  0
   33.6425  -20.6902   36.9756 H   0  0  0  0  0  0  0  0  0  0  0  0
   34.6027  -21.5579   38.6666 C   0  0  0  0  0  0  0  0  0  0  0  0
   33.7676  -22.7459   38.5868 C   0  0  0  0  0  0  0  0  0  0  0  0
   33.9282  -23.7239   37.8712 O   0  0  0  0  0  0  0  0  0  0  0  0
   32.5955  -22.8054   39.4551 N   0  0  0  0  0  0  0  0  0  0  0  0
   32.4295  -21.9888   40.0773 H   0  0  0  0  0  0  0  0  0  0  0  0
   31.7372  -23.9580   39.4274 C   0  0  0  0  0  0  0  0  0  0  0  0
   30.4690  -23.6735   38.7843 C   0  0  0  0  0  0  0  0  0  0  0  0
   29.5975  -22.7776   39.3540 O   0  0  0  0  0  0  0  0  0  0  0  0
   30.1669  -24.2347   37.7192 O   0  0  0  0  0  0  0  0  0  0  0  0
   28.7819  -22.4174   38.9018 H   0  0  0  0  0  0  0  0  0  0  0  0
   31.4469  -24.4096   40.8768 C   0  0  0  0  0  0  0  0  0  0  0  0
   32.6535  -24.9280   41.4016 O   0  0  0  0  0  0  0  0  0  0  0  0
   32.7839  -25.8513   41.1305 H   0  0  0  0  0  0  0  0  0  0  0  0
   34.4196  -20.8636   40.0151 C   0  0  0  0  0  0  0  0  0  0  0  0
   35.6305  -20.6754   40.6763 O   0  0  0  0  0  0  0  0  0  0  0  0
   35.4851  -20.9777   41.6160 H   0  0  0  0  0  0  0  0  0  0  0  0
   35.8171  -18.7939   35.0213 C   0  0  0  0  0  0  0  0  0  0  0  0
   36.9313  -17.7468   35.0162 C   0  0  0  0  0  0  0  0  0  0  0  0
   35.1974  -18.9962   33.7052 C   0  0  0  0  0  0  0  0  0  0  0  0
   35.7578  -14.7865   37.8096 C   0  0  0  0  0  0  0  0  0  0  0  0
   36.8398  -14.0122   37.3927 O   0  0  0  0  0  0  0  0  0  0  0  0
   37.3976  -14.5382   36.7719 H   0  0  0  0  0  0  0  0  0  0  0  0
 16 17  1  0  0  0
 17 18  2  0  0  0
 17 19  1  0  0  0
 19 15  1  0  0  0
 15 21  1  0  0  0
 21 22  1  0  0  0
 15 11  1  0  0  0
 11 12  2  0  0  0
 11 13  1  0  0  0
 13 10  1  0  0  0
 10 24  1  0  0  0
 24 25  1  0  0  0
 24 26  1  0  0  0
 10  6  1  0  0  0
  6  7  2  0  0  0
  6  8  1  0  0  0
  8  5  1  0  0  0
  5 27  1  0  0  0
 27 28  1  0  0  0
 28 29  1  0  0  0
 29 30  1  0  0  0
 30 31  2  0  0  0
 31 32  1  0  0  0
 31 33  1  0  0  0
  5  1  1  0  0  0
  1  2  2  0  0  0
  1  3  1  0  0  0
  3 38  1  0  0  0
 38 67  1  0  0  0
 67 68  1  0  0  0
 38 39  1  0  0  0
 39 40  2  0  0  0
 39 41  1  0  0  0
 41 43  1  0  0  0
 43 64  1  0  0  0
 64 65  1  0  0  0
 64 66  1  0  0  0
 43 44  1  0  0  0
 44 45  2  0  0  0
 44 46  1  0  0  0
 46 48  1  0  0  0
 48 61  1  0  0  0
 61 62  1  0  0  0
 48 49  1  0  0  0
 49 50  2  0  0  0
 49 51  1  0  0  0
 51 53  1  0  0  0
 53 58  1  0  0  0
 58 59  1  0  0  0
 53 54  1  0  0  0
 54 55  1  0  0  0
 54 56  2  0  0  0
 19 20  1  0  0  0
 22 23  1  0  0  0
 13 14  1  0  0  0
  8  9  1  0  0  0
 32 34  1  0  0  0
 32 35  1  0  0  0
 33 36  1  0  0  0
 33 37  1  0  0  0
  3  4  1  0  0  0
 68 69  1  0  0  0
 41 42  1  0  0  0
 46 47  1  0  0  0
 62 63  1  0  0  0
 51 52  1  0  0  0
 59 60  1  0  0  0
 55 57  1  0  0  0
M  END
> <minimizedAffinity>
-6.86388

> <CNNscore>
0.3799336851

> <CNNaffinity>
6.9640526772

> <CNN_VS>
2.6458783150

> <CNNaffinity_variance>
0.5817523599

$$$$
[H]OC(=O)[C@@]([H])(N([H])C(=O)[C@@]([H])(N([H])C(=O)[C@@]([H])(N([H])C(=O)[C@@]([H])(N([H])C(=O)[C@@]([H])(N([H])C(=O)[C@@]([H])(N([H])C(=O)[C@@]([H])(N([H])C(=O)C([H])([H])[H])C([H])([H])O[H])C([H])(C([H])([H])[H])C([H])([H])[H])C([H])([H])C([H])([H])C([H])([H])N=C(N([H])[H])N([H])[H])C([H])([H])O[H])C([H])(C([H])([H])[H])C([H])([H])[H])C([H])([H])O[H])C([H])([H])O[H]


 69 68  0  0  0  0  0  0  0  0999 V2000
   33.2716  -12.6595   37.2385 C   0  0  0  0  0  0  0  0  0  0  0  0
   34.2451  -11.9414   36.8242 O   0  0  0  0  0  0  0  0  0  0  0  0
   33.3879  -14.0737   37.1559 N   0  0  0  0  0  0  0  0  0  0  0  0
   32.6910  -14.7700   37.4492 H   0  0  0  0  0  0  0  0  0  0  0  0
   32.0891  -11.9758   37.7806 C   0  0  0  0  0  0  0  0  0  0  0  0
   30.2339  -12.8344   39.2992 C   0  0  0  0  0  0  0  0  0  0  0  0
   29.3449  -12.1607   38.6457 O   0  0  0  0  0  0  0  0  0  0  0  0
   31.5784  -12.7754   38.8961 N   0  0  0  0  0  0  0  0  0  0  0  0
   32.2996  -13.3208   39.3897 H   0  0  0  0  0  0  0  0  0  0  0  0
   29.8280  -13.6526   40.4494 C   0  0  0  0  0  0  0  0  0  0  0  0
   28.4293  -12.4857   42.4848 C   0  0  0  0  0  0  0  0  0  0  0  0
   27.9606  -13.1874   43.4801 O   0  0  0  0  0  0  0  0  0  0  0  0
   29.1221  -13.0470   41.4722 N   0  0  0  0  0  0  0  0  0  0  0  0
   28.9838  -14.2761   42.0403 H   0  0  0  0  0  0  0  0  0  0  0  0
   28.0720  -11.0352   42.6659 C   0  0  0  0  0  0  0  0  0  0  0  0
   26.2522   -9.5220   39.5835 C   0  0  0  0  0  0  0  0  0  0  0  0
   27.3037   -9.8821   40.5657 C   0  0  0  0  0  0  0  0  0  0  0  0
   28.4721   -9.4672   40.3715 O   0  0  0  0  0  0  0  0  0  0  0  0
   27.0527  -10.6741   41.7096 N   0  0  0  0  0  0  0  0  0  0  0  0
   26.0503  -11.0134   41.8596 H   0  0  0  0  0  0  0  0  0  0  0  0
   27.6473  -10.7530   44.0548 C   0  0  0  0  0  0  0  0  0  0  0  0
   26.2471  -10.8578   44.2115 O   0  0  0  0  0  0  0  0  0  0  0  0
   25.8134  -10.2374   43.5644 H   0  0  0  0  0  0  0  0  0  0  0  0
   29.2826  -14.9774   39.9684 C   0  0  0  0  0  0  0  0  0  0  0  0
   29.4359  -15.9137   41.2011 C   0  0  0  0  0  0  0  0  0  0  0  0
   27.8252  -14.9808   39.6623 C   0  0  0  0  0  0  0  0  0  0  0  0
   32.3232  -10.5658   38.1368 C   0  0  0  0  0  0  0  0  0  0  0  0
   32.3551   -9.5542   37.0563 C   0  0  0  0  0  0  0  0  0  0  0  0
   33.3601   -8.4730   37.1027 C   0  0  0  0  0  0  0  0  0  0  0  0
   33.3793   -7.7564   35.8171 N   0  0  0  0  0  0  0  0  0  0  0  0
   34.4053   -7.4994   35.1416 C   0  0  0  0  0  0  0  0  0  0  0  0
   35.7395   -7.8487   35.4904 N   0  0  0  0  0  0  0  0  0  0  0  0
   34.2271   -6.7972   33.8957 N   0  0  0  0  0  0  0  0  0  0  0  0
   36.1674   -8.7346   35.1155 H   0  0  0  0  0  0  0  0  0  0  0  0
   36.2921   -7.2330   36.1125 H   0  0  0  0  0  0  0  0  0  0  0  0
   34.9103   -6.1027   33.5706 H   0  0  0  0  0  0  0  0  0  0  0  0
   33.3889   -6.9846   33.3103 H   0  0  0  0  0  0  0  0  0  0  0  0
   34.6536  -14.5506   36.5900 C   0  0  0  0  0  0  0  0  0  0  0  0
   34.4916  -15.9174   36.1060 C   0  0  0  0  0  0  0  0  0  0  0  0
   33.4721  -16.2980   35.5055 O   0  0  0  0  0  0  0  0  0  0  0  0
   35.5489  -16.8192   36.3360 N   0  0  0  0  0  0  0  0  0  0  0  0
   36.4349  -16.5841   36.8260 H   0  0  0  0  0  0  0  0  0  0  0  0
   35.4252  -18.2202   35.8457 C   0  0  0  0  0  0  0  0  0  0  0  0
   36.4955  -19.0285   36.5268 C   0  0  0  0  0  0  0  0  0  0  0  0
   36.5503  -18.8649   37.7847 O   0  0  0  0  0  0  0  0  0  0  0  0
   37.3274  -19.8703   35.8320 N   0  0  0  0  0  0  0  0  0  0  0  0
   37.0859  -19.8980   34.7406 H   0  0  0  0  0  0  0  0  0  0  0  0
   38.3758  -20.7211   36.2214 C   0  0  0  0  0  0  0  0  0  0  0  0
   39.5633  -20.8298   35.3889 C   0  0  0  0  0  0  0  0  0  0  0  0
   39.9983  -21.8301   34.8371 O   0  0  0  0  0  0  0  0  0  0  0  0
   40.3438  -19.6163   35.1664 N   0  0  0  0  0  0  0  0  0  0  0  0
   40.0008  -18.7467   35.6219 H   0  0  0  0  0  0  0  0  0  0  0  0
   41.5226  -19.6595   34.3452 C   0  0  0  0  0  0  0  0  0  0  0  0
   42.6049  -18.8769   34.9099 C   0  0  0  0  0  0  0  0  0  0  0  0
   43.8984  -19.3299   34.8184 O   0  0  0  0  0  0  0  0  0  0  0  0
   42.3688  -17.7974   35.4751 O   0  0  0  0  0  0  0  0  0  0  0  0
   44.7052  -18.7844   35.0442 H   0  0  0  0  0  0  0  0  0  0  0  0
   41.1915  -19.0802   32.9510 C   0  0  0  0  0  0  0  0  0  0  0  0
   40.5924  -20.1179   32.1998 O   0  0  0  0  0  0  0  0  0  0  0  0
   41.2651  -20.6989   31.8086 H   0  0  0  0  0  0  0  0  0  0  0  0
   37.7801  -22.1024   36.4887 C   0  0  0  0  0  0  0  0  0  0  0  0
   36.4791  -22.0261   36.9788 O   0  0  0  0  0  0  0  0  0  0  0  0
   36.4397  -22.6423   37.7626 H   0  0  0  0  0  0  0  0  0  0  0  0
   35.6184  -18.1265   34.3596 C   0  0  0  0  0  0  0  0  0  0  0  0
   34.8449  -19.2628   33.6898 C   0  0  0  0  0  0  0  0  0  0  0  0
   36.9733  -17.9443   33.8230 C   0  0  0  0  0  0  0  0  0  0  0  0
   35.7048  -14.4781   37.7189 C   0  0  0  0  0  0  0  0  0  0  0  0
   36.6715  -13.5669   37.2955 O   0  0  0  0  0  0  0  0  0  0  0  0
   37.2683  -14.0039   36.6427 H   0  0  0  0  0  0  0  0  0  0  0  0
 16 17  1  0  0  0
 17 18  2  0  0  0
 17 19  1  0  0  0
 19 15  1  0  0  0
 15 21  1  0  0  0
 21 22  1  0  0  0
 15 11  1  0  0  0
 11 12  2  0  0  0
 11 13  1  0  0  0
 13 10  1  0  0  0
 10 24  1  0  0  0
 24 25  1  0  0  0
 24 26  1  0  0  0
 10  6  1  0  0  0
  6  7  2  0  0  0
  6  8  1  0  0  0
  8  5  1  0  0  0
  5 27  1  0  0  0
 27 28  1  0  0  0
 28 29  1  0  0  0
 29 30  1  0  0  0
 30 31  2  0  0  0
 31 32  1  0  0  0
 31 33  1  0  0  0
  5  1  1  0  0  0
  1  2  2  0  0  0
  1  3  1  0  0  0
  3 38  1  0  0  0
 38 67  1  0  0  0
 67 68  1  0  0  0
 38 39  1  0  0  0
 39 40  2  0  0  0
 39 41  1  0  0  0
 41 43  1  0  0  0
 43 64  1  0  0  0
 64 65  1  0  0  0
 64 66  1  0  0  0
 43 44  1  0  0  0
 44 45  2  0  0  0
 44 46  1  0  0  0
 46 48  1  0  0  0
 48 61  1  0  0  0
 61 62  1  0  0  0
 48 49  1  0  0  0
 49 50  2  0  0  0
 49 51  1  0  0  0
 51 53  1  0  0  0
 53 58  1  0  0  0
 58 59  1  0  0  0
 53 54  1  0  0  0
 54 55  1  0  0  0
 54 56  2  0  0  0
 19 20  1  0  0  0
 22 23  1  0  0  0
 13 14  1  0  0  0
  8  9  1  0  0  0
 32 34  1  0  0  0
 32 35  1  0  0  0
 33 36  1  0  0  0
 33 37  1  0  0  0
  3  4  1  0  0  0
 68 69  1  0  0  0
 41 42  1  0  0  0
 46 47  1  0  0  0
 62 63  1  0  0  0
 51 52  1  0  0  0
 59 60  1  0  0  0
 55 57  1  0  0  0
M  END
> <minimizedAffinity>
-7.11164

> <CNNscore>
0.3627293110

> <CNNaffinity>
7.0127739906

> <CNN_VS>
2.5437386036

> <CNNaffinity_variance>
0.4429586530

$$$$
[H]OC(=O)[C@@]([H])(N([H])C(=O)[C@@]([H])(N([H])C(=O)[C@@]([H])(N([H])C(=O)[C@@]([H])(N([H])C(=O)[C@@]([H])(N([H])C(=O)[C@@]([H])(N([H])C(=O)[C@@]([H])(N([H])C(=O)C([H])([H])[H])C([H])([H])O[H])C([H])(C([H])([H])[H])C([H])([H])[H])C([H])([H])C([H])([H])C([H])([H])N=C(N([H])[H])N([H])[H])C([H])([H])O[H])C([H])(C([H])([H])[H])C([H])([H])[H])C([H])([H])O[H])C([H])([H])O[H]


 69 68  0  0  0  0  0  0  0  0999 V2000
   33.5986  -12.6705   37.0627 C   0  0  0  0  0  0  0  0  0  0  0  0
   34.5956  -12.1287   36.4731 O   0  0  0  0  0  0  0  0  0  0  0  0
   33.6002  -14.0805   37.2421 N   0  0  0  0  0  0  0  0  0  0  0  0
   32.8722  -14.6473   37.6953 H   0  0  0  0  0  0  0  0  0  0  0  0
   32.5099  -11.7980   37.5242 C   0  0  0  0  0  0  0  0  0  0  0  0
   30.4936  -12.5794   38.8692 C   0  0  0  0  0  0  0  0  0  0  0  0
   29.6812  -12.1412   37.9642 O   0  0  0  0  0  0  0  0  0  0  0  0
   31.8786  -12.4383   38.6800 N   0  0  0  0  0  0  0  0  0  0  0  0
   32.5440  -12.7992   39.3786 H   0  0  0  0  0  0  0  0  0  0  0  0
   29.9604  -13.2196   40.0788 C   0  0  0  0  0  0  0  0  0  0  0  0
   28.7121  -11.6777   41.9562 C   0  0  0  0  0  0  0  0  0  0  0  0
   28.7081  -12.0096   43.2182 O   0  0  0  0  0  0  0  0  0  0  0  0
   29.3241  -12.4284   41.0169 N   0  0  0  0  0  0  0  0  0  0  0  0
   29.7067  -13.3273   41.9646 H   0  0  0  0  0  0  0  0  0  0  0  0
   27.9545  -10.3923   41.7608 C   0  0  0  0  0  0  0  0  0  0  0  0
   25.3624  -10.6850   38.8801 C   0  0  0  0  0  0  0  0  0  0  0  0
   26.6055  -10.3982   39.6369 C   0  0  0  0  0  0  0  0  0  0  0  0
   27.5800   -9.9013   39.0220 O   0  0  0  0  0  0  0  0  0  0  0  0
   26.7457  -10.6614   41.0189 N   0  0  0  0  0  0  0  0  0  0  0  0
   25.9028  -11.0800   41.5254 H   0  0  0  0  0  0  0  0  0  0  0  0
   27.6702   -9.7312   43.0536 C   0  0  0  0  0  0  0  0  0  0  0  0
   28.6806   -8.8103   43.4103 O   0  0  0  0  0  0  0  0  0  0  0  0
   29.5506   -9.2945   43.4318 H   0  0  0  0  0  0  0  0  0  0  0  0
   29.2504  -14.5015   39.7090 C   0  0  0  0  0  0  0  0  0  0  0  0
   29.4985  -15.4313   40.9311 C   0  0  0  0  0  0  0  0  0  0  0  0
   27.7689  -14.3896   39.6060 C   0  0  0  0  0  0  0  0  0  0  0  0
   32.9252  -10.4090   37.7856 C   0  0  0  0  0  0  0  0  0  0  0  0
   31.9531   -9.3182   37.5471 C   0  0  0  0  0  0  0  0  0  0  0  0
   32.3112   -8.2119   36.6366 C   0  0  0  0  0  0  0  0  0  0  0  0
   33.7756   -8.1150   36.5236 N   0  0  0  0  0  0  0  0  0  0  0  0
   34.4022   -7.6795   35.5273 C   0  0  0  0  0  0  0  0  0  0  0  0
   33.8178   -7.2009   34.3217 N   0  0  0  0  0  0  0  0  0  0  0  0
   35.8410   -7.6476   35.6036 N   0  0  0  0  0  0  0  0  0  0  0  0
   33.6411   -6.1709   34.1944 H   0  0  0  0  0  0  0  0  0  0  0  0
   33.5659   -7.8637   33.5675 H   0  0  0  0  0  0  0  0  0  0  0  0
   36.4248   -7.8441   34.7818 H   0  0  0  0  0  0  0  0  0  0  0  0
   36.3075   -7.4301   36.5066 H   0  0  0  0  0  0  0  0  0  0  0  0
   34.7860  -14.7622   36.7143 C   0  0  0  0  0  0  0  0  0  0  0  0
   34.4165  -16.0887   36.2320 C   0  0  0  0  0  0  0  0  0  0  0  0
   33.4776  -16.2747   35.4390 O   0  0  0  0  0  0  0  0  0  0  0  0
   35.1729  -17.1835   36.6938 N   0  0  0  0  0  0  0  0  0  0  0  0
   35.9734  -17.1171   37.3535 H   0  0  0  0  0  0  0  0  0  0  0  0
   34.8334  -18.5520   36.2140 C   0  0  0  0  0  0  0  0  0  0  0  0
   34.9895  -19.4870   37.3820 C   0  0  0  0  0  0  0  0  0  0  0  0
   35.4636  -18.9414   38.4259 O   0  0  0  0  0  0  0  0  0  0  0  0
   34.6380  -20.8116   37.3084 N   0  0  0  0  0  0  0  0  0  0  0  0
   34.2042  -21.0796   36.3133 H   0  0  0  0  0  0  0  0  0  0  0  0
   34.6754  -21.8678   38.2345 C   0  0  0  0  0  0  0  0  0  0  0  0
   33.8498  -21.8078   39.4303 C   0  0  0  0  0  0  0  0  0  0  0  0
   32.7673  -22.3440   39.6170 O   0  0  0  0  0  0  0  0  0  0  0  0
   34.3507  -21.0255   40.5565 N   0  0  0  0  0  0  0  0  0  0  0  0
   35.2700  -20.5558   40.4308 H   0  0  0  0  0  0  0  0  0  0  0  0
   33.5834  -20.9364   41.7686 C   0  0  0  0  0  0  0  0  0  0  0  0
   33.6793  -19.6226   42.3749 C   0  0  0  0  0  0  0  0  0  0  0  0
   34.8854  -19.1774   42.8584 O   0  0  0  0  0  0  0  0  0  0  0  0
   32.6762  -18.8963   42.4581 O   0  0  0  0  0  0  0  0  0  0  0  0
   35.0655  -18.2378   43.1487 H   0  0  0  0  0  0  0  0  0  0  0  0
   34.1175  -21.9713   42.7848 C   0  0  0  0  0  0  0  0  0  0  0  0
   33.3825  -23.1639   42.5907 O   0  0  0  0  0  0  0  0  0  0  0  0
   32.5321  -23.1299   43.0586 H   0  0  0  0  0  0  0  0  0  0  0  0
   36.1376  -22.1118   38.6043 C   0  0  0  0  0  0  0  0  0  0  0  0
   36.7853  -22.9208   37.6744 O   0  0  0  0  0  0  0  0  0  0  0  0
   37.2787  -23.6104   38.2004 H   0  0  0  0  0  0  0  0  0  0  0  0
   35.8122  -18.8266   35.1090 C   0  0  0  0  0  0  0  0  0  0  0  0
   37.0883  -18.0261   35.3714 C   0  0  0  0  0  0  0  0  0  0  0  0
   35.3561  -18.7611   33.7145 C   0  0  0  0  0  0  0  0  0  0  0  0
   35.8040  -14.8518   37.8721 C   0  0  0  0  0  0  0  0  0  0  0  0
   36.8073  -13.9276   37.5833 O   0  0  0  0  0  0  0  0  0  0  0  0
   37.4116  -14.3046   36.9008 H   0  0  0  0  0  0  0  0  0  0  0  0
 16 17  1  0  0  0
 17 18  2  0  0  0
 17 19  1  0  0  0
 19 15  1  0  0  0
 15 21  1  0  0  0
 21 22  1  0  0  0
 15 11  1  0  0  0
 11 12  2  0  0  0
 11 13  1  0  0  0
 13 10  1  0  0  0
 10 24  1  0  0  0
 24 25  1  0  0  0
 24 26  1  0  0  0
 10  6  1  0  0  0
  6  7  2  0  0  0
  6  8  1  0  0  0
  8  5  1  0  0  0
  5 27  1  0  0  0
 27 28  1  0  0  0
 28 29  1  0  0  0
 29 30  1  0  0  0
 30 31  2  0  0  0
 31 32  1  0  0  0
 31 33  1  0  0  0
  5  1  1  0  0  0
  1  2  2  0  0  0
  1  3  1  0  0  0
  3 38  1  0  0  0
 38 67  1  0  0  0
 67 68  1  0  0  0
 38 39  1  0  0  0
 39 40  2  0  0  0
 39 41  1  0  0  0
 41 43  1  0  0  0
 43 64  1  0  0  0
 64 65  1  0  0  0
 64 66  1  0  0  0
 43 44  1  0  0  0
 44 45  2  0  0  0
 44 46  1  0  0  0
 46 48  1  0  0  0
 48 61  1  0  0  0
 61 62  1  0  0  0
 48 49  1  0  0  0
 49 50  2  0  0  0
 49 51  1  0  0  0
 51 53  1  0  0  0
 53 58  1  0  0  0
 58 59  1  0  0  0
 53 54  1  0  0  0
 54 55  1  0  0  0
 54 56  2  0  0  0
 19 20  1  0  0  0
 22 23  1  0  0  0
 13 14  1  0  0  0
  8  9  1  0  0  0
 32 34  1  0  0  0
 32 35  1  0  0  0
 33 36  1  0  0  0
 33 37  1  0  0  0
  3  4  1  0  0  0
 68 69  1  0  0  0
 41 42  1  0  0  0
 46 47  1  0  0  0
 62 63  1  0  0  0
 51 52  1  0  0  0
 59 60  1  0  0  0
 55 57  1  0  0  0
M  END
> <minimizedAffinity>
-7.20977

> <CNNscore>
0.3515977859

> <CNNaffinity>
7.0237517357

> <CNN_VS>
2.4695355892

> <CNNaffinity_variance>
0.3748620450

$$$$
[H]O[C@]([H])(C([H])([H])[H])[C@@]([H])(C(=O)N([H])S(=O)(=O)c1c([H])c([H])c([H])c(-c2nc([H])nc(N([H])[H])c2[H])c1[H])N([H])[H]


 30 31  0  0  0  0  0  0  0  0999 V2000
   35.9202  -20.2495   38.0566 S   0  0  0  0  0  0  0  0  0  0  0  0
   37.2569  -20.5051   38.7410 O   0  0  0  0  0  0  0  0  0  0  0  0
   35.0090  -19.7668   39.1648 O   0  0  0  0  0  0  0  0  0  0  0  0
   36.1848  -19.0150   36.8624 C   0  0  0  0  0  0  0  0  0  0  0  0
   36.8635  -19.3096   35.7100 C   0  0  0  0  0  0  0  0  0  0  0  0
   37.0755  -18.3367   34.7615 C   0  0  0  0  0  0  0  0  0  0  0  0
   36.6034  -17.0599   34.9712 C   0  0  0  0  0  0  0  0  0  0  0  0
   35.9131  -16.7139   36.1175 C   0  0  0  0  0  0  0  0  0  0  0  0
   35.7207  -17.7142   37.0425 C   0  0  0  0  0  0  0  0  0  0  0  0
   35.4251  -15.3568   36.3346 C   0  0  0  0  0  0  0  0  0  0  0  0
   34.1450  -14.9294   36.0988 C   0  0  0  0  0  0  0  0  0  0  0  0
   33.7184  -13.6360   36.3179 C   0  0  0  0  0  0  0  0  0  0  0  0
   32.3995  -13.1993   36.0730 N   0  0  0  0  0  0  0  0  0  0  0  0
   34.6376  -12.7594   36.7935 N   0  0  0  0  0  0  0  0  0  0  0  0
   35.9062  -13.1558   37.0342 C   0  0  0  0  0  0  0  0  0  0  0  0
   36.3001  -14.4357   36.8095 N   0  0  0  0  0  0  0  0  0  0  0  0
   32.0578  -13.1598   35.0949 H   0  0  0  0  0  0  0  0  0  0  0  0
   31.7651  -12.9182   36.8347 H   0  0  0  0  0  0  0  0  0  0  0  0
   35.0893  -22.9018   38.1669 C   0  0  0  0  0  0  0  0  0  0  0  0
   35.1956  -22.8373   39.4228 O   0  0  0  0  0  0  0  0  0  0  0  0
   35.4020  -21.7456   37.4066 N   0  0  0  0  0  0  0  0  0  0  0  0
   35.2974  -21.8585   36.3520 H   0  0  0  0  0  0  0  0  0  0  0  0
   34.6521  -24.1690   37.5768 C   0  0  0  0  0  0  0  0  0  0  0  0
   34.0797  -23.9293   36.2435 N   0  0  0  0  0  0  0  0  0  0  0  0
   34.0867  -22.9051   36.0086 H   0  0  0  0  0  0  0  0  0  0  0  0
   33.0471  -24.1792   36.2597 H   0  0  0  0  0  0  0  0  0  0  0  0
   36.5173  -25.0948   36.1782 C   0  0  0  0  0  0  0  0  0  0  0  0
   35.7190  -25.2217   37.4602 C   0  0  0  0  0  0  0  0  0  0  0  0
   36.5942  -25.1503   38.5219 O   0  0  0  0  0  0  0  0  0  0  0  0
   37.5328  -25.3089   38.2731 H   0  0  0  0  0  0  0  0  0  0  0  0
 27 28  1  0  0  0
 28 29  1  0  0  0
 28 23  1  0  0  0
 23 24  1  0  0  0
 23 19  1  0  0  0
 19 20  2  0  0  0
 19 21  1  0  0  0
 21  1  1  0  0  0
  1  2  2  0  0  0
  1  3  2  0  0  0
  1  4  1  0  0  0
  4  5  2  0  0  0
  5  6  1  0  0  0
  6  7  2  0  0  0
  7  8  1  0  0  0
  8  9  2  0  0  0
  8 10  1  0  0  0
 10 11  2  0  0  0
 11 12  1  0  0  0
 12 13  1  0  0  0
 12 14  2  0  0  0
 14 15  1  0  0  0
 15 16  2  0  0  0
  9  4  1  0  0  0
 16 10  1  0  0  0
 29 30  1  0  0  0
 24 25  1  0  0  0
 24 26  1  0  0  0
 21 22  1  0  0  0
 13 17  1  0  0  0
 13 18  1  0  0  0
M  END
> <minimizedAffinity>
-5.80860

> <CNNscore>
0.4718763232

> <CNNaffinity>
4.3793325424

> <CNN_VS>
2.0665032864

> <CNNaffinity_variance>
0.3486754298

$$$$
[H]O[C@]([H])(C([H])([H])[H])[C@@]([H])(C(=O)N([H])S(=O)(=O)c1c([H])c([H])c([H])c(-c2nc([H])nc(N([H])[H])c2[H])c1[H])N([H])[H]


 30 31  0  0  0  0  0  0  0  0999 V2000
   35.6234  -15.3214   36.4773 S   0  0  0  0  0  0  0  0  0  0  0  0
   35.9542  -15.7040   37.9143 O   0  0  0  0  0  0  0  0  0  0  0  0
   36.8110  -14.5039   36.0160 O   0  0  0  0  0  0  0  0  0  0  0  0
   35.4749  -16.7996   35.5757 C   0  0  0  0  0  0  0  0  0  0  0  0
   36.5196  -17.2438   34.8098 C   0  0  0  0  0  0  0  0  0  0  0  0
   36.4077  -18.4130   34.0945 C   0  0  0  0  0  0  0  0  0  0  0  0
   35.2396  -19.1408   34.1483 C   0  0  0  0  0  0  0  0  0  0  0  0
   34.1581  -18.7339   34.9066 C   0  0  0  0  0  0  0  0  0  0  0  0
   34.3083  -17.5598   35.6080 C   0  0  0  0  0  0  0  0  0  0  0  0
   32.9219  -19.5068   34.9498 C   0  0  0  0  0  0  0  0  0  0  0  0
   32.8421  -20.8738   34.9097 C   0  0  0  0  0  0  0  0  0  0  0  0
   31.6530  -21.5717   34.9545 C   0  0  0  0  0  0  0  0  0  0  0  0
   31.5746  -22.9796   34.9121 N   0  0  0  0  0  0  0  0  0  0  0  0
   30.5150  -20.8392   35.0432 N   0  0  0  0  0  0  0  0  0  0  0  0
   30.5667  -19.4900   35.0843 C   0  0  0  0  0  0  0  0  0  0  0  0
   31.7512  -18.8277   35.0385 N   0  0  0  0  0  0  0  0  0  0  0  0
   31.8447  -23.4708   34.0398 H   0  0  0  0  0  0  0  0  0  0  0  0
   31.2574  -23.5353   35.7196 H   0  0  0  0  0  0  0  0  0  0  0  0
   34.1070  -13.0349   36.9349 C   0  0  0  0  0  0  0  0  0  0  0  0
   35.1703  -12.4526   37.2857 O   0  0  0  0  0  0  0  0  0  0  0  0
   34.1871  -14.3921   36.5299 N   0  0  0  0  0  0  0  0  0  0  0  0
   33.2589  -14.8331   36.2475 H   0  0  0  0  0  0  0  0  0  0  0  0
   32.8585  -12.2699   36.9719 C   0  0  0  0  0  0  0  0  0  0  0  0
   31.8571  -12.9038   36.1011 N   0  0  0  0  0  0  0  0  0  0  0  0
   32.2542  -13.7520   35.6248 H   0  0  0  0  0  0  0  0  0  0  0  0
   31.6291  -12.2453   35.2988 H   0  0  0  0  0  0  0  0  0  0  0  0
   30.7656  -12.3353   38.3531 C   0  0  0  0  0  0  0  0  0  0  0  0
   32.2607  -12.0876   38.3391 C   0  0  0  0  0  0  0  0  0  0  0  0
   32.8477  -12.9416   39.2471 O   0  0  0  0  0  0  0  0  0  0  0  0
   32.2161  -13.3235   39.8975 H   0  0  0  0  0  0  0  0  0  0  0  0
 27 28  1  0  0  0
 28 29  1  0  0  0
 28 23  1  0  0  0
 23 24  1  0  0  0
 23 19  1  0  0  0
 19 20  2  0  0  0
 19 21  1  0  0  0
 21  1  1  0  0  0
  1  2  2  0  0  0
  1  3  2  0  0  0
  1  4  1  0  0  0
  4  5  2  0  0  0
  5  6  1  0  0  0
  6  7  2  0  0  0
  7  8  1  0  0  0
  8  9  2  0  0  0
  8 10  1  0  0  0
 10 11  2  0  0  0
 11 12  1  0  0  0
 12 13  1  0  0  0
 12 14  2  0  0  0
 14 15  1  0  0  0
 15 16  2  0  0  0
  9  4  1  0  0  0
 16 10  1  0  0  0
 29 30  1  0  0  0
 24 25  1  0  0  0
 24 26  1  0  0  0
 21 22  1  0  0  0
 13 17  1  0  0  0
 13 18  1  0  0  0
M  END
> <minimizedAffinity>
-7.14233

> <CNNscore>
0.3257508278

> <CNNaffinity>
5.0213150978

> <CNN_VS>
1.6356976032

> <CNNaffinity_variance>
0.3397120833

$$$$
[H]O[C@]([H])(C([H])([H])[H])[C@@]([H])(C(=O)N([H])S(=O)(=O)c1c([H])c([H])c([H])c(-c2nc([H])nc(N([H])[H])c2[H])c1[H])N([H])[H]


 30 31  0  0  0  0  0  0  0  0999 V2000
   34.6957  -13.9834   36.7224 S   0  0  0  0  0  0  0  0  0  0  0  0
   35.4356  -13.8721   38.0494 O   0  0  0  0  0  0  0  0  0  0  0  0
   35.2909  -12.8912   35.8598 O   0  0  0  0  0  0  0  0  0  0  0  0
   35.0333  -15.5622   36.0793 C   0  0  0  0  0  0  0  0  0  0  0  0
   36.3183  -15.9133   35.7620 C   0  0  0  0  0  0  0  0  0  0  0  0
   36.5912  -17.1613   35.2531 C   0  0  0  0  0  0  0  0  0  0  0  0
   35.5676  -18.0627   35.0614 C   0  0  0  0  0  0  0  0  0  0  0  0
   34.2551  -17.7552   35.3663 C   0  0  0  0  0  0  0  0  0  0  0  0
   34.0221  -16.4975   35.8733 C   0  0  0  0  0  0  0  0  0  0  0  0
   33.1766  -18.7132   35.1510 C   0  0  0  0  0  0  0  0  0  0  0  0
   33.3197  -19.9496   34.5785 C   0  0  0  0  0  0  0  0  0  0  0  0
   32.2752  -20.8312   34.3923 C   0  0  0  0  0  0  0  0  0  0  0  0
   32.4262  -22.1034   33.8016 N   0  0  0  0  0  0  0  0  0  0  0  0
   31.0494  -20.4263   34.8081 N   0  0  0  0  0  0  0  0  0  0  0  0
   30.8818  -19.2120   35.3755 C   0  0  0  0  0  0  0  0  0  0  0  0
   31.9276  -18.3630   35.5470 N   0  0  0  0  0  0  0  0  0  0  0  0
   32.6727  -22.1634   32.7963 H   0  0  0  0  0  0  0  0  0  0  0  0
   32.2991  -22.9746   34.3368 H   0  0  0  0  0  0  0  0  0  0  0  0
   32.5163  -12.5579   37.6999 C   0  0  0  0  0  0  0  0  0  0  0  0
   33.3233  -11.6584   38.0638 O   0  0  0  0  0  0  0  0  0  0  0  0
   33.0394  -13.7075   37.0539 N   0  0  0  0  0  0  0  0  0  0  0  0
   32.3133  -14.4347   36.7716 H   0  0  0  0  0  0  0  0  0  0  0  0
   31.0914  -12.3559   37.9718 C   0  0  0  0  0  0  0  0  0  0  0  0
   30.8500  -12.3818   39.4223 N   0  0  0  0  0  0  0  0  0  0  0  0
   31.7411  -12.5596   39.9499 H   0  0  0  0  0  0  0  0  0  0  0  0
   30.2434  -13.2219   39.6577 H   0  0  0  0  0  0  0  0  0  0  0  0
   29.0435  -10.9219   37.7678 C   0  0  0  0  0  0  0  0  0  0  0  0
   30.5063  -11.0906   37.4093 C   0  0  0  0  0  0  0  0  0  0  0  0
   31.1928   -9.9880   37.8691 O   0  0  0  0  0  0  0  0  0  0  0  0
   30.6151   -9.2182   38.0731 H   0  0  0  0  0  0  0  0  0  0  0  0
 27 28  1  0  0  0
 28 29  1  0  0  0
 28 23  1  0  0  0
 23 24  1  0  0  0
 23 19  1  0  0  0
 19 20  2  0  0  0
 19 21  1  0  0  0
 21  1  1  0  0  0
  1  2  2  0  0  0
  1  3  2  0  0  0
  1  4  1  0  0  0
  4  5  2  0  0  0
  5  6  1  0  0  0
  6  7  2  0  0  0
  7  8  1  0  0  0
  8  9  2  0  0  0
  8 10  1  0  0  0
 10 11  2  0  0  0
 11 12  1  0  0  0
 12 13  1  0  0  0
 12 14  2  0  0  0
 14 15  1  0  0  0
 15 16  2  0  0  0
  9  4  1  0  0  0
 16 10  1  0  0  0
 29 30  1  0  0  0
 24 25  1  0  0  0
 24 26  1  0  0  0
 21 22  1  0  0  0
 13 17  1  0  0  0
 13 18  1  0  0  0
M  END
> <minimizedAffinity>
-8.22805

> <CNNscore>
0.2793423533

> <CNNaffinity>
5.0565948486

> <CNN_VS>
1.4125211239

> <CNNaffinity_variance>
0.3195071518

$$$$
[H]O[C@]([H])(C([H])([H])[H])[C@@]([H])(C(=O)N([H])S(=O)(=O)c1c([H])c([H])c([H])c(-c2nc([H])nc(N([H])[H])c2[H])c1[H])N([H])[H]


 30 31  0  0  0  0  0  0  0  0999 V2000
   32.8369  -21.2048   36.9813 S   0  0  0  0  0  0  0  0  0  0  0  0
   33.4166  -22.5526   36.5712 O   0  0  0  0  0  0  0  0  0  0  0  0
   33.3364  -20.9873   38.3936 O   0  0  0  0  0  0  0  0  0  0  0  0
   33.4778  -20.0177   35.8858 C   0  0  0  0  0  0  0  0  0  0  0  0
   33.6131  -20.3139   34.5557 C   0  0  0  0  0  0  0  0  0  0  0  0
   34.1194  -19.3783   33.6844 C   0  0  0  0  0  0  0  0  0  0  0  0
   34.4925  -18.1373   34.1512 C   0  0  0  0  0  0  0  0  0  0  0  0
   34.3751  -17.7912   35.4841 C   0  0  0  0  0  0  0  0  0  0  0  0
   33.8643  -18.7535   36.3245 C   0  0  0  0  0  0  0  0  0  0  0  0
   34.7815  -16.4777   35.9706 C   0  0  0  0  0  0  0  0  0  0  0  0
   36.0437  -16.1438   36.3857 C   0  0  0  0  0  0  0  0  0  0  0  0
   36.3922  -14.8883   36.8388 C   0  0  0  0  0  0  0  0  0  0  0  0
   37.6930  -14.5484   37.2663 N   0  0  0  0  0  0  0  0  0  0  0  0
   35.4118  -13.9515   36.8642 N   0  0  0  0  0  0  0  0  0  0  0  0
   34.1592  -14.2554   36.4602 C   0  0  0  0  0  0  0  0  0  0  0  0
   33.8428  -15.4999   36.0186 N   0  0  0  0  0  0  0  0  0  0  0  0
   38.0640  -14.9784   38.1338 H   0  0  0  0  0  0  0  0  0  0  0  0
   38.2858  -13.8867   36.7446 H   0  0  0  0  0  0  0  0  0  0  0  0
   30.4125  -22.0675   35.9253 C   0  0  0  0  0  0  0  0  0  0  0  0
   31.0648  -22.6358   35.0063 O   0  0  0  0  0  0  0  0  0  0  0  0
   31.1334  -21.3587   36.9205 N   0  0  0  0  0  0  0  0  0  0  0  0
   30.5316  -20.8969   37.6691 H   0  0  0  0  0  0  0  0  0  0  0  0
   28.9521  -22.1756   35.9014 C   0  0  0  0  0  0  0  0  0  0  0  0
   28.5535  -23.4260   35.2374 N   0  0  0  0  0  0  0  0  0  0  0  0
   29.3944  -23.9612   34.9051 H   0  0  0  0  0  0  0  0  0  0  0  0
   28.0314  -23.1917   34.3421 H   0  0  0  0  0  0  0  0  0  0  0  0
   27.6532  -20.7593   37.5134 C   0  0  0  0  0  0  0  0  0  0  0  0
   28.2841  -22.1111   37.2465 C   0  0  0  0  0  0  0  0  0  0  0  0
   27.3033  -23.0731   37.3519 O   0  0  0  0  0  0  0  0  0  0  0  0
   26.4981  -22.7675   37.8274 H   0  0  0  0  0  0  0  0  0  0  0  0
 27 28  1  0  0  0
 28 29  1  0  0  0
 28 23  1  0  0  0
 23 24  1  0  0  0
 23 19  1  0  0  0
 19 20  2  0  0  0
 19 21  1  0  0  0
 21  1  1  0  0  0
  1  2  2  0  0  0
  1  3  2  0  0  0
  1  4  1  0  0  0
  4  5  2  0  0  0
  5  6  1  0  0  0
  6  7  2  0  0  0
  7  8  1  0  0  0
  8  9  2  0  0  0
  8 10  1  0  0  0
 10 11  2  0  0  0
 11 12  1  0  0  0
 12 13  1  0  0  0
 12 14  2  0  0  0
 14 15  1  0  0  0
 15 16  2  0  0  0
  9  4  1  0  0  0
 16 10  1  0  0  0
 29 30  1  0  0  0
 24 25  1  0  0  0
 24 26  1  0  0  0
 21 22  1  0  0  0
 13 17  1  0  0  0
 13 18  1  0  0  0
M  END
> <minimizedAffinity>
-5.87599

> <CNNscore>
0.2758640051

> <CNNaffinity>
4.2886953354

> <CNN_VS>
1.1830966473

> <CNNaffinity_variance>
0.5320835114

$$$$
[H]O[C@]([H])(C([H])([H])[H])[C@@]([H])(C(=O)N([H])S(=O)(=O)c1c([H])c([H])c([H])c(-c2nc([H])nc(N([H])[H])c2[H])c1[H])N([H])[H]


 30 31  0  0  0  0  0  0  0  0999 V2000
   35.2138  -19.8341   36.5233 S   0  0  0  0  0  0  0  0  0  0  0  0
   35.4956  -18.5067   37.2158 O   0  0  0  0  0  0  0  0  0  0  0  0
   35.2181  -20.8564   37.6396 O   0  0  0  0  0  0  0  0  0  0  0  0
   33.6473  -19.7020   35.7825 C   0  0  0  0  0  0  0  0  0  0  0  0
   33.4299  -18.7750   34.7983 C   0  0  0  0  0  0  0  0  0  0  0  0
   32.1924  -18.6663   34.2084 C   0  0  0  0  0  0  0  0  0  0  0  0
   31.1666  -19.4935   34.6091 C   0  0  0  0  0  0  0  0  0  0  0  0
   31.3368  -20.4443   35.5977 C   0  0  0  0  0  0  0  0  0  0  0  0
   32.5885  -20.5227   36.1636 C   0  0  0  0  0  0  0  0  0  0  0  0
   30.2418  -21.3094   36.0217 C   0  0  0  0  0  0  0  0  0  0  0  0
   29.8551  -22.4624   35.3909 C   0  0  0  0  0  0  0  0  0  0  0  0
   28.8137  -23.2574   35.8226 C   0  0  0  0  0  0  0  0  0  0  0  0
   28.4177  -24.4438   35.1699 N   0  0  0  0  0  0  0  0  0  0  0  0
   28.1532  -22.8520   36.9356 N   0  0  0  0  0  0  0  0  0  0  0  0
   28.5149  -21.7190   37.5759 C   0  0  0  0  0  0  0  0  0  0  0  0
   29.5443  -20.9542   37.1294 N   0  0  0  0  0  0  0  0  0  0  0  0
   27.9938  -24.3792   34.2259 H   0  0  0  0  0  0  0  0  0  0  0  0
   28.5359  -25.3720   35.6011 H   0  0  0  0  0  0  0  0  0  0  0  0
   37.8706  -19.9846   35.7136 C   0  0  0  0  0  0  0  0  0  0  0  0
   38.2017  -19.6738   36.8912 O   0  0  0  0  0  0  0  0  0  0  0  0
   36.4889  -20.0936   35.4115 N   0  0  0  0  0  0  0  0  0  0  0  0
   36.2680  -20.3555   34.4023 H   0  0  0  0  0  0  0  0  0  0  0  0
   38.9370  -20.2099   34.7351 C   0  0  0  0  0  0  0  0  0  0  0  0
   38.6750  -21.4477   33.9854 N   0  0  0  0  0  0  0  0  0  0  0  0
   37.7965  -21.9147   34.3233 H   0  0  0  0  0  0  0  0  0  0  0  0
   39.4384  -22.1536   34.2045 H   0  0  0  0  0  0  0  0  0  0  0  0
   40.5949  -18.6273   33.7160 C   0  0  0  0  0  0  0  0  0  0  0  0
   39.1524  -19.0904   33.7552 C   0  0  0  0  0  0  0  0  0  0  0  0
   38.7890  -19.4770   32.4837 O   0  0  0  0  0  0  0  0  0  0  0  0
   39.3877  -19.1385   31.7803 H   0  0  0  0  0  0  0  0  0  0  0  0
 27 28  1  0  0  0
 28 29  1  0  0  0
 28 23  1  0  0  0
 23 24  1  0  0  0
 23 19  1  0  0  0
 19 20  2  0  0  0
 19 21  1  0  0  0
 21  1  1  0  0  0
  1  2  2  0  0  0
  1  3  2  0  0  0
  1  4  1  0  0  0
  4  5  2  0  0  0
  5  6  1  0  0  0
  6  7  2  0  0  0
  7  8  1  0  0  0
  8  9  2  0  0  0
  8 10  1  0  0  0
 10 11  2  0  0  0
 11 12  1  0  0  0
 12 13  1  0  0  0
 12 14  2  0  0  0
 14 15  1  0  0  0
 15 16  2  0  0  0
  9  4  1  0  0  0
 16 10  1  0  0  0
 29 30  1  0  0  0
 24 25  1  0  0  0
 24 26  1  0  0  0
 21 22  1  0  0  0
 13 17  1  0  0  0
 13 18  1  0  0  0
M  END
> <minimizedAffinity>
-6.13513

> <CNNscore>
0.2490216792

> <CNNaffinity>
4.1755499840

> <CNN_VS>
1.0398024321

> <CNNaffinity_variance>
0.4877375662

$$$$
[H]O[C@]([H])(C([H])([H])[H])[C@@]([H])(C(=O)N([H])S(=O)(=O)c1c([H])c([H])c([H])c(-c2nc([H])nc(N([H])[H])c2[H])c1[H])N([H])[H]


 30 31  0  0  0  0  0  0  0  0999 V2000
   35.2323  -16.5563   35.9746 S   0  0  0  0  0  0  0  0  0  0  0  0
   36.4410  -16.6037   35.0486 O   0  0  0  0  0  0  0  0  0  0  0  0
   35.6499  -17.3559   37.1901 O   0  0  0  0  0  0  0  0  0  0  0  0
   34.9566  -14.8868   36.3706 C   0  0  0  0  0  0  0  0  0  0  0  0
   35.9326  -13.9556   36.1349 C   0  0  0  0  0  0  0  0  0  0  0  0
   35.7197  -12.6332   36.4460 C   0  0  0  0  0  0  0  0  0  0  0  0
   34.5195  -12.2429   36.9975 C   0  0  0  0  0  0  0  0  0  0  0  0
   33.5043  -13.1450   37.2541 C   0  0  0  0  0  0  0  0  0  0  0  0
   33.7547  -14.4583   36.9290 C   0  0  0  0  0  0  0  0  0  0  0  0
   32.2401  -12.7235   37.8470 C   0  0  0  0  0  0  0  0  0  0  0  0
   31.8703  -12.9292   39.1500 C   0  0  0  0  0  0  0  0  0  0  0  0
   30.6648  -12.5142   39.6770 C   0  0  0  0  0  0  0  0  0  0  0  0
   30.2870  -12.7285   41.0192 N   0  0  0  0  0  0  0  0  0  0  0  0
   29.8178  -11.8692   38.8368 N   0  0  0  0  0  0  0  0  0  0  0  0
   30.1589  -11.6540   37.5476 C   0  0  0  0  0  0  0  0  0  0  0  0
   31.3523  -12.0734   37.0542 N   0  0  0  0  0  0  0  0  0  0  0  0
   30.1085  -13.6978   41.3412 H   0  0  0  0  0  0  0  0  0  0  0  0
   30.1824  -11.9530   41.6895 H   0  0  0  0  0  0  0  0  0  0  0  0
   33.8519  -18.6739   34.8138 C   0  0  0  0  0  0  0  0  0  0  0  0
   34.7993  -19.4287   35.1680 O   0  0  0  0  0  0  0  0  0  0  0  0
   33.9360  -17.2949   35.1358 N   0  0  0  0  0  0  0  0  0  0  0  0
   33.1101  -16.7053   34.8099 H   0  0  0  0  0  0  0  0  0  0  0  0
   32.7280  -19.2726   34.0901 C   0  0  0  0  0  0  0  0  0  0  0  0
   33.1212  -20.5831   33.5507 N   0  0  0  0  0  0  0  0  0  0  0  0
   34.1236  -20.7998   33.7793 H   0  0  0  0  0  0  0  0  0  0  0  0
   33.1065  -20.5394   32.4891 H   0  0  0  0  0  0  0  0  0  0  0  0
   31.4663  -20.7217   35.7025 C   0  0  0  0  0  0  0  0  0  0  0  0
   31.4679  -19.4409   34.8923 C   0  0  0  0  0  0  0  0  0  0  0  0
   31.2945  -18.3830   35.7578 O   0  0  0  0  0  0  0  0  0  0  0  0
   30.9391  -18.6446   36.6372 H   0  0  0  0  0  0  0  0  0  0  0  0
 27 28  1  0  0  0
 28 29  1  0  0  0
 28 23  1  0  0  0
 23 24  1  0  0  0
 23 19  1  0  0  0
 19 20  2  0  0  0
 19 21  1  0  0  0
 21  1  1  0  0  0
  1  2  2  0  0  0
  1  3  2  0  0  0
  1  4  1  0  0  0
  4  5  2  0  0  0
  5  6  1  0  0  0
  6  7  2  0  0  0
  7  8  1  0  0  0
  8  9  2  0  0  0
  8 10  1  0  0  0
 10 11  2  0  0  0
 11 12  1  0  0  0
 12 13  1  0  0  0
 12 14  2  0  0  0
 14 15  1  0  0  0
 15 16  2  0  0  0
  9  4  1  0  0  0
 16 10  1  0  0  0
 29 30  1  0  0  0
 24 25  1  0  0  0
 24 26  1  0  0  0
 21 22  1  0  0  0
 13 17  1  0  0  0
 13 18  1  0  0  0
M  END
> <minimizedAffinity>
-8.25227

> <CNNscore>
0.2438980490

> <CNNaffinity>
4.9618253708

> <CNN_VS>
1.2101795673

> <CNNaffinity_variance>
0.2487413585

$$$$
[H]O[C@]([H])(C([H])([H])[H])[C@@]([H])(C(=O)N([H])S(=O)(=O)c1c([H])c([H])c([H])c(-c2nc([H])nc(N([H])[H])c2[H])c1[H])N([H])[H]


 30 31  0  0  0  0  0  0  0  0999 V2000
   35.5040  -17.5731   35.9660 S   0  0  0  0  0  0  0  0  0  0  0  0
   36.0690  -17.5815   34.5513 O   0  0  0  0  0  0  0  0  0  0  0  0
   36.2617  -18.6672   36.6871 O   0  0  0  0  0  0  0  0  0  0  0  0
   35.8416  -16.0082   36.6422 C   0  0  0  0  0  0  0  0  0  0  0  0
   37.1131  -15.6933   37.0417 C   0  0  0  0  0  0  0  0  0  0  0  0
   37.3860  -14.4565   37.5771 C   0  0  0  0  0  0  0  0  0  0  0  0
   36.3761  -13.5297   37.7127 C   0  0  0  0  0  0  0  0  0  0  0  0
   35.0775  -13.8004   37.3243 C   0  0  0  0  0  0  0  0  0  0  0  0
   34.8441  -15.0479   36.7930 C   0  0  0  0  0  0  0  0  0  0  0  0
   34.0130  -12.8157   37.4804 C   0  0  0  0  0  0  0  0  0  0  0  0
   32.6993  -13.1056   37.7396 C   0  0  0  0  0  0  0  0  0  0  0  0
   31.7187  -12.1460   37.8829 C   0  0  0  0  0  0  0  0  0  0  0  0
   30.3667  -12.4484   38.1490 N   0  0  0  0  0  0  0  0  0  0  0  0
   32.1038  -10.8519   37.7552 N   0  0  0  0  0  0  0  0  0  0  0  0
   33.3929  -10.5397   37.4996 C   0  0  0  0  0  0  0  0  0  0  0  0
   34.3387  -11.5044   37.3630 N   0  0  0  0  0  0  0  0  0  0  0  0
   29.8075  -12.9292   37.4201 H   0  0  0  0  0  0  0  0  0  0  0  0
   29.9170  -12.2067   39.0439 H   0  0  0  0  0  0  0  0  0  0  0  0
   33.2772  -19.2324   35.8065 C   0  0  0  0  0  0  0  0  0  0  0  0
   34.0609  -20.2187   35.8839 O   0  0  0  0  0  0  0  0  0  0  0  0
   33.8348  -17.9283   35.8352 N   0  0  0  0  0  0  0  0  0  0  0  0
   33.1272  -17.1345   35.7637 H   0  0  0  0  0  0  0  0  0  0  0  0
   31.8421  -19.5005   35.6894 C   0  0  0  0  0  0  0  0  0  0  0  0
   31.2565  -18.6446   34.6466 N   0  0  0  0  0  0  0  0  0  0  0  0
   31.9826  -18.0126   34.2256 H   0  0  0  0  0  0  0  0  0  0  0  0
   30.5658  -17.9739   35.0964 H   0  0  0  0  0  0  0  0  0  0  0  0
   29.9939  -21.1894   35.5360 C   0  0  0  0  0  0  0  0  0  0  0  0
   31.4806  -20.9302   35.3975 C   0  0  0  0  0  0  0  0  0  0  0  0
   31.8621  -21.2799   34.1205 O   0  0  0  0  0  0  0  0  0  0  0  0
   31.2151  -21.8593   33.6584 H   0  0  0  0  0  0  0  0  0  0  0  0
 27 28  1  0  0  0
 28 29  1  0  0  0
 28 23  1  0  0  0
 23 24  1  0  0  0
 23 19  1  0  0  0
 19 20  2  0  0  0
 19 21  1  0  0  0
 21  1  1  0  0  0
  1  2  2  0  0  0
  1  3  2  0  0  0
  1  4  1  0  0  0
  4  5  2  0  0  0
  5  6  1  0  0  0
  6  7  2  0  0  0
  7  8  1  0  0  0
  8  9  2  0  0  0
  8 10  1  0  0  0
 10 11  2  0  0  0
 11 12  1  0  0  0
 12 13  1  0  0  0
 12 14  2  0  0  0
 14 15  1  0  0  0
 15 16  2  0  0  0
  9  4  1  0  0  0
 16 10  1  0  0  0
 29 30  1  0  0  0
 24 25  1  0  0  0
 24 26  1  0  0  0
 21 22  1  0  0  0
 13 17  1  0  0  0
 13 18  1  0  0  0
M  END
> <minimizedAffinity>
-7.19822

> <CNNscore>
0.2421912849

> <CNNaffinity>
4.9093437195

> <CNN_VS>
1.1890002489

> <CNNaffinity_variance>
0.2368133962

$$$$
[H]O[C@]([H])(C([H])([H])[H])[C@@]([H])(C(=O)N([H])S(=O)(=O)c1c([H])c([H])c([H])c(-c2nc([H])nc(N([H])[H])c2[H])c1[H])N([H])[H]


 30 31  0  0  0  0  0  0  0  0999 V2000
   35.4814  -21.5246   37.2315 S   0  0  0  0  0  0  0  0  0  0  0  0
   36.2671  -22.7593   36.8084 O   0  0  0  0  0  0  0  0  0  0  0  0
   35.1731  -21.7506   38.6961 O   0  0  0  0  0  0  0  0  0  0  0  0
   36.5223  -20.1522   37.0009 C   0  0  0  0  0  0  0  0  0  0  0  0
   37.8618  -20.3358   36.7838 C   0  0  0  0  0  0  0  0  0  0  0  0
   38.6899  -19.2535   36.6005 C   0  0  0  0  0  0  0  0  0  0  0  0
   38.1702  -17.9785   36.6355 C   0  0  0  0  0  0  0  0  0  0  0  0
   36.8257  -17.7419   36.8513 C   0  0  0  0  0  0  0  0  0  0  0  0
   36.0295  -18.8497   37.0300 C   0  0  0  0  0  0  0  0  0  0  0  0
   36.2862  -16.3876   36.8959 C   0  0  0  0  0  0  0  0  0  0  0  0
   35.0531  -16.0118   36.4322 C   0  0  0  0  0  0  0  0  0  0  0  0
   34.5750  -14.7193   36.4928 C   0  0  0  0  0  0  0  0  0  0  0  0
   33.3048  -14.3358   36.0134 N   0  0  0  0  0  0  0  0  0  0  0  0
   35.3913  -13.7888   37.0472 N   0  0  0  0  0  0  0  0  0  0  0  0
   36.6119  -14.1338   37.5118 C   0  0  0  0  0  0  0  0  0  0  0  0
   37.0583  -15.4141   37.4396 N   0  0  0  0  0  0  0  0  0  0  0  0
   33.1230  -14.3687   34.9932 H   0  0  0  0  0  0  0  0  0  0  0  0
   32.5523  -14.0240   36.6443 H   0  0  0  0  0  0  0  0  0  0  0  0
   32.8424  -20.8672   36.6479 C   0  0  0  0  0  0  0  0  0  0  0  0
   32.7841  -20.2899   37.7687 O   0  0  0  0  0  0  0  0  0  0  0  0
   34.0620  -21.4888   36.2757 N   0  0  0  0  0  0  0  0  0  0  0  0
   34.0528  -21.9628   35.3212 H   0  0  0  0  0  0  0  0  0  0  0  0
   31.6440  -20.8593   35.8060 C   0  0  0  0  0  0  0  0  0  0  0  0
   30.4551  -21.1407   36.6247 N   0  0  0  0  0  0  0  0  0  0  0  0
   30.7189  -21.3074   37.6280 H   0  0  0  0  0  0  0  0  0  0  0  0
   30.0328  -22.0656   36.3160 H   0  0  0  0  0  0  0  0  0  0  0  0
   29.9408  -19.3470   34.7553 C   0  0  0  0  0  0  0  0  0  0  0  0
   31.4099  -19.5877   35.0390 C   0  0  0  0  0  0  0  0  0  0  0  0
   31.8988  -18.5018   35.7321 O   0  0  0  0  0  0  0  0  0  0  0  0
   31.3283  -17.7027   35.6701 H   0  0  0  0  0  0  0  0  0  0  0  0
 27 28  1  0  0  0
 28 29  1  0  0  0
 28 23  1  0  0  0
 23 24  1  0  0  0
 23 19  1  0  0  0
 19 20  2  0  0  0
 19 21  1  0  0  0
 21  1  1  0  0  0
  1  2  2  0  0  0
  1  3  2  0  0  0
  1  4  1  0  0  0
  4  5  2  0  0  0
  5  6  1  0  0  0
  6  7  2  0  0  0
  7  8  1  0  0  0
  8  9  2  0  0  0
  8 10  1  0  0  0
 10 11  2  0  0  0
 11 12  1  0  0  0
 12 13  1  0  0  0
 12 14  2  0  0  0
 14 15  1  0  0  0
 15 16  2  0  0  0
  9  4  1  0  0  0
 16 10  1  0  0  0
 29 30  1  0  0  0
 24 25  1  0  0  0
 24 26  1  0  0  0
 21 22  1  0  0  0
 13 17  1  0  0  0
 13 18  1  0  0  0
M  END
> <minimizedAffinity>
-6.24564

> <CNNscore>
0.2386470288

> <CNNaffinity>
4.4416284561

> <CNN_VS>
1.0599814653

> <CNNaffinity_variance>
1.0585865974

$$$$
[H]O[C@]([H])(C([H])([H])[H])[C@@]([H])(C(=O)N([H])S(=O)(=O)c1c([H])c([H])c([H])c(-c2nc([H])nc(N([H])[H])c2[H])c1[H])N([H])[H]


 30 31  0  0  0  0  0  0  0  0999 V2000
   32.4123  -19.5369   34.8287 S   0  0  0  0  0  0  0  0  0  0  0  0
   31.5413  -18.8103   35.8456 O   0  0  0  0  0  0  0  0  0  0  0  0
   31.6889  -19.3614   33.5107 O   0  0  0  0  0  0  0  0  0  0  0  0
   33.9587  -18.7440   34.8205 C   0  0  0  0  0  0  0  0  0  0  0  0
   35.0220  -19.3207   34.1785 C   0  0  0  0  0  0  0  0  0  0  0  0
   36.2478  -18.6976   34.1686 C   0  0  0  0  0  0  0  0  0  0  0  0
   36.4074  -17.4878   34.8074 C   0  0  0  0  0  0  0  0  0  0  0  0
   35.3650  -16.8662   35.4686 C   0  0  0  0  0  0  0  0  0  0  0  0
   34.1545  -17.5202   35.4561 C   0  0  0  0  0  0  0  0  0  0  0  0
   35.5462  -15.5895   36.1500 C   0  0  0  0  0  0  0  0  0  0  0  0
   36.6969  -15.1809   36.7712 C   0  0  0  0  0  0  0  0  0  0  0  0
   36.8323  -13.9633   37.4053 C   0  0  0  0  0  0  0  0  0  0  0  0
   38.0187  -13.5463   38.0447 N   0  0  0  0  0  0  0  0  0  0  0  0
   35.7510  -13.1447   37.3984 N   0  0  0  0  0  0  0  0  0  0  0  0
   34.6047  -13.5242   36.7928 C   0  0  0  0  0  0  0  0  0  0  0  0
   34.4982  -14.7290   36.1757 N   0  0  0  0  0  0  0  0  0  0  0  0
   38.3269  -14.0413   38.9020 H   0  0  0  0  0  0  0  0  0  0  0  0
   38.5883  -12.7657   37.6874 H   0  0  0  0  0  0  0  0  0  0  0  0
   31.3460  -22.0083   35.5302 C   0  0  0  0  0  0  0  0  0  0  0  0
   30.1980  -21.5133   35.3570 O   0  0  0  0  0  0  0  0  0  0  0  0
   32.4750  -21.1775   35.3121 N   0  0  0  0  0  0  0  0  0  0  0  0
   33.4177  -21.6470   35.4759 H   0  0  0  0  0  0  0  0  0  0  0  0
   31.4360  -23.4091   35.9482 C   0  0  0  0  0  0  0  0  0  0  0  0
   30.3221  -23.7346   36.8516 N   0  0  0  0  0  0  0  0  0  0  0  0
   29.7153  -22.8935   37.0205 H   0  0  0  0  0  0  0  0  0  0  0  0
   30.7115  -23.9641   37.8132 H   0  0  0  0  0  0  0  0  0  0  0  0
   30.1339  -25.1393   34.6822 C   0  0  0  0  0  0  0  0  0  0  0  0
   31.4549  -24.4108   34.8274 C   0  0  0  0  0  0  0  0  0  0  0  0
   31.7428  -23.7969   33.6280 O   0  0  0  0  0  0  0  0  0  0  0  0
   31.2285  -24.1514   32.8679 H   0  0  0  0  0  0  0  0  0  0  0  0
 27 28  1  0  0  0
 28 29  1  0  0  0
 28 23  1  0  0  0
 23 24  1  0  0  0
 23 19  1  0  0  0
 19 20  2  0  0  0
 19 21  1  0  0  0
 21  1  1  0  0  0
  1  2  2  0  0  0
  1  3  2  0  0  0
  1  4  1  0  0  0
  4  5  2  0  0  0
  5  6  1  0  0  0
  6  7  2  0  0  0
  7  8  1  0  0  0
  8  9  2  0  0  0
  8 10  1  0  0  0
 10 11  2  0  0  0
 11 12  1  0  0  0
 12 13  1  0  0  0
 12 14  2  0  0  0
 14 15  1  0  0  0
 15 16  2  0  0  0
  9  4  1  0  0  0
 16 10  1  0  0  0
 29 30  1  0  0  0
 24 25  1  0  0  0
 24 26  1  0  0  0
 21 22  1  0  0  0
 13 17  1  0  0  0
 13 18  1  0  0  0
M  END
> <minimizedAffinity>
-6.71387

> <CNNscore>
0.2261226475

> <CNNaffinity>
4.4056401253

> <CNN_VS>
0.9962149858

> <CNNaffinity_variance>
0.4224082828

$$$$
[H]c1c([H])c(S(=O)(=O)N2c3c([H])c(N([H])C(=O)OC(C([H])([H])[H])(C([H])([H])[H])C([H])([H])[H])c([H])c([H])c3O[C@@]([H])(C([H])([H])N([H])C(=O)C([H])([H])[H])C2([H])[H])c([H])c(Cl)c1F


 36 38  0  0  0  0  0  0  0  0999 V2000
   40.2693  -19.6110   33.1459 C   0  0  0  0  0  0  0  0  0  0  0  0
   39.3912  -20.2473   34.1803 C   0  0  0  0  0  0  0  0  0  0  0  0
   39.4793  -19.6427   35.4749 N   0  0  0  0  0  0  0  0  0  0  0  0
   40.7320  -19.1508   35.9054 C   0  0  0  0  0  0  0  0  0  0  0  0
   41.0813  -19.0561   37.2201 C   0  0  0  0  0  0  0  0  0  0  0  0
   42.3339  -18.5624   37.6243 C   0  0  0  0  0  0  0  0  0  0  0  0
   43.2314  -18.1656   36.6744 C   0  0  0  0  0  0  0  0  0  0  0  0
   42.8942  -18.2553   35.3399 C   0  0  0  0  0  0  0  0  0  0  0  0
   41.6800  -18.7338   34.9629 C   0  0  0  0  0  0  0  0  0  0  0  0
   41.3295  -18.8303   33.6525 O   0  0  0  0  0  0  0  0  0  0  0  0
   42.5973  -18.5220   38.9914 N   0  0  0  0  0  0  0  0  0  0  0  0
   43.5557  -19.2591   39.6884 C   0  0  0  0  0  0  0  0  0  0  0  0
   44.3241  -20.0703   39.1464 O   0  0  0  0  0  0  0  0  0  0  0  0
   41.9983  -17.8576   39.5876 H   0  0  0  0  0  0  0  0  0  0  0  0
   43.7142  -19.1249   41.0811 O   0  0  0  0  0  0  0  0  0  0  0  0
   43.0089  -19.9721   41.9756 C   0  0  0  0  0  0  0  0  0  0  0  0
   42.3859  -19.0582   43.0199 C   0  0  0  0  0  0  0  0  0  0  0  0
   41.9314  -20.7402   41.2532 C   0  0  0  0  0  0  0  0  0  0  0  0
   43.9114  -20.9439   42.6828 C   0  0  0  0  0  0  0  0  0  0  0  0
   38.1005  -19.5519   36.4503 S   0  0  0  0  0  0  0  0  0  0  0  0
   36.8386  -19.8092   35.5896 O   0  0  0  0  0  0  0  0  0  0  0  0
   37.8494  -18.1958   37.0215 O   0  0  0  0  0  0  0  0  0  0  0  0
   38.0192  -20.7953   37.6736 C   0  0  0  0  0  0  0  0  0  0  0  0
   37.2256  -20.7627   38.7723 C   0  0  0  0  0  0  0  0  0  0  0  0
   37.2410  -21.8178   39.6876 C   0  0  0  0  0  0  0  0  0  0  0  0
   38.0602  -22.9161   39.4997 C   0  0  0  0  0  0  0  0  0  0  0  0
   38.1061  -23.9534   40.3548 F   0  0  0  0  0  0  0  0  0  0  0  0
   38.8556  -22.9376   38.3888 C   0  0  0  0  0  0  0  0  0  0  0  0
   39.9104  -24.3235   38.1246 Cl  0  0  0  0  0  0  0  0  0  0  0  0
   38.8422  -21.8871   37.4745 C   0  0  0  0  0  0  0  0  0  0  0  0
   40.8214  -20.6294   32.2032 C   0  0  0  0  0  0  0  0  0  0  0  0
   43.0446  -23.3814   33.7557 C   0  0  0  0  0  0  0  0  0  0  0  0
   41.8470  -22.6709   33.1712 C   0  0  0  0  0  0  0  0  0  0  0  0
   40.8041  -23.3461   33.0896 O   0  0  0  0  0  0  0  0  0  0  0  0
   41.9366  -21.3341   32.7560 N   0  0  0  0  0  0  0  0  0  0  0  0
   42.8380  -20.8148   32.8434 H   0  0  0  0  0  0  0  0  0  0  0  0
 32 33  1  0  0  0
 33 34  2  0  0  0
 33 35  1  0  0  0
 35 31  1  0  0  0
 31  1  1  0  0  0
  1  2  1  0  0  0
  2  3  1  0  0  0
  3  4  1  0  0  0
  4  5  2  0  0  0
  5  6  1  0  0  0
  6 11  1  0  0  0
 11 12  1  0  0  0
 12 13  2  0  0  0
 12 15  1  0  0  0
 15 16  1  0  0  0
 16 17  1  0  0  0
 16 18  1  0  0  0
 16 19  1  0  0  0
  6  7  2  0  0  0
  7  8  1  0  0  0
  8  9  2  0  0  0
  9 10  1  0  0  0
  3 20  1  0  0  0
 20 21  2  0  0  0
 20 22  2  0  0  0
 20 23  1  0  0  0
 23 24  2  0  0  0
 24 25  1  0  0  0
 25 26  2  0  0  0
 26 27  1  0  0  0
 26 28  1  0  0  0
 28 29  1  0  0  0
 28 30  2  0  0  0
 10  1  1  0  0  0
 30 23  1  0  0  0
  9  4  1  0  0  0
 35 36  1  0  0  0
 11 14  1  0  0  0
M  END
> <minimizedAffinity>
-4.33911

> <CNNscore>
0.3700493574

> <CNNaffinity>
5.4616408348

> <CNN_VS>
2.0210766792

> <CNNaffinity_variance>
0.1630547941

$$$$
[H]c1c([H])c(S(=O)(=O)N2c3c([H])c(N([H])C(=O)OC(C([H])([H])[H])(C([H])([H])[H])C([H])([H])[H])c([H])c([H])c3O[C@@]([H])(C([H])([H])N([H])C(=O)C([H])([H])[H])C2([H])[H])c([H])c(Cl)c1F


 36 38  0  0  0  0  0  0  0  0999 V2000
   32.0801  -22.2472   35.7797 C   0  0  0  0  0  0  0  0  0  0  0  0
   33.3596  -22.2330   36.5598 C   0  0  0  0  0  0  0  0  0  0  0  0
   33.7122  -20.9475   37.0821 N   0  0  0  0  0  0  0  0  0  0  0  0
   33.4128  -19.8015   36.3116 C   0  0  0  0  0  0  0  0  0  0  0  0
   34.1210  -18.6397   36.4016 C   0  0  0  0  0  0  0  0  0  0  0  0
   33.8036  -17.5119   35.6249 C   0  0  0  0  0  0  0  0  0  0  0  0
   32.7555  -17.5781   34.7518 C   0  0  0  0  0  0  0  0  0  0  0  0
   32.0290  -18.7460   34.6480 C   0  0  0  0  0  0  0  0  0  0  0  0
   32.3461  -19.8286   35.4049 C   0  0  0  0  0  0  0  0  0  0  0  0
   31.6422  -20.9888   35.3164 O   0  0  0  0  0  0  0  0  0  0  0  0
   34.5999  -16.3799   35.7813 N   0  0  0  0  0  0  0  0  0  0  0  0
   35.9758  -16.2800   35.5698 C   0  0  0  0  0  0  0  0  0  0  0  0
   36.6824  -17.2302   35.1957 O   0  0  0  0  0  0  0  0  0  0  0  0
   34.1133  -15.4782   36.1066 H   0  0  0  0  0  0  0  0  0  0  0  0
   36.6630  -15.0678   35.7720 O   0  0  0  0  0  0  0  0  0  0  0  0
   36.6238  -14.4139   37.0314 C   0  0  0  0  0  0  0  0  0  0  0  0
   36.5405  -15.5159   38.0768 C   0  0  0  0  0  0  0  0  0  0  0  0
   37.8668  -13.5890   37.2490 C   0  0  0  0  0  0  0  0  0  0  0  0
   35.4177  -13.5305   37.1857 C   0  0  0  0  0  0  0  0  0  0  0  0
   34.4860  -20.8387   38.5821 S   0  0  0  0  0  0  0  0  0  0  0  0
   33.5059  -21.2649   39.7033 O   0  0  0  0  0  0  0  0  0  0  0  0
   34.8612  -19.4475   38.9720 O   0  0  0  0  0  0  0  0  0  0  0  0
   35.8231  -21.9464   38.7676 C   0  0  0  0  0  0  0  0  0  0  0  0
   35.7193  -23.2424   39.1521 C   0  0  0  0  0  0  0  0  0  0  0  0
   36.8604  -24.0399   39.2662 C   0  0  0  0  0  0  0  0  0  0  0  0
   38.1177  -23.5333   38.9925 C   0  0  0  0  0  0  0  0  0  0  0  0
   39.2419  -24.2655   39.0889 F   0  0  0  0  0  0  0  0  0  0  0  0
   38.2098  -22.2258   38.6060 C   0  0  0  0  0  0  0  0  0  0  0  0
   39.7990  -21.5532   38.2524 Cl  0  0  0  0  0  0  0  0  0  0  0  0
   37.0737  -21.4283   38.4913 C   0  0  0  0  0  0  0  0  0  0  0  0
   32.1604  -23.1906   34.6245 C   0  0  0  0  0  0  0  0  0  0  0  0
   29.6330  -25.8816   33.4855 C   0  0  0  0  0  0  0  0  0  0  0  0
   30.8078  -24.9325   33.4875 C   0  0  0  0  0  0  0  0  0  0  0  0
   31.5134  -24.9431   32.4618 O   0  0  0  0  0  0  0  0  0  0  0  0
   31.0605  -24.1044   34.5911 N   0  0  0  0  0  0  0  0  0  0  0  0
   30.4383  -24.1386   35.4286 H   0  0  0  0  0  0  0  0  0  0  0  0
 32 33  1  0  0  0
 33 34  2  0  0  0
 33 35  1  0  0  0
 35 31  1  0  0  0
 31  1  1  0  0  0
  1  2  1  0  0  0
  2  3  1  0  0  0
  3  4  1  0  0  0
  4  5  2  0  0  0
  5  6  1  0  0  0
  6 11  1  0  0  0
 11 12  1  0  0  0
 12 13  2  0  0  0
 12 15  1  0  0  0
 15 16  1  0  0  0
 16 17  1  0  0  0
 16 18  1  0  0  0
 16 19  1  0  0  0
  6  7  2  0  0  0
  7  8  1  0  0  0
  8  9  2  0  0  0
  9 10  1  0  0  0
  3 20  1  0  0  0
 20 21  2  0  0  0
 20 22  2  0  0  0
 20 23  1  0  0  0
 23 24  2  0  0  0
 24 25  1  0  0  0
 25 26  2  0  0  0
 26 27  1  0  0  0
 26 28  1  0  0  0
 28 29  1  0  0  0
 28 30  2  0  0  0
 10  1  1  0  0  0
 30 23  1  0  0  0
  9  4  1  0  0  0
 35 36  1  0  0  0
 11 14  1  0  0  0
M  END
> <minimizedAffinity>
-5.97116

> <CNNscore>
0.3170138001

> <CNNaffinity>
5.4173321724

> <CNN_VS>
1.7173690796

> <CNNaffinity_variance>
0.0828654990

$$$$
[H]c1c([H])c(S(=O)(=O)N2c3c([H])c(N([H])C(=O)OC(C([H])([H])[H])(C([H])([H])[H])C([H])([H])[H])c([H])c([H])c3O[C@@]([H])(C([H])([H])N([H])C(=O)C([H])([H])[H])C2([H])[H])c([H])c(Cl)c1F


 36 38  0  0  0  0  0  0  0  0999 V2000
   38.6349  -18.7568   34.8992 C   0  0  0  0  0  0  0  0  0  0  0  0
   37.2184  -18.7649   34.4097 C   0  0  0  0  0  0  0  0  0  0  0  0
   36.2394  -18.8281   35.4524 N   0  0  0  0  0  0  0  0  0  0  0  0
   36.5292  -19.5941   36.6038 C   0  0  0  0  0  0  0  0  0  0  0  0
   35.5635  -20.1645   37.3793 C   0  0  0  0  0  0  0  0  0  0  0  0
   35.8764  -20.9220   38.5214 C   0  0  0  0  0  0  0  0  0  0  0  0
   37.1861  -21.0954   38.8672 C   0  0  0  0  0  0  0  0  0  0  0  0
   38.1756  -20.5257   38.0932 C   0  0  0  0  0  0  0  0  0  0  0  0
   37.8594  -19.7954   36.9922 C   0  0  0  0  0  0  0  0  0  0  0  0
   38.8204  -19.2264   36.2164 O   0  0  0  0  0  0  0  0  0  0  0  0
   34.8159  -21.4748   39.2354 N   0  0  0  0  0  0  0  0  0  0  0  0
   34.1928  -20.9453   40.3664 C   0  0  0  0  0  0  0  0  0  0  0  0
   34.5224  -19.8683   40.8894 O   0  0  0  0  0  0  0  0  0  0  0  0
   34.4296  -22.4169   38.8905 H   0  0  0  0  0  0  0  0  0  0  0  0
   33.1275  -21.6149   40.9983 O   0  0  0  0  0  0  0  0  0  0  0  0
   33.3712  -22.7317   41.8403 C   0  0  0  0  0  0  0  0  0  0  0  0
   32.4293  -22.5806   43.0251 C   0  0  0  0  0  0  0  0  0  0  0  0
   33.0875  -24.0236   41.1169 C   0  0  0  0  0  0  0  0  0  0  0  0
   34.7799  -22.7636   42.3633 C   0  0  0  0  0  0  0  0  0  0  0  0
   34.7713  -18.0082   35.2707 S   0  0  0  0  0  0  0  0  0  0  0  0
   33.6768  -18.7119   36.1111 O   0  0  0  0  0  0  0  0  0  0  0  0
   34.2168  -18.0561   33.8855 O   0  0  0  0  0  0  0  0  0  0  0  0
   34.7889  -16.3816   35.9055 C   0  0  0  0  0  0  0  0  0  0  0  0
   33.7257  -15.5409   35.9360 C   0  0  0  0  0  0  0  0  0  0  0  0
   33.8543  -14.2569   36.4707 C   0  0  0  0  0  0  0  0  0  0  0  0
   35.0606  -13.8112   36.9794 C   0  0  0  0  0  0  0  0  0  0  0  0
   35.2285  -12.5838   37.5036 F   0  0  0  0  0  0  0  0  0  0  0  0
   36.1250  -14.6673   36.9431 C   0  0  0  0  0  0  0  0  0  0  0  0
   37.6744  -14.1258   37.5829 Cl  0  0  0  0  0  0  0  0  0  0  0  0
   35.9996  -15.9482   36.4108 C   0  0  0  0  0  0  0  0  0  0  0  0
   39.5303  -19.5201   33.9792 C   0  0  0  0  0  0  0  0  0  0  0  0
   39.0474  -23.3522   34.0687 C   0  0  0  0  0  0  0  0  0  0  0  0
   39.5782  -21.9703   34.3675 C   0  0  0  0  0  0  0  0  0  0  0  0
   40.4969  -21.9134   35.2059 O   0  0  0  0  0  0  0  0  0  0  0  0
   39.0481  -20.8423   33.7240 N   0  0  0  0  0  0  0  0  0  0  0  0
   38.2743  -20.9465   33.0311 H   0  0  0  0  0  0  0  0  0  0  0  0
 32 33  1  0  0  0
 33 34  2  0  0  0
 33 35  1  0  0  0
 35 31  1  0  0  0
 31  1  1  0  0  0
  1  2  1  0  0  0
  2  3  1  0  0  0
  3  4  1  0  0  0
  4  5  2  0  0  0
  5  6  1  0  0  0
  6 11  1  0  0  0
 11 12  1  0  0  0
 12 13  2  0  0  0
 12 15  1  0  0  0
 15 16  1  0  0  0
 16 17  1  0  0  0
 16 18  1  0  0  0
 16 19  1  0  0  0
  6  7  2  0  0  0
  7  8  1  0  0  0
  8  9  2  0  0  0
  9 10  1  0  0  0
  3 20  1  0  0  0
 20 21  2  0  0  0
 20 22  2  0  0  0
 20 23  1  0  0  0
 23 24  2  0  0  0
 24 25  1  0  0  0
 25 26  2  0  0  0
 26 27  1  0  0  0
 26 28  1  0  0  0
 28 29  1  0  0  0
 28 30  2  0  0  0
 10  1  1  0  0  0
 30 23  1  0  0  0
  9  4  1  0  0  0
 35 36  1  0  0  0
 11 14  1  0  0  0
M  END
> <minimizedAffinity>
-6.89909

> <CNNscore>
0.2872883081

> <CNNaffinity>
5.6489782333

> <CNN_VS>
1.6228853464

> <CNNaffinity_variance>
0.2772698104

$$$$
[H]c1c([H])c(S(=O)(=O)N2c3c([H])c(N([H])C(=O)OC(C([H])([H])[H])(C([H])([H])[H])C([H])([H])[H])c([H])c([H])c3O[C@@]([H])(C([H])([H])N([H])C(=O)C([H])([H])[H])C2([H])[H])c([H])c(Cl)c1F


 36 38  0  0  0  0  0  0  0  0999 V2000
   37.2607  -19.2091   35.8806 C   0  0  0  0  0  0  0  0  0  0  0  0
   35.8641  -19.7523   35.8981 C   0  0  0  0  0  0  0  0  0  0  0  0
   34.8726  -18.8327   35.4282 N   0  0  0  0  0  0  0  0  0  0  0  0
   35.0350  -17.4596   35.7189 C   0  0  0  0  0  0  0  0  0  0  0  0
   33.9877  -16.5918   35.8174 C   0  0  0  0  0  0  0  0  0  0  0  0
   34.1743  -15.2290   36.1069 C   0  0  0  0  0  0  0  0  0  0  0  0
   35.4412  -14.7560   36.2972 C   0  0  0  0  0  0  0  0  0  0  0  0
   36.5119  -15.6205   36.2018 C   0  0  0  0  0  0  0  0  0  0  0  0
   36.3176  -16.9353   35.9208 C   0  0  0  0  0  0  0  0  0  0  0  0
   37.3601  -17.8030   35.8232 O   0  0  0  0  0  0  0  0  0  0  0  0
   33.0365  -14.4310   36.2011 N   0  0  0  0  0  0  0  0  0  0  0  0
   32.9878  -13.0512   36.4044 C   0  0  0  0  0  0  0  0  0  0  0  0
   33.9987  -12.3402   36.5256 O   0  0  0  0  0  0  0  0  0  0  0  0
   32.0839  -14.9218   36.1154 H   0  0  0  0  0  0  0  0  0  0  0  0
   31.7612  -12.3645   36.4861 O   0  0  0  0  0  0  0  0  0  0  0  0
   31.3934  -11.6769   37.6723 C   0  0  0  0  0  0  0  0  0  0  0  0
   31.6402  -12.6480   38.8169 C   0  0  0  0  0  0  0  0  0  0  0  0
   32.2307  -10.4370   37.8578 C   0  0  0  0  0  0  0  0  0  0  0  0
   29.9405  -11.2926   37.6897 C   0  0  0  0  0  0  0  0  0  0  0  0
   33.5390  -19.4116   34.5638 S   0  0  0  0  0  0  0  0  0  0  0  0
   34.0275  -20.1923   33.3183 O   0  0  0  0  0  0  0  0  0  0  0  0
   32.6843  -18.3381   33.9760 O   0  0  0  0  0  0  0  0  0  0  0  0
   32.5905  -20.5897   35.4365 C   0  0  0  0  0  0  0  0  0  0  0  0
   33.0697  -21.7383   35.9743 C   0  0  0  0  0  0  0  0  0  0  0  0
   32.2169  -22.6100   36.6555 C   0  0  0  0  0  0  0  0  0  0  0  0
   30.8707  -22.3277   36.7986 C   0  0  0  0  0  0  0  0  0  0  0  0
   30.0148  -23.1382   37.4466 F   0  0  0  0  0  0  0  0  0  0  0  0
   30.3993  -21.1673   36.2523 C   0  0  0  0  0  0  0  0  0  0  0  0
   28.6883  -20.7826   36.4179 Cl  0  0  0  0  0  0  0  0  0  0  0  0
   31.2473  -20.2962   35.5727 C   0  0  0  0  0  0  0  0  0  0  0  0
   38.0499  -19.7060   37.0472 C   0  0  0  0  0  0  0  0  0  0  0  0
   41.6681  -20.6187   36.0462 C   0  0  0  0  0  0  0  0  0  0  0  0
   40.4621  -19.8181   36.4765 C   0  0  0  0  0  0  0  0  0  0  0  0
   40.6581  -18.6028   36.6635 O   0  0  0  0  0  0  0  0  0  0  0  0
   39.2136  -20.4346   36.6458 N   0  0  0  0  0  0  0  0  0  0  0  0
   39.1054  -21.4594   36.4792 H   0  0  0  0  0  0  0  0  0  0  0  0
 32 33  1  0  0  0
 33 34  2  0  0  0
 33 35  1  0  0  0
 35 31  1  0  0  0
 31  1  1  0  0  0
  1  2  1  0  0  0
  2  3  1  0  0  0
  3  4  1  0  0  0
  4  5  2  0  0  0
  5  6  1  0  0  0
  6 11  1  0  0  0
 11 12  1  0  0  0
 12 13  2  0  0  0
 12 15  1  0  0  0
 15 16  1  0  0  0
 16 17  1  0  0  0
 16 18  1  0  0  0
 16 19  1  0  0  0
  6  7  2  0  0  0
  7  8  1  0  0  0
  8  9  2  0  0  0
  9 10  1  0  0  0
  3 20  1  0  0  0
 20 21  2  0  0  0
 20 22  2  0  0  0
 20 23  1  0  0  0
 23 24  2  0  0  0
 24 25  1  0  0  0
 25 26  2  0  0  0
 26 27  1  0  0  0
 26 28  1  0  0  0
 28 29  1  0  0  0
 28 30  2  0  0  0
 10  1  1  0  0  0
 30 23  1  0  0  0
  9  4  1  0  0  0
 35 36  1  0  0  0
 11 14  1  0  0  0
M  END
> <minimizedAffinity>
-7.68978

> <CNNscore>
0.2707485557

> <CNNaffinity>
5.8184666634

> <CNN_VS>
1.5753414631

> <CNNaffinity_variance>
0.0496483110

$$$$
[H]c1c([H])c(S(=O)(=O)N2c3c([H])c(N([H])C(=O)OC(C([H])([H])[H])(C([H])([H])[H])C([H])([H])[H])c([H])c([H])c3O[C@@]([H])(C([H])([H])N([H])C(=O)C([H])([H])[H])C2([H])[H])c([H])c(Cl)c1F


 36 38  0  0  0  0  0  0  0  0999 V2000
   33.9981  -16.1238   36.5848 C   0  0  0  0  0  0  0  0  0  0  0  0
   33.5258  -16.7902   35.3283 C   0  0  0  0  0  0  0  0  0  0  0  0
   34.0985  -18.0823   35.1004 N   0  0  0  0  0  0  0  0  0  0  0  0
   35.4411  -18.3015   35.4822 C   0  0  0  0  0  0  0  0  0  0  0  0
   36.2436  -19.2250   34.8800 C   0  0  0  0  0  0  0  0  0  0  0  0
   37.5768  -19.4259   35.2781 C   0  0  0  0  0  0  0  0  0  0  0  0
   38.0878  -18.6744   36.2976 C   0  0  0  0  0  0  0  0  0  0  0  0
   37.2897  -17.7353   36.9171 C   0  0  0  0  0  0  0  0  0  0  0  0
   36.0026  -17.5517   36.5229 C   0  0  0  0  0  0  0  0  0  0  0  0
   35.2005  -16.6307   37.1209 O   0  0  0  0  0  0  0  0  0  0  0  0
   38.3159  -20.3831   34.5870 N   0  0  0  0  0  0  0  0  0  0  0  0
   39.4279  -20.1646   33.7725 C   0  0  0  0  0  0  0  0  0  0  0  0
   39.9137  -19.0411   33.5628 O   0  0  0  0  0  0  0  0  0  0  0  0
   38.0010  -21.4069   34.6783 H   0  0  0  0  0  0  0  0  0  0  0  0
   40.0825  -21.2291   33.1237 O   0  0  0  0  0  0  0  0  0  0  0  0
   40.9129  -22.1208   33.8521 C   0  0  0  0  0  0  0  0  0  0  0  0
   41.4712  -21.3199   35.0187 C   0  0  0  0  0  0  0  0  0  0  0  0
   40.1210  -23.2965   34.3653 C   0  0  0  0  0  0  0  0  0  0  0  0
   42.0691  -22.6285   33.0371 C   0  0  0  0  0  0  0  0  0  0  0  0
   33.1679  -19.2918   34.3711 S   0  0  0  0  0  0  0  0  0  0  0  0
   34.0715  -20.1674   33.4676 O   0  0  0  0  0  0  0  0  0  0  0  0
   32.1386  -18.7757   33.4211 O   0  0  0  0  0  0  0  0  0  0  0  0
   32.4899  -20.4375   35.5011 C   0  0  0  0  0  0  0  0  0  0  0  0
   33.1868  -21.1042   36.4540 C   0  0  0  0  0  0  0  0  0  0  0  0
   32.5388  -21.9998   37.3078 C   0  0  0  0  0  0  0  0  0  0  0  0
   31.1789  -22.2296   37.2051 C   0  0  0  0  0  0  0  0  0  0  0  0
   30.5152  -23.0823   38.0062 F   0  0  0  0  0  0  0  0  0  0  0  0
   30.4872  -21.5519   36.2409 C   0  0  0  0  0  0  0  0  0  0  0  0
   28.7540  -21.8260   36.0862 Cl  0  0  0  0  0  0  0  0  0  0  0  0
   31.1307  -20.6583   35.3883 C   0  0  0  0  0  0  0  0  0  0  0  0
   34.1320  -14.6481   36.3980 C   0  0  0  0  0  0  0  0  0  0  0  0
   37.6067  -13.3689   37.5011 C   0  0  0  0  0  0  0  0  0  0  0  0
   36.4991  -13.9499   36.6546 C   0  0  0  0  0  0  0  0  0  0  0  0
   36.8187  -14.2785   35.4970 O   0  0  0  0  0  0  0  0  0  0  0  0
   35.2028  -14.0971   37.1698 N   0  0  0  0  0  0  0  0  0  0  0  0
   34.9880  -13.8012   38.1476 H   0  0  0  0  0  0  0  0  0  0  0  0
 32 33  1  0  0  0
 33 34  2  0  0  0
 33 35  1  0  0  0
 35 31  1  0  0  0
 31  1  1  0  0  0
  1  2  1  0  0  0
  2  3  1  0  0  0
  3  4  1  0  0  0
  4  5  2  0  0  0
  5  6  1  0  0  0
  6 11  1  0  0  0
 11 12  1  0  0  0
 12 13  2  0  0  0
 12 15  1  0  0  0
 15 16  1  0  0  0
 16 17  1  0  0  0
 16 18  1  0  0  0
 16 19  1  0  0  0
  6  7  2  0  0  0
  7  8  1  0  0  0
  8  9  2  0  0  0
  9 10  1  0  0  0
  3 20  1  0  0  0
 20 21  2  0  0  0
 20 22  2  0  0  0
 20 23  1  0  0  0
 23 24  2  0  0  0
 24 25  1  0  0  0
 25 26  2  0  0  0
 26 27  1  0  0  0
 26 28  1  0  0  0
 28 29  1  0  0  0
 28 30  2  0  0  0
 10  1  1  0  0  0
 30 23  1  0  0  0
  9  4  1  0  0  0
 35 36  1  0  0  0
 11 14  1  0  0  0
M  END
> <minimizedAffinity>
-5.35153

> <CNNscore>
0.2447732389

> <CNNaffinity>
5.5080881119

> <CNN_VS>
1.3482325077

> <CNNaffinity_variance>
0.0577962287

$$$$
[H]c1c([H])c(S(=O)(=O)N2c3c([H])c(N([H])C(=O)OC(C([H])([H])[H])(C([H])([H])[H])C([H])([H])[H])c([H])c([H])c3O[C@@]([H])(C([H])([H])N([H])C(=O)C([H])([H])[H])C2([H])[H])c([H])c(Cl)c1F


 36 38  0  0  0  0  0  0  0  0999 V2000
   41.1398  -19.7562   33.7893 C   0  0  0  0  0  0  0  0  0  0  0  0
   41.4685  -20.2850   35.1525 C   0  0  0  0  0  0  0  0  0  0  0  0
   40.3964  -20.9990   35.7773 N   0  0  0  0  0  0  0  0  0  0  0  0
   39.0730  -20.5550   35.5587 C   0  0  0  0  0  0  0  0  0  0  0  0
   38.0620  -20.7648   36.4495 C   0  0  0  0  0  0  0  0  0  0  0  0
   36.7524  -20.3141   36.2094 C   0  0  0  0  0  0  0  0  0  0  0  0
   36.4804  -19.6442   35.0508 C   0  0  0  0  0  0  0  0  0  0  0  0
   37.4917  -19.4230   34.1391 C   0  0  0  0  0  0  0  0  0  0  0  0
   38.7531  -19.8645   34.3833 C   0  0  0  0  0  0  0  0  0  0  0  0
   39.7634  -19.6556   33.4973 O   0  0  0  0  0  0  0  0  0  0  0  0
   35.7967  -20.5660   37.1910 N   0  0  0  0  0  0  0  0  0  0  0  0
   35.3710  -19.6976   38.1972 C   0  0  0  0  0  0  0  0  0  0  0  0
   35.8105  -18.5448   38.3388 O   0  0  0  0  0  0  0  0  0  0  0  0
   35.3328  -21.5357   37.1873 H   0  0  0  0  0  0  0  0  0  0  0  0
   34.3944  -20.0841   39.1350 O   0  0  0  0  0  0  0  0  0  0  0  0
   34.7698  -20.6698   40.3724 C   0  0  0  0  0  0  0  0  0  0  0  0
   33.7685  -21.7850   40.6326 C   0  0  0  0  0  0  0  0  0  0  0  0
   36.1652  -21.2358   40.2991 C   0  0  0  0  0  0  0  0  0  0  0  0
   34.6959  -19.6982   41.5168 C   0  0  0  0  0  0  0  0  0  0  0  0
   40.7415  -22.3286   36.7642 S   0  0  0  0  0  0  0  0  0  0  0  0
   42.2328  -22.7171   36.6082 O   0  0  0  0  0  0  0  0  0  0  0  0
   40.0240  -23.5776   36.3725 O   0  0  0  0  0  0  0  0  0  0  0  0
   40.5832  -21.9990   38.4717 C   0  0  0  0  0  0  0  0  0  0  0  0
   39.8981  -22.7636   39.3571 C   0  0  0  0  0  0  0  0  0  0  0  0
   39.8392  -22.4038   40.7055 C   0  0  0  0  0  0  0  0  0  0  0  0
   40.4730  -21.2661   41.1707 C   0  0  0  0  0  0  0  0  0  0  0  0
   40.4425  -20.8831   42.4598 F   0  0  0  0  0  0  0  0  0  0  0  0
   41.1604  -20.5033   40.2691 C   0  0  0  0  0  0  0  0  0  0  0  0
   41.9763  -19.0477   40.8334 Cl  0  0  0  0  0  0  0  0  0  0  0  0
   41.2209  -20.8598   38.9241 C   0  0  0  0  0  0  0  0  0  0  0  0
   41.7862  -18.4308   33.5520 C   0  0  0  0  0  0  0  0  0  0  0  0
   43.4296  -16.3695   36.3763 C   0  0  0  0  0  0  0  0  0  0  0  0
   43.2378  -17.1237   35.0821 C   0  0  0  0  0  0  0  0  0  0  0  0
   44.2354  -17.1865   34.3397 O   0  0  0  0  0  0  0  0  0  0  0  0
   42.0012  -17.7055   34.7660 N   0  0  0  0  0  0  0  0  0  0  0  0
   41.1952  -17.6192   35.4236 H   0  0  0  0  0  0  0  0  0  0  0  0
 32 33  1  0  0  0
 33 34  2  0  0  0
 33 35  1  0  0  0
 35 31  1  0  0  0
 31  1  1  0  0  0
  1  2  1  0  0  0
  2  3  1  0  0  0
  3  4  1  0  0  0
  4  5  2  0  0  0
  5  6  1  0  0  0
  6 11  1  0  0  0
 11 12  1  0  0  0
 12 13  2  0  0  0
 12 15  1  0  0  0
 15 16  1  0  0  0
 16 17  1  0  0  0
 16 18  1  0  0  0
 16 19  1  0  0  0
  6  7  2  0  0  0
  7  8  1  0  0  0
  8  9  2  0  0  0
  9 10  1  0  0  0
  3 20  1  0  0  0
 20 21  2  0  0  0
 20 22  2  0  0  0
 20 23  1  0  0  0
 23 24  2  0  0  0
 24 25  1  0  0  0
 25 26  2  0  0  0
 26 27  1  0  0  0
 26 28  1  0  0  0
 28 29  1  0  0  0
 28 30  2  0  0  0
 10  1  1  0  0  0
 30 23  1  0  0  0
  9  4  1  0  0  0
 35 36  1  0  0  0
 11 14  1  0  0  0
M  END
> <minimizedAffinity>
-4.96158

> <CNNscore>
0.2356163114

> <CNNaffinity>
5.4198055267

> <CNN_VS>
1.2769945860

> <CNNaffinity_variance>
0.1211724505

$$$$
[H]c1c([H])c(S(=O)(=O)N2c3c([H])c(N([H])C(=O)OC(C([H])([H])[H])(C([H])([H])[H])C([H])([H])[H])c([H])c([H])c3O[C@@]([H])(C([H])([H])N([H])C(=O)C([H])([H])[H])C2([H])[H])c([H])c(Cl)c1F


 36 38  0  0  0  0  0  0  0  0999 V2000
   35.4211  -17.1169   36.6483 C   0  0  0  0  0  0  0  0  0  0  0  0
   34.7145  -18.4337   36.7598 C   0  0  0  0  0  0  0  0  0  0  0  0
   35.5826  -19.5706   36.7006 N   0  0  0  0  0  0  0  0  0  0  0  0
   36.7115  -19.5133   35.8529 C   0  0  0  0  0  0  0  0  0  0  0  0
   37.2848  -20.6216   35.3028 C   0  0  0  0  0  0  0  0  0  0  0  0
   38.4087  -20.5396   34.4625 C   0  0  0  0  0  0  0  0  0  0  0  0
   38.9449  -19.3145   34.1852 C   0  0  0  0  0  0  0  0  0  0  0  0
   38.3769  -18.1832   34.7330 C   0  0  0  0  0  0  0  0  0  0  0  0
   37.2911  -18.2766   35.5441 C   0  0  0  0  0  0  0  0  0  0  0  0
   36.7167  -17.1729   36.0930 O   0  0  0  0  0  0  0  0  0  0  0  0
   38.9075  -21.7303   33.9395 N   0  0  0  0  0  0  0  0  0  0  0  0
   40.1876  -22.2581   34.1144 C   0  0  0  0  0  0  0  0  0  0  0  0
   41.0701  -21.7057   34.7912 O   0  0  0  0  0  0  0  0  0  0  0  0
   38.2444  -22.3134   33.3265 H   0  0  0  0  0  0  0  0  0  0  0  0
   40.5656  -23.4777   33.5207 O   0  0  0  0  0  0  0  0  0  0  0  0
   40.0970  -24.7127   34.0407 C   0  0  0  0  0  0  0  0  0  0  0  0
   40.2376  -24.6149   35.5522 C   0  0  0  0  0  0  0  0  0  0  0  0
   38.6533  -24.9399   33.6703 C   0  0  0  0  0  0  0  0  0  0  0  0
   40.9126  -25.8839   33.5696 C   0  0  0  0  0  0  0  0  0  0  0  0
   35.2262  -20.9429   37.6229 S   0  0  0  0  0  0  0  0  0  0  0  0
   34.4682  -21.9727   36.7487 O   0  0  0  0  0  0  0  0  0  0  0  0
   34.2766  -20.6892   38.7464 O   0  0  0  0  0  0  0  0  0  0  0  0
   36.6386  -21.8215   38.1543 C   0  0  0  0  0  0  0  0  0  0  0  0
   36.9629  -23.0836   37.7802 C   0  0  0  0  0  0  0  0  0  0  0  0
   38.1226  -23.6902   38.2683 C   0  0  0  0  0  0  0  0  0  0  0  0
   38.9652  -23.0251   39.1401 C   0  0  0  0  0  0  0  0  0  0  0  0
   40.0913  -23.5708   39.6336 F   0  0  0  0  0  0  0  0  0  0  0  0
   38.6280  -21.7536   39.5100 C   0  0  0  0  0  0  0  0  0  0  0  0
   39.6823  -20.8829   40.6207 Cl  0  0  0  0  0  0  0  0  0  0  0  0
   37.4724  -21.1463   39.0248 C   0  0  0  0  0  0  0  0  0  0  0  0
   34.6054  -16.1275   35.8825 C   0  0  0  0  0  0  0  0  0  0  0  0
   35.1307  -12.3716   36.6202 C   0  0  0  0  0  0  0  0  0  0  0  0
   34.5175  -13.7514   36.5921 C   0  0  0  0  0  0  0  0  0  0  0  0
   33.4279  -13.8713   37.1827 O   0  0  0  0  0  0  0  0  0  0  0  0
   35.1601  -14.8100   35.9333 N   0  0  0  0  0  0  0  0  0  0  0  0
   36.0758  -14.6552   35.4565 H   0  0  0  0  0  0  0  0  0  0  0  0
 32 33  1  0  0  0
 33 34  2  0  0  0
 33 35  1  0  0  0
 35 31  1  0  0  0
 31  1  1  0  0  0
  1  2  1  0  0  0
  2  3  1  0  0  0
  3  4  1  0  0  0
  4  5  2  0  0  0
  5  6  1  0  0  0
  6 11  1  0  0  0
 11 12  1  0  0  0
 12 13  2  0  0  0
 12 15  1  0  0  0
 15 16  1  0  0  0
 16 17  1  0  0  0
 16 18  1  0  0  0
 16 19  1  0  0  0
  6  7  2  0  0  0
  7  8  1  0  0  0
  8  9  2  0  0  0
  9 10  1  0  0  0
  3 20  1  0  0  0
 20 21  2  0  0  0
 20 22  2  0  0  0
 20 23  1  0  0  0
 23 24  2  0  0  0
 24 25  1  0  0  0
 25 26  2  0  0  0
 26 27  1  0  0  0
 26 28  1  0  0  0
 28 29  1  0  0  0
 28 30  2  0  0  0
 10  1  1  0  0  0
 30 23  1  0  0  0
  9  4  1  0  0  0
 35 36  1  0  0  0
 11 14  1  0  0  0
M  END
> <minimizedAffinity>
-4.78893

> <CNNscore>
0.2078069150

> <CNNaffinity>
5.4475183487

> <CNN_VS>
1.1320320368

> <CNNaffinity_variance>
0.0386870727

$$$$
[H]c1c([H])c(S(=O)(=O)N2c3c([H])c(N([H])C(=O)OC(C([H])([H])[H])(C([H])([H])[H])C([H])([H])[H])c([H])c([H])c3O[C@@]([H])(C([H])([H])N([H])C(=O)C([H])([H])[H])C2([H])[H])c([H])c(Cl)c1F


 36 38  0  0  0  0  0  0  0  0999 V2000
   37.1994  -19.3896   36.2224 C   0  0  0  0  0  0  0  0  0  0  0  0
   35.7955  -19.8237   35.9282 C   0  0  0  0  0  0  0  0  0  0  0  0
   34.9415  -18.7706   35.4686 N   0  0  0  0  0  0  0  0  0  0  0  0
   35.1177  -17.4762   36.0071 C   0  0  0  0  0  0  0  0  0  0  0  0
   34.1111  -16.5595   36.0831 C   0  0  0  0  0  0  0  0  0  0  0  0
   34.3109  -15.2768   36.6224 C   0  0  0  0  0  0  0  0  0  0  0  0
   35.5490  -14.9350   37.0866 C   0  0  0  0  0  0  0  0  0  0  0  0
   36.5783  -15.8507   37.0178 C   0  0  0  0  0  0  0  0  0  0  0  0
   36.3717  -17.0868   36.4936 C   0  0  0  0  0  0  0  0  0  0  0  0
   37.3735  -18.0034   36.4176 O   0  0  0  0  0  0  0  0  0  0  0  0
   33.2125  -14.4215   36.6683 N   0  0  0  0  0  0  0  0  0  0  0  0
   33.1989  -13.0506   36.4069 C   0  0  0  0  0  0  0  0  0  0  0  0
   34.2088  -12.4045   36.0834 O   0  0  0  0  0  0  0  0  0  0  0  0
   32.2657  -14.8520   36.9400 H   0  0  0  0  0  0  0  0  0  0  0  0
   32.0117  -12.2987   36.4958 O   0  0  0  0  0  0  0  0  0  0  0  0
   31.7063  -11.5629   37.6708 C   0  0  0  0  0  0  0  0  0  0  0  0
   30.4379  -10.7818   37.3620 C   0  0  0  0  0  0  0  0  0  0  0  0
   31.4720  -12.4866   38.8390 C   0  0  0  0  0  0  0  0  0  0  0  0
   32.7844  -10.5804   38.0331 C   0  0  0  0  0  0  0  0  0  0  0  0
   33.7458  -19.1056   34.3202 S   0  0  0  0  0  0  0  0  0  0  0  0
   34.2416  -20.2198   33.3653 O   0  0  0  0  0  0  0  0  0  0  0  0
   33.4583  -17.9703   33.3946 O   0  0  0  0  0  0  0  0  0  0  0  0
   32.2827  -19.7736   35.0001 C   0  0  0  0  0  0  0  0  0  0  0  0
   31.0223  -19.4258   34.6416 C   0  0  0  0  0  0  0  0  0  0  0  0
   29.9210  -20.0288   35.2536 C   0  0  0  0  0  0  0  0  0  0  0  0
   30.0848  -20.9895   36.2348 C   0  0  0  0  0  0  0  0  0  0  0  0
   29.0530  -21.5955   36.8494 F   0  0  0  0  0  0  0  0  0  0  0  0
   31.3598  -21.3317   36.5878 C   0  0  0  0  0  0  0  0  0  0  0  0
   31.5985  -22.5516   37.8360 Cl  0  0  0  0  0  0  0  0  0  0  0  0
   32.4597  -20.7322   35.9792 C   0  0  0  0  0  0  0  0  0  0  0  0
   37.7574  -20.1211   37.3989 C   0  0  0  0  0  0  0  0  0  0  0  0
   35.8961  -21.8505   40.3095 C   0  0  0  0  0  0  0  0  0  0  0  0
   37.0004  -21.2376   39.4815 C   0  0  0  0  0  0  0  0  0  0  0  0
   38.1323  -21.2434   40.0003 O   0  0  0  0  0  0  0  0  0  0  0  0
   36.7349  -20.7041   38.2117 N   0  0  0  0  0  0  0  0  0  0  0  0
   35.7652  -20.7216   37.8254 H   0  0  0  0  0  0  0  0  0  0  0  0
 32 33  1  0  0  0
 33 34  2  0  0  0
 33 35  1  0  0  0
 35 31  1  0  0  0
 31  1  1  0  0  0
  1  2  1  0  0  0
  2  3  1  0  0  0
  3  4  1  0  0  0
  4  5  2  0  0  0
  5  6  1  0  0  0
  6 11  1  0  0  0
 11 12  1  0  0  0
 12 13  2  0  0  0
 12 15  1  0  0  0
 15 16  1  0  0  0
 16 17  1  0  0  0
 16 18  1  0  0  0
 16 19  1  0  0  0
  6  7  2  0  0  0
  7  8  1  0  0  0
  8  9  2  0  0  0
  9 10  1  0  0  0
  3 20  1  0  0  0
 20 21  2  0  0  0
 20 22  2  0  0  0
 20 23  1  0  0  0
 23 24  2  0  0  0
 24 25  1  0  0  0
 25 26  2  0  0  0
 26 27  1  0  0  0
 26 28  1  0  0  0
 28 29  1  0  0  0
 28 30  2  0  0  0
 10  1  1  0  0  0
 30 23  1  0  0  0
  9  4  1  0  0  0
 35 36  1  0  0  0
 11 14  1  0  0  0
M  END
> <minimizedAffinity>
-6.98815

> <CNNscore>
0.2046530098

> <CNNaffinity>
5.7475924492

> <CNN_VS>
1.1762621403

> <CNNaffinity_variance>
0.1437208354

$$$$
[H]c1c([H])c(S(=O)(=O)N2c3c([H])c(N([H])C(=O)OC(C([H])([H])[H])(C([H])([H])[H])C([H])([H])[H])c([H])c([H])c3O[C@@]([H])(C([H])([H])N([H])C(=O)C([H])([H])[H])C2([H])[H])c([H])c(Cl)c1F


 36 38  0  0  0  0  0  0  0  0999 V2000
   33.5559  -17.1516   34.7518 C   0  0  0  0  0  0  0  0  0  0  0  0
   33.9092  -16.4466   36.0262 C   0  0  0  0  0  0  0  0  0  0  0  0
   35.3163  -16.2840   36.2343 N   0  0  0  0  0  0  0  0  0  0  0  0
   36.1848  -17.3115   35.8026 C   0  0  0  0  0  0  0  0  0  0  0  0
   37.3996  -17.5473   36.3754 C   0  0  0  0  0  0  0  0  0  0  0  0
   38.2472  -18.5755   35.9278 C   0  0  0  0  0  0  0  0  0  0  0  0
   37.8448  -19.3652   34.8887 C   0  0  0  0  0  0  0  0  0  0  0  0
   36.6186  -19.1406   34.2982 C   0  0  0  0  0  0  0  0  0  0  0  0
   35.8094  -18.1430   34.7403 C   0  0  0  0  0  0  0  0  0  0  0  0
   34.5970  -17.9063   34.1716 O   0  0  0  0  0  0  0  0  0  0  0  0
   39.4600  -18.7426   36.5919 N   0  0  0  0  0  0  0  0  0  0  0  0
   40.6819  -19.1230   36.0350 C   0  0  0  0  0  0  0  0  0  0  0  0
   40.8392  -19.3631   34.8268 O   0  0  0  0  0  0  0  0  0  0  0  0
   39.4673  -18.5680   37.6526 H   0  0  0  0  0  0  0  0  0  0  0  0
   41.8379  -19.2607   36.8270 O   0  0  0  0  0  0  0  0  0  0  0  0
   42.9380  -18.3786   36.6628 C   0  0  0  0  0  0  0  0  0  0  0  0
   43.5228  -18.1700   38.0516 C   0  0  0  0  0  0  0  0  0  0  0  0
   43.9774  -18.9779   35.7499 C   0  0  0  0  0  0  0  0  0  0  0  0
   42.5270  -17.0379   36.1220 C   0  0  0  0  0  0  0  0  0  0  0  0
   35.8920  -14.8901   36.9999 S   0  0  0  0  0  0  0  0  0  0  0  0
   36.9011  -14.1682   36.0725 O   0  0  0  0  0  0  0  0  0  0  0  0
   36.6957  -15.1604   38.2284 O   0  0  0  0  0  0  0  0  0  0  0  0
   34.6630  -13.6822   37.2826 C   0  0  0  0  0  0  0  0  0  0  0  0
   33.4264  -13.9249   37.7824 C   0  0  0  0  0  0  0  0  0  0  0  0
   32.5209  -12.8778   37.9691 C   0  0  0  0  0  0  0  0  0  0  0  0
   32.8583  -11.5749   37.6513 C   0  0  0  0  0  0  0  0  0  0  0  0
   32.0181  -10.5373   37.8155 F   0  0  0  0  0  0  0  0  0  0  0  0
   34.1075  -11.3426   37.1483 C   0  0  0  0  0  0  0  0  0  0  0  0
   34.5641   -9.6927   36.7333 Cl  0  0  0  0  0  0  0  0  0  0  0  0
   35.0124  -12.3847   36.9612 C   0  0  0  0  0  0  0  0  0  0  0  0
   32.3602  -18.0284   34.9313 C   0  0  0  0  0  0  0  0  0  0  0  0
   32.1799  -21.8743   34.6105 C   0  0  0  0  0  0  0  0  0  0  0  0
   31.8826  -20.4604   35.0500 C   0  0  0  0  0  0  0  0  0  0  0  0
   30.9659  -20.3343   35.8830 O   0  0  0  0  0  0  0  0  0  0  0  0
   32.6117  -19.3791   34.5335 N   0  0  0  0  0  0  0  0  0  0  0  0
   33.3687  -19.5410   33.8330 H   0  0  0  0  0  0  0  0  0  0  0  0
 32 33  1  0  0  0
 33 34  2  0  0  0
 33 35  1  0  0  0
 35 31  1  0  0  0
 31  1  1  0  0  0
  1  2  1  0  0  0
  2  3  1  0  0  0
  3  4  1  0  0  0
  4  5  2  0  0  0
  5  6  1  0  0  0
  6 11  1  0  0  0
 11 12  1  0  0  0
 12 13  2  0  0  0
 12 15  1  0  0  0
 15 16  1  0  0  0
 16 17  1  0  0  0
 16 18  1  0  0  0
 16 19  1  0  0  0
  6  7  2  0  0  0
  7  8  1  0  0  0
  8  9  2  0  0  0
  9 10  1  0  0  0
  3 20  1  0  0  0
 20 21  2  0  0  0
 20 22  2  0  0  0
 20 23  1  0  0  0
 23 24  2  0  0  0
 24 25  1  0  0  0
 25 26  2  0  0  0
 26 27  1  0  0  0
 26 28  1  0  0  0
 28 29  1  0  0  0
 28 30  2  0  0  0
 10  1  1  0  0  0
 30 23  1  0  0  0
  9  4  1  0  0  0
 35 36  1  0  0  0
 11 14  1  0  0  0
M  END
> <minimizedAffinity>
-7.66729

> <CNNscore>
0.1952261925

> <CNNaffinity>
5.7396545410

> <CNN_VS>
1.1205308437

> <CNNaffinity_variance>
0.1888879836

$$$$
[H]OC(=O)[C@@]([H])(OC([H])([H])c1c([H])c([H])c(-c2c([H])c([H])c([H])c([H])c2[H])c([H])c1[H])[C@@]([H])(C(=O)O[H])N([H])[H]


 27 28  0  0  0  0  0  0  0  0999 V2000
   32.9073  -20.8764   35.0211 O   0  0  0  0  0  0  0  0  0  0  0  0
   31.5994  -21.3601   34.8530 C   0  0  0  0  0  0  0  0  0  0  0  0
   30.1840  -23.2581   35.1218 N   0  0  0  0  0  0  0  0  0  0  0  0
   31.6058  -22.8741   34.8814 C   0  0  0  0  0  0  0  0  0  0  0  0
   29.6134  -23.0044   34.2909 H   0  0  0  0  0  0  0  0  0  0  0  0
   29.8370  -22.7897   35.9659 H   0  0  0  0  0  0  0  0  0  0  0  0
   32.4169  -23.4681   35.9393 C   0  0  0  0  0  0  0  0  0  0  0  0
   33.7873  -23.3426   36.0303 O   0  0  0  0  0  0  0  0  0  0  0  0
   31.8549  -24.1515   36.8448 O   0  0  0  0  0  0  0  0  0  0  0  0
   34.4182  -23.8295   35.3974 H   0  0  0  0  0  0  0  0  0  0  0  0
   30.7499  -20.6946   35.8192 C   0  0  0  0  0  0  0  0  0  0  0  0
   30.0876  -19.5014   35.4663 O   0  0  0  0  0  0  0  0  0  0  0  0
   30.5271  -21.0778   36.9869 O   0  0  0  0  0  0  0  0  0  0  0  0
   29.1202  -19.5344   35.1283 H   0  0  0  0  0  0  0  0  0  0  0  0
   33.3187  -20.0771   33.9778 C   0  0  0  0  0  0  0  0  0  0  0  0
   33.9939  -18.8839   34.5844 C   0  0  0  0  0  0  0  0  0  0  0  0
   35.3543  -18.7962   34.6882 C   0  0  0  0  0  0  0  0  0  0  0  0
   35.9006  -17.6647   35.2596 C   0  0  0  0  0  0  0  0  0  0  0  0
   35.1207  -16.6164   35.7311 C   0  0  0  0  0  0  0  0  0  0  0  0
   33.7573  -16.7284   35.6154 C   0  0  0  0  0  0  0  0  0  0  0  0
   33.2004  -17.8435   35.0514 C   0  0  0  0  0  0  0  0  0  0  0  0
   35.7679  -15.4500   36.3246 C   0  0  0  0  0  0  0  0  0  0  0  0
   35.3170  -14.1882   36.0191 C   0  0  0  0  0  0  0  0  0  0  0  0
   35.9120  -13.0771   36.5670 C   0  0  0  0  0  0  0  0  0  0  0  0
   36.9772  -13.2281   37.4363 C   0  0  0  0  0  0  0  0  0  0  0  0
   37.4367  -14.4741   37.7496 C   0  0  0  0  0  0  0  0  0  0  0  0
   36.8385  -15.5776   37.1995 C   0  0  0  0  0  0  0  0  0  0  0  0
  3  4  1  0  0  0
  4  2  1  0  0  0
  2  1  1  0  0  0
  1 15  1  0  0  0
 15 16  1  0  0  0
 16 17  2  0  0  0
 17 18  1  0  0  0
 18 19  2  0  0  0
 19 20  1  0  0  0
 20 21  2  0  0  0
 19 22  1  0  0  0
 22 23  2  0  0  0
 23 24  1  0  0  0
 24 25  2  0  0  0
 25 26  1  0  0  0
 26 27  2  0  0  0
  2 11  1  0  0  0
 11 12  1  0  0  0
 11 13  2  0  0  0
  4  7  1  0  0  0
  7  8  1  0  0  0
  7  9  2  0  0  0
 21 16  1  0  0  0
 27 22  1  0  0  0
  3  5  1  0  0  0
  3  6  1  0  0  0
 12 14  1  0  0  0
  8 10  1  0  0  0
M  END
> <minimizedAffinity>
-6.66852

> <CNNscore>
0.4691820443

> <CNNaffinity>
3.8677153587

> <CNN_VS>
1.8146625757

> <CNNaffinity_variance>
0.5166403651

$$$$
[H]OC(=O)[C@@]([H])(OC([H])([H])c1c([H])c([H])c(-c2c([H])c([H])c([H])c([H])c2[H])c([H])c1[H])[C@@]([H])(C(=O)O[H])N([H])[H]


 27 28  0  0  0  0  0  0  0  0999 V2000
   36.7088  -19.2340   37.2194 O   0  0  0  0  0  0  0  0  0  0  0  0
   35.9864  -20.4385   37.2389 C   0  0  0  0  0  0  0  0  0  0  0  0
   37.6673  -20.9091   38.8610 N   0  0  0  0  0  0  0  0  0  0  0  0
   36.8590  -21.5502   37.7828 C   0  0  0  0  0  0  0  0  0  0  0  0
   37.0427  -20.6440   39.6485 H   0  0  0  0  0  0  0  0  0  0  0  0
   38.1573  -20.0898   38.4856 H   0  0  0  0  0  0  0  0  0  0  0  0
   37.7826  -22.1380   36.8178 C   0  0  0  0  0  0  0  0  0  0  0  0
   37.4701  -23.1941   35.9877 O   0  0  0  0  0  0  0  0  0  0  0  0
   38.9551  -21.6719   36.7152 O   0  0  0  0  0  0  0  0  0  0  0  0
   37.3713  -24.1451   36.3363 H   0  0  0  0  0  0  0  0  0  0  0  0
   34.7352  -20.1972   37.9276 C   0  0  0  0  0  0  0  0  0  0  0  0
   34.7323  -19.9763   39.3198 O   0  0  0  0  0  0  0  0  0  0  0  0
   33.6032  -20.1609   37.4010 O   0  0  0  0  0  0  0  0  0  0  0  0
   34.7400  -19.0184   39.6854 H   0  0  0  0  0  0  0  0  0  0  0  0
   36.6118  -18.5733   36.0150 C   0  0  0  0  0  0  0  0  0  0  0  0
   36.0116  -17.2300   36.3034 C   0  0  0  0  0  0  0  0  0  0  0  0
   34.8456  -16.8173   35.7210 C   0  0  0  0  0  0  0  0  0  0  0  0
   34.3571  -15.5657   36.0375 C   0  0  0  0  0  0  0  0  0  0  0  0
   35.0054  -14.7140   36.9228 C   0  0  0  0  0  0  0  0  0  0  0  0
   36.1745  -15.1515   37.4945 C   0  0  0  0  0  0  0  0  0  0  0  0
   36.6717  -16.3895   37.1911 C   0  0  0  0  0  0  0  0  0  0  0  0
   34.4302  -13.4032   37.2101 C   0  0  0  0  0  0  0  0  0  0  0  0
   34.9922  -12.2748   36.6626 C   0  0  0  0  0  0  0  0  0  0  0  0
   34.4661  -11.0316   36.9201 C   0  0  0  0  0  0  0  0  0  0  0  0
   33.3584  -10.9120   37.7397 C   0  0  0  0  0  0  0  0  0  0  0  0
   32.7890  -12.0227   38.2911 C   0  0  0  0  0  0  0  0  0  0  0  0
   33.3189  -13.2594   38.0298 C   0  0  0  0  0  0  0  0  0  0  0  0
  3  4  1  0  0  0
  4  2  1  0  0  0
  2  1  1  0  0  0
  1 15  1  0  0  0
 15 16  1  0  0  0
 16 17  2  0  0  0
 17 18  1  0  0  0
 18 19  2  0  0  0
 19 20  1  0  0  0
 20 21  2  0  0  0
 19 22  1  0  0  0
 22 23  2  0  0  0
 23 24  1  0  0  0
 24 25  2  0  0  0
 25 26  1  0  0  0
 26 27  2  0  0  0
  2 11  1  0  0  0
 11 12  1  0  0  0
 11 13  2  0  0  0
  4  7  1  0  0  0
  7  8  1  0  0  0
  7  9  2  0  0  0
 21 16  1  0  0  0
 27 22  1  0  0  0
  3  5  1  0  0  0
  3  6  1  0  0  0
 12 14  1  0  0  0
  8 10  1  0  0  0
M  END
> <minimizedAffinity>
-6.34708

> <CNNscore>
0.3064519167

> <CNNaffinity>
3.6911442280

> <CNN_VS>
1.1311582327

> <CNNaffinity_variance>
0.4753424525

$$$$
[H]OC(=O)[C@@]([H])(OC([H])([H])c1c([H])c([H])c(-c2c([H])c([H])c([H])c([H])c2[H])c([H])c1[H])[C@@]([H])(C(=O)O[H])N([H])[H]


 27 28  0  0  0  0  0  0  0  0999 V2000
   32.6307  -12.7289   37.3923 O   0  0  0  0  0  0  0  0  0  0  0  0
   31.8105  -11.8997   38.1750 C   0  0  0  0  0  0  0  0  0  0  0  0
   31.4468   -9.9524   36.8508 N   0  0  0  0  0  0  0  0  0  0  0  0
   30.7863  -11.2146   37.2948 C   0  0  0  0  0  0  0  0  0  0  0  0
   32.2388  -10.1820   36.2179 H   0  0  0  0  0  0  0  0  0  0  0  0
   31.7684   -9.4238   37.6689 H   0  0  0  0  0  0  0  0  0  0  0  0
   29.5384  -10.8583   37.9623 C   0  0  0  0  0  0  0  0  0  0  0  0
   29.4520  -10.0077   39.0444 O   0  0  0  0  0  0  0  0  0  0  0  0
   28.4481  -11.3486   37.5458 O   0  0  0  0  0  0  0  0  0  0  0  0
   29.7656  -10.2807   39.9733 H   0  0  0  0  0  0  0  0  0  0  0  0
   31.2983  -12.6896   39.2758 C   0  0  0  0  0  0  0  0  0  0  0  0
   31.9187  -12.6166   40.5395 O   0  0  0  0  0  0  0  0  0  0  0  0
   30.3211  -13.4660   39.2292 O   0  0  0  0  0  0  0  0  0  0  0  0
   31.5497  -11.9806   41.2541 H   0  0  0  0  0  0  0  0  0  0  0  0
   33.9721  -12.4709   37.5674 C   0  0  0  0  0  0  0  0  0  0  0  0
   34.7118  -13.6990   37.1289 C   0  0  0  0  0  0  0  0  0  0  0  0
   36.0384  -13.8826   37.4038 C   0  0  0  0  0  0  0  0  0  0  0  0
   36.6487  -15.0405   36.9655 C   0  0  0  0  0  0  0  0  0  0  0  0
   35.9660  -16.0217   36.2581 C   0  0  0  0  0  0  0  0  0  0  0  0
   34.6347  -15.8139   35.9946 C   0  0  0  0  0  0  0  0  0  0  0  0
   34.0152  -14.6714   36.4223 C   0  0  0  0  0  0  0  0  0  0  0  0
   36.6768  -17.2213   35.8254 C   0  0  0  0  0  0  0  0  0  0  0  0
   36.6651  -17.5825   34.4994 C   0  0  0  0  0  0  0  0  0  0  0  0
   37.3279  -18.7077   34.0713 C   0  0  0  0  0  0  0  0  0  0  0  0
   38.0153  -19.4874   34.9837 C   0  0  0  0  0  0  0  0  0  0  0  0
   38.0365  -19.1424   36.3037 C   0  0  0  0  0  0  0  0  0  0  0  0
   37.3733  -18.0189   36.7235 C   0  0  0  0  0  0  0  0  0  0  0  0
  3  4  1  0  0  0
  4  2  1  0  0  0
  2  1  1  0  0  0
  1 15  1  0  0  0
 15 16  1  0  0  0
 16 17  2  0  0  0
 17 18  1  0  0  0
 18 19  2  0  0  0
 19 20  1  0  0  0
 20 21  2  0  0  0
 19 22  1  0  0  0
 22 23  2  0  0  0
 23 24  1  0  0  0
 24 25  2  0  0  0
 25 26  1  0  0  0
 26 27  2  0  0  0
  2 11  1  0  0  0
 11 12  1  0  0  0
 11 13  2  0  0  0
  4  7  1  0  0  0
  7  8  1  0  0  0
  7  9  2  0  0  0
 21 16  1  0  0  0
 27 22  1  0  0  0
  3  5  1  0  0  0
  3  6  1  0  0  0
 12 14  1  0  0  0
  8 10  1  0  0  0
M  END
> <minimizedAffinity>
-7.87256

> <CNNscore>
0.2668220997

> <CNNaffinity>
4.0523920059

> <CNN_VS>
1.0812677145

> <CNNaffinity_variance>
0.7859424949

$$$$
[H]OC(=O)[C@@]([H])(OC([H])([H])c1c([H])c([H])c(-c2c([H])c([H])c([H])c([H])c2[H])c([H])c1[H])[C@@]([H])(C(=O)O[H])N([H])[H]


 27 28  0  0  0  0  0  0  0  0999 V2000
   34.7993  -12.5101   37.3245 O   0  0  0  0  0  0  0  0  0  0  0  0
   33.6199  -11.8334   36.9722 C   0  0  0  0  0  0  0  0  0  0  0  0
   32.0873  -13.1745   35.7349 N   0  0  0  0  0  0  0  0  0  0  0  0
   32.4323  -12.7603   37.1264 C   0  0  0  0  0  0  0  0  0  0  0  0
   32.8492  -13.7701   35.3538 H   0  0  0  0  0  0  0  0  0  0  0  0
   31.9415  -12.3428   35.1523 H   0  0  0  0  0  0  0  0  0  0  0  0
   31.2470  -12.1509   37.7210 C   0  0  0  0  0  0  0  0  0  0  0  0
   30.9218  -12.2293   39.0589 O   0  0  0  0  0  0  0  0  0  0  0  0
   30.4444  -11.5047   36.9856 O   0  0  0  0  0  0  0  0  0  0  0  0
   30.5816  -13.0895   39.4833 H   0  0  0  0  0  0  0  0  0  0  0  0
   33.5779  -10.5923   37.7178 C   0  0  0  0  0  0  0  0  0  0  0  0
   33.4421  -10.6212   39.1205 O   0  0  0  0  0  0  0  0  0  0  0  0
   33.6523   -9.4431   37.2340 O   0  0  0  0  0  0  0  0  0  0  0  0
   34.2752  -10.5693   39.7159 H   0  0  0  0  0  0  0  0  0  0  0  0
   35.4770  -13.0046   36.2324 C   0  0  0  0  0  0  0  0  0  0  0  0
   35.6959  -14.4666   36.4821 C   0  0  0  0  0  0  0  0  0  0  0  0
   34.8733  -15.4228   35.9548 C   0  0  0  0  0  0  0  0  0  0  0  0
   35.1408  -16.7484   36.2312 C   0  0  0  0  0  0  0  0  0  0  0  0
   36.2115  -17.1439   37.0228 C   0  0  0  0  0  0  0  0  0  0  0  0
   37.0229  -16.1649   37.5405 C   0  0  0  0  0  0  0  0  0  0  0  0
   36.7711  -14.8464   37.2758 C   0  0  0  0  0  0  0  0  0  0  0  0
   36.4333  -18.5651   37.2733 C   0  0  0  0  0  0  0  0  0  0  0  0
   37.4931  -19.2072   36.6788 C   0  0  0  0  0  0  0  0  0  0  0  0
   37.7197  -20.5442   36.9016 C   0  0  0  0  0  0  0  0  0  0  0  0
   36.8726  -21.2540   37.7332 C   0  0  0  0  0  0  0  0  0  0  0  0
   35.8159  -20.6311   38.3308 C   0  0  0  0  0  0  0  0  0  0  0  0
   35.5961  -19.2974   38.1042 C   0  0  0  0  0  0  0  0  0  0  0  0
  3  4  1  0  0  0
  4  2  1  0  0  0
  2  1  1  0  0  0
  1 15  1  0  0  0
 15 16  1  0  0  0
 16 17  2  0  0  0
 17 18  1  0  0  0
 18 19  2  0  0  0
 19 20  1  0  0  0
 20 21  2  0  0  0
 19 22  1  0  0  0
 22 23  2  0  0  0
 23 24  1  0  0  0
 24 25  2  0  0  0
 25 26  1  0  0  0
 26 27  2  0  0  0
  2 11  1  0  0  0
 11 12  1  0  0  0
 11 13  2  0  0  0
  4  7  1  0  0  0
  7  8  1  0  0  0
  7  9  2  0  0  0
 21 16  1  0  0  0
 27 22  1  0  0  0
  3  5  1  0  0  0
  3  6  1  0  0  0
 12 14  1  0  0  0
  8 10  1  0  0  0
M  END
> <minimizedAffinity>
-6.30785

> <CNNscore>
0.2429936528

> <CNNaffinity>
4.1294970512

> <CNN_VS>
1.0034415722

> <CNNaffinity_variance>
0.3400458694

$$$$
[H]OC(=O)[C@@]([H])(OC([H])([H])c1c([H])c([H])c(-c2c([H])c([H])c([H])c([H])c2[H])c([H])c1[H])[C@@]([H])(C(=O)O[H])N([H])[H]


 27 28  0  0  0  0  0  0  0  0999 V2000
   36.6438  -18.7409   37.1688 O   0  0  0  0  0  0  0  0  0  0  0  0
   36.2627  -19.8777   36.4370 C   0  0  0  0  0  0  0  0  0  0  0  0
   36.1426  -22.2130   36.8951 N   0  0  0  0  0  0  0  0  0  0  0  0
   37.0970  -21.0663   36.8662 C   0  0  0  0  0  0  0  0  0  0  0  0
   35.8369  -22.4314   35.9259 H   0  0  0  0  0  0  0  0  0  0  0  0
   35.3413  -21.9814   37.4923 H   0  0  0  0  0  0  0  0  0  0  0  0
   37.7011  -20.9507   38.1897 C   0  0  0  0  0  0  0  0  0  0  0  0
   38.9732  -20.4722   38.4235 O   0  0  0  0  0  0  0  0  0  0  0  0
   37.0402  -21.3082   39.2085 O   0  0  0  0  0  0  0  0  0  0  0  0
   39.8049  -21.0104   38.1903 H   0  0  0  0  0  0  0  0  0  0  0  0
   34.8252  -20.0179   36.5468 C   0  0  0  0  0  0  0  0  0  0  0  0
   34.0641  -20.3505   35.4079 O   0  0  0  0  0  0  0  0  0  0  0  0
   34.1512  -19.8701   37.5879 O   0  0  0  0  0  0  0  0  0  0  0  0
   33.8164  -21.3288   35.2265 H   0  0  0  0  0  0  0  0  0  0  0  0
   37.1672  -17.7456   36.3739 C   0  0  0  0  0  0  0  0  0  0  0  0
   36.3650  -16.5079   36.6425 C   0  0  0  0  0  0  0  0  0  0  0  0
   36.7960  -15.5378   37.5041 C   0  0  0  0  0  0  0  0  0  0  0  0
   35.9998  -14.4273   37.6988 C   0  0  0  0  0  0  0  0  0  0  0  0
   34.7812  -14.2608   37.0532 C   0  0  0  0  0  0  0  0  0  0  0  0
   34.3704  -15.2488   36.1930 C   0  0  0  0  0  0  0  0  0  0  0  0
   35.1483  -16.3558   35.9892 C   0  0  0  0  0  0  0  0  0  0  0  0
   33.9912  -13.0597   37.3083 C   0  0  0  0  0  0  0  0  0  0  0  0
   34.5575  -11.8193   37.1363 C   0  0  0  0  0  0  0  0  0  0  0  0
   33.8314  -10.6763   37.3707 C   0  0  0  0  0  0  0  0  0  0  0  0
   32.5152  -10.7729   37.7847 C   0  0  0  0  0  0  0  0  0  0  0  0
   31.9385  -11.9971   37.9602 C   0  0  0  0  0  0  0  0  0  0  0  0
   32.6687  -13.1327   37.7245 C   0  0  0  0  0  0  0  0  0  0  0  0
  3  4  1  0  0  0
  4  2  1  0  0  0
  2  1  1  0  0  0
  1 15  1  0  0  0
 15 16  1  0  0  0
 16 17  2  0  0  0
 17 18  1  0  0  0
 18 19  2  0  0  0
 19 20  1  0  0  0
 20 21  2  0  0  0
 19 22  1  0  0  0
 22 23  2  0  0  0
 23 24  1  0  0  0
 24 25  2  0  0  0
 25 26  1  0  0  0
 26 27  2  0  0  0
  2 11  1  0  0  0
 11 12  1  0  0  0
 11 13  2  0  0  0
  4  7  1  0  0  0
  7  8  1  0  0  0
  7  9  2  0  0  0
 21 16  1  0  0  0
 27 22  1  0  0  0
  3  5  1  0  0  0
  3  6  1  0  0  0
 12 14  1  0  0  0
  8 10  1  0  0  0
M  END
> <minimizedAffinity>
-6.40203

> <CNNscore>
0.2396508604

> <CNNaffinity>
3.7187721729

> <CNN_VS>
0.8912069798

> <CNNaffinity_variance>
0.4988165796

$$$$
[H]OC(=O)[C@@]([H])(OC([H])([H])c1c([H])c([H])c(-c2c([H])c([H])c([H])c([H])c2[H])c([H])c1[H])[C@@]([H])(C(=O)O[H])N([H])[H]


 27 28  0  0  0  0  0  0  0  0999 V2000
   36.9283  -17.3293   36.0711 O   0  0  0  0  0  0  0  0  0  0  0  0
   36.7991  -18.5514   35.3908 C   0  0  0  0  0  0  0  0  0  0  0  0
   37.6323  -19.9402   33.6430 N   0  0  0  0  0  0  0  0  0  0  0  0
   37.9929  -18.7608   34.4830 C   0  0  0  0  0  0  0  0  0  0  0  0
   36.8498  -19.6848   33.0082 H   0  0  0  0  0  0  0  0  0  0  0  0
   37.3767  -20.7296   34.2462 H   0  0  0  0  0  0  0  0  0  0  0  0
   39.2447  -19.0636   35.1695 C   0  0  0  0  0  0  0  0  0  0  0  0
   39.7334  -18.3504   36.2439 O   0  0  0  0  0  0  0  0  0  0  0  0
   39.9515  -20.0365   34.7738 O   0  0  0  0  0  0  0  0  0  0  0  0
   40.1212  -17.4151   36.1408 H   0  0  0  0  0  0  0  0  0  0  0  0
   36.5396  -19.5837   36.3732 C   0  0  0  0  0  0  0  0  0  0  0  0
   35.5385  -20.5462   36.1312 O   0  0  0  0  0  0  0  0  0  0  0  0
   37.1319  -19.7240   37.4639 O   0  0  0  0  0  0  0  0  0  0  0  0
   35.7895  -21.4539   35.7256 H   0  0  0  0  0  0  0  0  0  0  0  0
   35.8865  -17.0894   36.9393 C   0  0  0  0  0  0  0  0  0  0  0  0
   35.5817  -15.6238   36.8579 C   0  0  0  0  0  0  0  0  0  0  0  0
   34.4494  -15.1516   36.2544 C   0  0  0  0  0  0  0  0  0  0  0  0
   34.2403  -13.7877   36.2197 C   0  0  0  0  0  0  0  0  0  0  0  0
   35.1354  -12.8815   36.7737 C   0  0  0  0  0  0  0  0  0  0  0  0
   36.2648  -13.3805   37.3740 C   0  0  0  0  0  0  0  0  0  0  0  0
   36.4867  -14.7299   37.4166 C   0  0  0  0  0  0  0  0  0  0  0  0
   34.8490  -11.4518   36.6992 C   0  0  0  0  0  0  0  0  0  0  0  0
   33.8507  -10.9129   37.4750 C   0  0  0  0  0  0  0  0  0  0  0  0
   33.5653   -9.5697   37.4201 C   0  0  0  0  0  0  0  0  0  0  0  0
   34.2895   -8.7487   36.5748 C   0  0  0  0  0  0  0  0  0  0  0  0
   35.2837   -9.2685   35.7980 C   0  0  0  0  0  0  0  0  0  0  0  0
   35.5629  -10.6089   35.8580 C   0  0  0  0  0  0  0  0  0  0  0  0
  3  4  1  0  0  0
  4  2  1  0  0  0
  2  1  1  0  0  0
  1 15  1  0  0  0
 15 16  1  0  0  0
 16 17  2  0  0  0
 17 18  1  0  0  0
 18 19  2  0  0  0
 19 20  1  0  0  0
 20 21  2  0  0  0
 19 22  1  0  0  0
 22 23  2  0  0  0
 23 24  1  0  0  0
 24 25  2  0  0  0
 25 26  1  0  0  0
 26 27  2  0  0  0
  2 11  1  0  0  0
 11 12  1  0  0  0
 11 13  2  0  0  0
  4  7  1  0  0  0
  7  8  1  0  0  0
  7  9  2  0  0  0
 21 16  1  0  0  0
 27 22  1  0  0  0
  3  5  1  0  0  0
  3  6  1  0  0  0
 12 14  1  0  0  0
  8 10  1  0  0  0
M  END
> <minimizedAffinity>
-7.04362

> <CNNscore>
0.2129315585

> <CNNaffinity>
3.7531638145

> <CNN_VS>
0.7991670370

> <CNNaffinity_variance>
0.6341857314

$$$$
[H]OC(=O)[C@@]([H])(OC([H])([H])c1c([H])c([H])c(-c2c([H])c([H])c([H])c([H])c2[H])c([H])c1[H])[C@@]([H])(C(=O)O[H])N([H])[H]


 27 28  0  0  0  0  0  0  0  0999 V2000
   34.2905  -12.1241   37.7104 O   0  0  0  0  0  0  0  0  0  0  0  0
   33.1107  -11.4359   38.0382 C   0  0  0  0  0  0  0  0  0  0  0  0
   34.2160   -9.6023   36.9921 N   0  0  0  0  0  0  0  0  0  0  0  0
   32.8964  -10.2950   37.0658 C   0  0  0  0  0  0  0  0  0  0  0  0
   34.9075  -10.2263   36.5308 H   0  0  0  0  0  0  0  0  0  0  0  0
   34.5237   -9.3427   37.9357 H   0  0  0  0  0  0  0  0  0  0  0  0
   31.8961   -9.3145   37.4755 C   0  0  0  0  0  0  0  0  0  0  0  0
   30.6806   -9.6356   38.0424 O   0  0  0  0  0  0  0  0  0  0  0  0
   32.1292   -8.0814   37.3093 O   0  0  0  0  0  0  0  0  0  0  0  0
   29.9235  -10.0479   37.5014 H   0  0  0  0  0  0  0  0  0  0  0  0
   32.0425  -12.4081   38.1467 C   0  0  0  0  0  0  0  0  0  0  0  0
   31.0396  -12.4611   37.1575 O   0  0  0  0  0  0  0  0  0  0  0  0
   31.9032  -13.2458   39.0626 O   0  0  0  0  0  0  0  0  0  0  0  0
   31.1222  -13.1254   36.3809 H   0  0  0  0  0  0  0  0  0  0  0  0
   34.2340  -12.7184   36.4694 C   0  0  0  0  0  0  0  0  0  0  0  0
   34.8028  -14.0972   36.6215 C   0  0  0  0  0  0  0  0  0  0  0  0
   34.2474  -15.1824   36.0027 C   0  0  0  0  0  0  0  0  0  0  0  0
   34.8294  -16.4195   36.1926 C   0  0  0  0  0  0  0  0  0  0  0  0
   35.9546  -16.6004   36.9867 C   0  0  0  0  0  0  0  0  0  0  0  0
   36.4937  -15.4951   37.5972 C   0  0  0  0  0  0  0  0  0  0  0  0
   35.9285  -14.2620   37.4190 C   0  0  0  0  0  0  0  0  0  0  0  0
   36.5163  -17.9390   37.1426 C   0  0  0  0  0  0  0  0  0  0  0  0
   37.7449  -18.2327   36.6012 C   0  0  0  0  0  0  0  0  0  0  0  0
   38.2915  -19.4863   36.7368 C   0  0  0  0  0  0  0  0  0  0  0  0
   37.5988  -20.4655   37.4255 C   0  0  0  0  0  0  0  0  0  0  0  0
   36.3779  -20.1898   37.9688 C   0  0  0  0  0  0  0  0  0  0  0  0
   35.8390  -18.9374   37.8298 C   0  0  0  0  0  0  0  0  0  0  0  0
  3  4  1  0  0  0
  4  2  1  0  0  0
  2  1  1  0  0  0
  1 15  1  0  0  0
 15 16  1  0  0  0
 16 17  2  0  0  0
 17 18  1  0  0  0
 18 19  2  0  0  0
 19 20  1  0  0  0
 20 21  2  0  0  0
 19 22  1  0  0  0
 22 23  2  0  0  0
 23 24  1  0  0  0
 24 25  2  0  0  0
 25 26  1  0  0  0
 26 27  2  0  0  0
  2 11  1  0  0  0
 11 12  1  0  0  0
 11 13  2  0  0  0
  4  7  1  0  0  0
  7  8  1  0  0  0
  7  9  2  0  0  0
 21 16  1  0  0  0
 27 22  1  0  0  0
  3  5  1  0  0  0
  3  6  1  0  0  0
 12 14  1  0  0  0
  8 10  1  0  0  0
M  END
> <minimizedAffinity>
-7.05982

> <CNNscore>
0.1980880648

> <CNNaffinity>
4.0455455780

> <CNN_VS>
0.8013743162

> <CNNaffinity_variance>
0.6051534414

$$$$
[H]OC(=O)[C@@]([H])(OC([H])([H])c1c([H])c([H])c(-c2c([H])c([H])c([H])c([H])c2[H])c([H])c1[H])[C@@]([H])(C(=O)O[H])N([H])[H]


 27 28  0  0  0  0  0  0  0  0999 V2000
   32.8216  -13.4617   38.0640 O   0  0  0  0  0  0  0  0  0  0  0  0
   32.0358  -12.4809   38.6912 C   0  0  0  0  0  0  0  0  0  0  0  0
   31.5231  -12.4234   36.3649 N   0  0  0  0  0  0  0  0  0  0  0  0
   31.2305  -11.7286   37.6527 C   0  0  0  0  0  0  0  0  0  0  0  0
   31.1129  -13.3782   36.3876 H   0  0  0  0  0  0  0  0  0  0  0  0
   32.5371  -12.4600   36.2141 H   0  0  0  0  0  0  0  0  0  0  0  0
   31.5865  -10.3220   37.4956 C   0  0  0  0  0  0  0  0  0  0  0  0
   32.8689   -9.8656   37.2746 O   0  0  0  0  0  0  0  0  0  0  0  0
   30.6812   -9.4397   37.5649 O   0  0  0  0  0  0  0  0  0  0  0  0
   33.5779   -9.8700   38.0048 H   0  0  0  0  0  0  0  0  0  0  0  0
   31.2898  -13.1202   39.7556 C   0  0  0  0  0  0  0  0  0  0  0  0
   30.2652  -14.0360   39.4415 O   0  0  0  0  0  0  0  0  0  0  0  0
   31.4605  -12.9430   40.9801 O   0  0  0  0  0  0  0  0  0  0  0  0
   30.4661  -15.0413   39.4231 H   0  0  0  0  0  0  0  0  0  0  0  0
   34.1131  -13.0431   37.8330 C   0  0  0  0  0  0  0  0  0  0  0  0
   34.8698  -14.2311   37.3195 C   0  0  0  0  0  0  0  0  0  0  0  0
   36.1319  -14.5289   37.7525 C   0  0  0  0  0  0  0  0  0  0  0  0
   36.7630  -15.6403   37.2313 C   0  0  0  0  0  0  0  0  0  0  0  0
   36.1641  -16.4635   36.2863 C   0  0  0  0  0  0  0  0  0  0  0  0
   34.8964  -16.1434   35.8675 C   0  0  0  0  0  0  0  0  0  0  0  0
   34.2574  -15.0451   36.3746 C   0  0  0  0  0  0  0  0  0  0  0  0
   36.8924  -17.6227   35.7786 C   0  0  0  0  0  0  0  0  0  0  0  0
   37.5552  -18.4506   36.6527 C   0  0  0  0  0  0  0  0  0  0  0  0
   38.2463  -19.5470   36.1954 C   0  0  0  0  0  0  0  0  0  0  0  0
   38.2768  -19.8222   34.8403 C   0  0  0  0  0  0  0  0  0  0  0  0
   37.6239  -19.0098   33.9597 C   0  0  0  0  0  0  0  0  0  0  0  0
   36.9366  -17.9182   34.4227 C   0  0  0  0  0  0  0  0  0  0  0  0
  3  4  1  0  0  0
  4  2  1  0  0  0
  2  1  1  0  0  0
  1 15  1  0  0  0
 15 16  1  0  0  0
 16 17  2  0  0  0
 17 18  1  0  0  0
 18 19  2  0  0  0
 19 20  1  0  0  0
 20 21  2  0  0  0
 19 22  1  0  0  0
 22 23  2  0  0  0
 23 24  1  0  0  0
 24 25  2  0  0  0
 25 26  1  0  0  0
 26 27  2  0  0  0
  2 11  1  0  0  0
 11 12  1  0  0  0
 11 13  2  0  0  0
  4  7  1  0  0  0
  7  8  1  0  0  0
  7  9  2  0  0  0
 21 16  1  0  0  0
 27 22  1  0  0  0
  3  5  1  0  0  0
  3  6  1  0  0  0
 12 14  1  0  0  0
  8 10  1  0  0  0
M  END
> <minimizedAffinity>
-7.60763

> <CNNscore>
0.1973880082

> <CNNaffinity>
4.0337238312

> <CNN_VS>
0.7962087393

> <CNNaffinity_variance>
0.5618528128

$$$$
[H]OC(=O)[C@@]([H])(OC([H])([H])c1c([H])c([H])c(-c2c([H])c([H])c([H])c([H])c2[H])c([H])c1[H])[C@@]([H])(C(=O)O[H])N([H])[H]


 27 28  0  0  0  0  0  0  0  0999 V2000
   38.0824  -18.8239   35.4009 O   0  0  0  0  0  0  0  0  0  0  0  0
   38.4100  -19.6203   34.2911 C   0  0  0  0  0  0  0  0  0  0  0  0
   39.4127  -19.6722   32.1302 N   0  0  0  0  0  0  0  0  0  0  0  0
   39.3681  -18.8715   33.3886 C   0  0  0  0  0  0  0  0  0  0  0  0
   38.4907  -19.6164   31.6534 H   0  0  0  0  0  0  0  0  0  0  0  0
   39.6589  -20.6442   32.3469 H   0  0  0  0  0  0  0  0  0  0  0  0
   40.7314  -18.7558   33.8964 C   0  0  0  0  0  0  0  0  0  0  0  0
   41.0725  -18.1073   35.0647 O   0  0  0  0  0  0  0  0  0  0  0  0
   41.6848  -19.2714   33.2422 O   0  0  0  0  0  0  0  0  0  0  0  0
   41.0526  -17.0930   35.1459 H   0  0  0  0  0  0  0  0  0  0  0  0
   38.8512  -20.9097   34.7818 C   0  0  0  0  0  0  0  0  0  0  0  0
   38.5730  -22.0751   34.0393 O   0  0  0  0  0  0  0  0  0  0  0  0
   39.4812  -21.1152   35.8405 O   0  0  0  0  0  0  0  0  0  0  0  0
   39.2750  -22.4484   33.3918 H   0  0  0  0  0  0  0  0  0  0  0  0
   36.7673  -18.9609   35.7860 C   0  0  0  0  0  0  0  0  0  0  0  0
   36.2614  -17.5853   36.1016 C   0  0  0  0  0  0  0  0  0  0  0  0
   36.9919  -16.6963   36.8399 C   0  0  0  0  0  0  0  0  0  0  0  0
   36.4568  -15.4485   37.0883 C   0  0  0  0  0  0  0  0  0  0  0  0
   35.2076  -15.0653   36.6169 C   0  0  0  0  0  0  0  0  0  0  0  0
   34.4936  -15.9759   35.8780 C   0  0  0  0  0  0  0  0  0  0  0  0
   35.0102  -17.2168   35.6231 C   0  0  0  0  0  0  0  0  0  0  0  0
   34.7047  -13.7284   36.9193 C   0  0  0  0  0  0  0  0  0  0  0  0
   33.5964  -13.5789   37.7180 C   0  0  0  0  0  0  0  0  0  0  0  0
   33.1070  -12.3295   38.0149 C   0  0  0  0  0  0  0  0  0  0  0  0
   33.7355  -11.2079   37.5049 C   0  0  0  0  0  0  0  0  0  0  0  0
   34.8369  -11.3395   36.7103 C   0  0  0  0  0  0  0  0  0  0  0  0
   35.3195  -12.5886   36.4184 C   0  0  0  0  0  0  0  0  0  0  0  0
  3  4  1  0  0  0
  4  2  1  0  0  0
  2  1  1  0  0  0
  1 15  1  0  0  0
 15 16  1  0  0  0
 16 17  2  0  0  0
 17 18  1  0  0  0
 18 19  2  0  0  0
 19 20  1  0  0  0
 20 21  2  0  0  0
 19 22  1  0  0  0
 22 23  2  0  0  0
 23 24  1  0  0  0
 24 25  2  0  0  0
 25 26  1  0  0  0
 26 27  2  0  0  0
  2 11  1  0  0  0
 11 12  1  0  0  0
 11 13  2  0  0  0
  4  7  1  0  0  0
  7  8  1  0  0  0
  7  9  2  0  0  0
 21 16  1  0  0  0
 27 22  1  0  0  0
  3  5  1  0  0  0
  3  6  1  0  0  0
 12 14  1  0  0  0
  8 10  1  0  0  0
M  END
> <minimizedAffinity>
-7.14534

> <CNNscore>
0.1875938922

> <CNNaffinity>
3.7055339813

> <CNN_VS>
0.6951355338

> <CNNaffinity_variance>
0.7359035611

$$$$
[H]c1c([H])c([H])c(-c2nc(C([H])([H])C3([H])C([H])([H])C([H])([H])C([H])([H])C([H])([H])C3([H])[H])c(-c3c([H])c([H])c(S(=O)(=O)N([H])[C@@]([H])(C([H])([H])[H])C(F)(F)F)c4c([H])c([H])c([H])c([H])c34)s2)c([H])c1[H]


 39 43  0  0  0  0  0  0  0  0999 V2000
   33.9031  -14.1057   36.7604 C   0  0  0  0  0  0  0  0  0  0  0  0
   33.3253  -15.2140   36.1697 C   0  0  0  0  0  0  0  0  0  0  0  0
   34.0301  -16.3179   35.8240 C   0  0  0  0  0  0  0  0  0  0  0  0
   35.4185  -16.3760   36.0607 C   0  0  0  0  0  0  0  0  0  0  0  0
   36.0271  -15.3080   36.6449 C   0  0  0  0  0  0  0  0  0  0  0  0
   37.3700  -15.3576   36.9474 C   0  0  0  0  0  0  0  0  0  0  0  0
   37.9691  -14.2988   37.5803 C   0  0  0  0  0  0  0  0  0  0  0  0
   37.2465  -13.1761   37.9239 C   0  0  0  0  0  0  0  0  0  0  0  0
   35.9014  -13.1505   37.6147 C   0  0  0  0  0  0  0  0  0  0  0  0
   35.2661  -14.1860   36.9866 C   0  0  0  0  0  0  0  0  0  0  0  0
   36.0521  -17.6378   35.7142 C   0  0  0  0  0  0  0  0  0  0  0  0
   37.5984  -17.7492   34.8700 S   0  0  0  0  0  0  0  0  0  0  0  0
   37.7609  -19.4354   34.8779 C   0  0  0  0  0  0  0  0  0  0  0  0
   36.6901  -19.8197   35.4927 N   0  0  0  0  0  0  0  0  0  0  0  0
   35.8019  -18.9513   35.9345 C   0  0  0  0  0  0  0  0  0  0  0  0
   38.8577  -20.2319   34.3165 C   0  0  0  0  0  0  0  0  0  0  0  0
   38.9744  -21.5594   34.6298 C   0  0  0  0  0  0  0  0  0  0  0  0
   40.0002  -22.3444   34.1155 C   0  0  0  0  0  0  0  0  0  0  0  0
   40.9257  -21.7944   33.2732 C   0  0  0  0  0  0  0  0  0  0  0  0
   40.8197  -20.4595   32.9494 C   0  0  0  0  0  0  0  0  0  0  0  0
   39.7826  -19.6717   33.4715 C   0  0  0  0  0  0  0  0  0  0  0  0
   34.6815  -19.5295   36.7793 C   0  0  0  0  0  0  0  0  0  0  0  0
   33.3863  -19.6614   36.0632 C   0  0  0  0  0  0  0  0  0  0  0  0
   32.4331  -20.6860   36.5275 C   0  0  0  0  0  0  0  0  0  0  0  0
   31.1267  -20.5420   35.7864 C   0  0  0  0  0  0  0  0  0  0  0  0
   31.1101  -19.3654   34.8394 C   0  0  0  0  0  0  0  0  0  0  0  0
   32.2810  -19.3496   33.9136 C   0  0  0  0  0  0  0  0  0  0  0  0
   33.5605  -19.7956   34.5603 C   0  0  0  0  0  0  0  0  0  0  0  0
   32.9430  -12.7148   37.2002 S   0  0  0  0  0  0  0  0  0  0  0  0
   32.9430  -12.6127   38.7189 O   0  0  0  0  0  0  0  0  0  0  0  0
   31.5176  -12.8652   36.7853 O   0  0  0  0  0  0  0  0  0  0  0  0
   33.6573  -11.3090   36.5209 N   0  0  0  0  0  0  0  0  0  0  0  0
   34.6508  -11.4821   36.2900 H   0  0  0  0  0  0  0  0  0  0  0  0
   34.5520   -9.0635   37.0427 C   0  0  0  0  0  0  0  0  0  0  0  0
   33.6026  -10.1785   37.4284 C   0  0  0  0  0  0  0  0  0  0  0  0
   32.2006   -9.6086   37.3727 C   0  0  0  0  0  0  0  0  0  0  0  0
   31.3830  -10.1649   38.3499 F   0  0  0  0  0  0  0  0  0  0  0  0
   32.2734   -8.2228   37.5554 F   0  0  0  0  0  0  0  0  0  0  0  0
   31.6012   -9.7896   36.1425 F   0  0  0  0  0  0  0  0  0  0  0  0
 34 35  1  0  0  0
 35 32  1  0  0  0
 32 29  1  0  0  0
 29 30  2  0  0  0
 29 31  2  0  0  0
 29  1  1  0  0  0
  1  2  2  0  0  0
  2  3  1  0  0  0
  3  4  2  0  0  0
  4 11  1  0  0  0
 11 12  1  0  0  0
 12 13  1  0  0  0
 13 14  2  0  0  0
 14 15  1  0  0  0
 15 22  1  0  0  0
 22 23  1  0  0  0
 23 24  1  0  0  0
 24 25  1  0  0  0
 25 26  1  0  0  0
 26 27  1  0  0  0
 27 28  1  0  0  0
 13 16  1  0  0  0
 16 17  2  0  0  0
 17 18  1  0  0  0
 18 19  2  0  0  0
 19 20  1  0  0  0
 20 21  2  0  0  0
  4  5  1  0  0  0
  5  6  2  0  0  0
  6  7  1  0  0  0
  7  8  2  0  0  0
  8  9  1  0  0  0
  9 10  2  0  0  0
 35 36  1  0  0  0
 36 37  1  0  0  0
 36 38  1  0  0  0
 36 39  1  0  0  0
 10  1  1  0  0  0
 15 11  2  0  0  0
 28 23  1  0  0  0
 21 16  1  0  0  0
 10  5  1  0  0  0
 32 33  1  0  0  0
M  END
> <minimizedAffinity>
-6.84774

> <CNNscore>
0.4790789187

> <CNNaffinity>
7.1831831932

> <CNN_VS>
3.4413115978

> <CNNaffinity_variance>
0.2487156093

$$$$
[H]c1c([H])c([H])c(-c2nc(C([H])([H])C3([H])C([H])([H])C([H])([H])C([H])([H])C([H])([H])C3([H])[H])c(-c3c([H])c([H])c(S(=O)(=O)N([H])[C@@]([H])(C([H])([H])[H])C(F)(F)F)c4c([H])c([H])c([H])c([H])c34)s2)c([H])c1[H]


 39 43  0  0  0  0  0  0  0  0999 V2000
   40.1310  -20.6221   38.9346 C   0  0  0  0  0  0  0  0  0  0  0  0
   39.1168  -21.2023   39.6735 C   0  0  0  0  0  0  0  0  0  0  0  0
   37.8598  -21.3697   39.1976 C   0  0  0  0  0  0  0  0  0  0  0  0
   37.5322  -20.9448   37.8941 C   0  0  0  0  0  0  0  0  0  0  0  0
   38.5024  -20.3724   37.1302 C   0  0  0  0  0  0  0  0  0  0  0  0
   38.2320  -20.0041   35.8308 C   0  0  0  0  0  0  0  0  0  0  0  0
   39.2253  -19.4728   35.0486 C   0  0  0  0  0  0  0  0  0  0  0  0
   40.5011  -19.2999   35.5418 C   0  0  0  0  0  0  0  0  0  0  0  0
   40.7499  -19.6802   36.8453 C   0  0  0  0  0  0  0  0  0  0  0  0
   39.7881  -20.2158   37.6569 C   0  0  0  0  0  0  0  0  0  0  0  0
   36.1740  -21.2430   37.4698 C   0  0  0  0  0  0  0  0  0  0  0  0
   34.9653  -20.0007   37.1359 S   0  0  0  0  0  0  0  0  0  0  0  0
   33.7051  -21.0142   36.6316 C   0  0  0  0  0  0  0  0  0  0  0  0
   34.2319  -22.1910   36.7307 N   0  0  0  0  0  0  0  0  0  0  0  0
   35.4725  -22.3561   37.1455 C   0  0  0  0  0  0  0  0  0  0  0  0
   32.3600  -20.6218   36.1966 C   0  0  0  0  0  0  0  0  0  0  0  0
   32.1761  -19.4654   35.4873 C   0  0  0  0  0  0  0  0  0  0  0  0
   30.9163  -19.0634   35.0584 C   0  0  0  0  0  0  0  0  0  0  0  0
   29.8205  -19.8297   35.3421 C   0  0  0  0  0  0  0  0  0  0  0  0
   29.9914  -20.9962   36.0549 C   0  0  0  0  0  0  0  0  0  0  0  0
   31.2653  -21.3971   36.4857 C   0  0  0  0  0  0  0  0  0  0  0  0
   36.0124  -23.7716   37.0556 C   0  0  0  0  0  0  0  0  0  0  0  0
   36.6055  -24.2774   38.3205 C   0  0  0  0  0  0  0  0  0  0  0  0
   37.5197  -25.4322   38.2501 C   0  0  0  0  0  0  0  0  0  0  0  0
   38.1393  -25.6768   39.6039 C   0  0  0  0  0  0  0  0  0  0  0  0
   37.7305  -24.6523   40.6358 C   0  0  0  0  0  0  0  0  0  0  0  0
   36.2507  -24.4763   40.7234 C   0  0  0  0  0  0  0  0  0  0  0  0
   35.5610  -24.5406   39.3914 C   0  0  0  0  0  0  0  0  0  0  0  0
   41.7389  -20.4456   39.5930 S   0  0  0  0  0  0  0  0  0  0  0  0
   42.0334  -18.9565   39.7047 O   0  0  0  0  0  0  0  0  0  0  0  0
   42.7794  -21.0170   38.6888 O   0  0  0  0  0  0  0  0  0  0  0  0
   41.7843  -21.1679   41.1500 N   0  0  0  0  0  0  0  0  0  0  0  0
   42.1900  -20.5142   41.8416 H   0  0  0  0  0  0  0  0  0  0  0  0
   43.4172  -22.5243   42.4184 C   0  0  0  0  0  0  0  0  0  0  0  0
   42.5810  -22.3802   41.1640 C   0  0  0  0  0  0  0  0  0  0  0  0
   41.6305  -23.5584   41.1248 C   0  0  0  0  0  0  0  0  0  0  0  0
   42.2120  -24.7031   41.6582 F   0  0  0  0  0  0  0  0  0  0  0  0
   40.4824  -23.2314   41.8558 F   0  0  0  0  0  0  0  0  0  0  0  0
   41.1888  -23.8435   39.8484 F   0  0  0  0  0  0  0  0  0  0  0  0
 34 35  1  0  0  0
 35 32  1  0  0  0
 32 29  1  0  0  0
 29 30  2  0  0  0
 29 31  2  0  0  0
 29  1  1  0  0  0
  1  2  2  0  0  0
  2  3  1  0  0  0
  3  4  2  0  0  0
  4 11  1  0  0  0
 11 12  1  0  0  0
 12 13  1  0  0  0
 13 14  2  0  0  0
 14 15  1  0  0  0
 15 22  1  0  0  0
 22 23  1  0  0  0
 23 24  1  0  0  0
 24 25  1  0  0  0
 25 26  1  0  0  0
 26 27  1  0  0  0
 27 28  1  0  0  0
 13 16  1  0  0  0
 16 17  2  0  0  0
 17 18  1  0  0  0
 18 19  2  0  0  0
 19 20  1  0  0  0
 20 21  2  0  0  0
  4  5  1  0  0  0
  5  6  2  0  0  0
  6  7  1  0  0  0
  7  8  2  0  0  0
  8  9  1  0  0  0
  9 10  2  0  0  0
 35 36  1  0  0  0
 36 37  1  0  0  0
 36 38  1  0  0  0
 36 39  1  0  0  0
 10  1  1  0  0  0
 15 11  2  0  0  0
 28 23  1  0  0  0
 21 16  1  0  0  0
 10  5  1  0  0  0
 32 33  1  0  0  0
M  END
> <minimizedAffinity>
-4.29040

> <CNNscore>
0.4090855718

> <CNNaffinity>
6.0780787468

> <CNN_VS>
2.4864542484

> <CNNaffinity_variance>
0.5278901458

$$$$
[H]c1c([H])c([H])c(-c2nc(C([H])([H])C3([H])C([H])([H])C([H])([H])C([H])([H])C([H])([H])C3([H])[H])c(-c3c([H])c([H])c(S(=O)(=O)N([H])[C@@]([H])(C([H])([H])[H])C(F)(F)F)c4c([H])c([H])c([H])c([H])c34)s2)c([H])c1[H]


 39 43  0  0  0  0  0  0  0  0999 V2000
   33.9627  -14.5023   36.5306 C   0  0  0  0  0  0  0  0  0  0  0  0
   33.4543  -15.6049   35.8694 C   0  0  0  0  0  0  0  0  0  0  0  0
   34.2018  -16.6929   35.5659 C   0  0  0  0  0  0  0  0  0  0  0  0
   35.5645  -16.7397   35.9235 C   0  0  0  0  0  0  0  0  0  0  0  0
   36.1047  -15.6770   36.5802 C   0  0  0  0  0  0  0  0  0  0  0  0
   37.4160  -15.7172   36.9996 C   0  0  0  0  0  0  0  0  0  0  0  0
   37.9425  -14.6648   37.7038 C   0  0  0  0  0  0  0  0  0  0  0  0
   37.1773  -13.5580   38.0040 C   0  0  0  0  0  0  0  0  0  0  0  0
   35.8646  -13.5417   37.5774 C   0  0  0  0  0  0  0  0  0  0  0  0
   35.3013  -14.5714   36.8752 C   0  0  0  0  0  0  0  0  0  0  0  0
   36.2433  -17.9865   35.6098 C   0  0  0  0  0  0  0  0  0  0  0  0
   37.7878  -18.0647   34.7588 S   0  0  0  0  0  0  0  0  0  0  0  0
   38.0138  -19.7426   34.8149 C   0  0  0  0  0  0  0  0  0  0  0  0
   36.9618  -20.1485   35.4480 N   0  0  0  0  0  0  0  0  0  0  0  0
   36.0440  -19.3014   35.8701 C   0  0  0  0  0  0  0  0  0  0  0  0
   39.1367  -20.5136   34.2697 C   0  0  0  0  0  0  0  0  0  0  0  0
   40.0793  -19.8989   33.4900 C   0  0  0  0  0  0  0  0  0  0  0  0
   41.1566  -20.5981   32.9578 C   0  0  0  0  0  0  0  0  0  0  0  0
   41.2959  -21.9346   33.2088 C   0  0  0  0  0  0  0  0  0  0  0  0
   40.3545  -22.5655   33.9922 C   0  0  0  0  0  0  0  0  0  0  0  0
   39.2688  -21.8552   34.5266 C   0  0  0  0  0  0  0  0  0  0  0  0
   34.9509  -19.8961   36.7390 C   0  0  0  0  0  0  0  0  0  0  0  0
   33.6101  -19.9176   36.0992 C   0  0  0  0  0  0  0  0  0  0  0  0
   32.5824  -20.8127   36.6619 C   0  0  0  0  0  0  0  0  0  0  0  0
   31.2582  -20.5601   35.9844 C   0  0  0  0  0  0  0  0  0  0  0  0
   31.3113  -19.4297   34.9839 C   0  0  0  0  0  0  0  0  0  0  0  0
   32.4222  -19.5797   33.9981 C   0  0  0  0  0  0  0  0  0  0  0  0
   33.6826  -20.1334   34.5975 C   0  0  0  0  0  0  0  0  0  0  0  0
   32.9487  -13.1322   36.9109 S   0  0  0  0  0  0  0  0  0  0  0  0
   32.0352  -12.8862   35.7185 O   0  0  0  0  0  0  0  0  0  0  0  0
   33.7436  -11.8837   37.1009 O   0  0  0  0  0  0  0  0  0  0  0  0
   32.0091  -13.5044   38.2990 N   0  0  0  0  0  0  0  0  0  0  0  0
   31.3021  -14.2259   38.0758 H   0  0  0  0  0  0  0  0  0  0  0  0
   30.2811  -11.7955   37.8421 C   0  0  0  0  0  0  0  0  0  0  0  0
   31.3100  -12.3406   38.8104 C   0  0  0  0  0  0  0  0  0  0  0  0
   30.5661  -12.7608   40.0606 C   0  0  0  0  0  0  0  0  0  0  0  0
   29.4717  -11.9391   40.3054 F   0  0  0  0  0  0  0  0  0  0  0  0
   30.1337  -14.0825   39.9010 F   0  0  0  0  0  0  0  0  0  0  0  0
   31.3711  -12.7668   41.1821 F   0  0  0  0  0  0  0  0  0  0  0  0
 34 35  1  0  0  0
 35 32  1  0  0  0
 32 29  1  0  0  0
 29 30  2  0  0  0
 29 31  2  0  0  0
 29  1  1  0  0  0
  1  2  2  0  0  0
  2  3  1  0  0  0
  3  4  2  0  0  0
  4 11  1  0  0  0
 11 12  1  0  0  0
 12 13  1  0  0  0
 13 14  2  0  0  0
 14 15  1  0  0  0
 15 22  1  0  0  0
 22 23  1  0  0  0
 23 24  1  0  0  0
 24 25  1  0  0  0
 25 26  1  0  0  0
 26 27  1  0  0  0
 27 28  1  0  0  0
 13 16  1  0  0  0
 16 17  2  0  0  0
 17 18  1  0  0  0
 18 19  2  0  0  0
 19 20  1  0  0  0
 20 21  2  0  0  0
  4  5  1  0  0  0
  5  6  2  0  0  0
  6  7  1  0  0  0
  7  8  2  0  0  0
  8  9  1  0  0  0
  9 10  2  0  0  0
 35 36  1  0  0  0
 36 37  1  0  0  0
 36 38  1  0  0  0
 36 39  1  0  0  0
 10  1  1  0  0  0
 15 11  2  0  0  0
 28 23  1  0  0  0
 21 16  1  0  0  0
 10  5  1  0  0  0
 32 33  1  0  0  0
M  END
> <minimizedAffinity>
-7.87395

> <CNNscore>
0.3512187600

> <CNNaffinity>
6.8030967712

> <CNN_VS>
2.3893752098

> <CNNaffinity_variance>
0.2348481119

$$$$
[H]c1c([H])c([H])c(-c2nc(C([H])([H])C3([H])C([H])([H])C([H])([H])C([H])([H])C([H])([H])C3([H])[H])c(-c3c([H])c([H])c(S(=O)(=O)N([H])[C@@]([H])(C([H])([H])[H])C(F)(F)F)c4c([H])c([H])c([H])c([H])c34)s2)c([H])c1[H]


 39 43  0  0  0  0  0  0  0  0999 V2000
   34.1399  -14.5049   36.4747 C   0  0  0  0  0  0  0  0  0  0  0  0
   33.6151  -15.7304   36.1086 C   0  0  0  0  0  0  0  0  0  0  0  0
   34.3415  -16.8737   36.1077 C   0  0  0  0  0  0  0  0  0  0  0  0
   35.6980  -16.8528   36.4905 C   0  0  0  0  0  0  0  0  0  0  0  0
   36.2536  -15.6675   36.8630 C   0  0  0  0  0  0  0  0  0  0  0  0
   37.5581  -15.6233   37.3028 C   0  0  0  0  0  0  0  0  0  0  0  0
   38.0993  -14.4356   37.7236 C   0  0  0  0  0  0  0  0  0  0  0  0
   37.3556  -13.2747   37.7162 C   0  0  0  0  0  0  0  0  0  0  0  0
   36.0493  -13.3438   37.2755 C   0  0  0  0  0  0  0  0  0  0  0  0
   35.4719  -14.5083   36.8501 C   0  0  0  0  0  0  0  0  0  0  0  0
   36.3521  -18.1508   36.5191 C   0  0  0  0  0  0  0  0  0  0  0  0
   37.7082  -18.5789   35.4733 S   0  0  0  0  0  0  0  0  0  0  0  0
   38.0053  -20.1321   36.0807 C   0  0  0  0  0  0  0  0  0  0  0  0
   37.1095  -20.2498   37.0059 N   0  0  0  0  0  0  0  0  0  0  0  0
   36.2569  -19.2781   37.2650 C   0  0  0  0  0  0  0  0  0  0  0  0
   39.0327  -21.0835   35.6427 C   0  0  0  0  0  0  0  0  0  0  0  0
   39.9048  -21.6209   36.5508 C   0  0  0  0  0  0  0  0  0  0  0  0
   40.8897  -22.5258   36.1714 C   0  0  0  0  0  0  0  0  0  0  0  0
   41.0058  -22.9012   34.8622 C   0  0  0  0  0  0  0  0  0  0  0  0
   40.1343  -22.3681   33.9379 C   0  0  0  0  0  0  0  0  0  0  0  0
   39.1422  -21.4549   34.3262 C   0  0  0  0  0  0  0  0  0  0  0  0
   35.3730  -19.4864   38.4810 C   0  0  0  0  0  0  0  0  0  0  0  0
   35.3156  -20.8927   38.9571 C   0  0  0  0  0  0  0  0  0  0  0  0
   33.9909  -21.5083   39.1577 C   0  0  0  0  0  0  0  0  0  0  0  0
   34.1514  -22.9750   39.4733 C   0  0  0  0  0  0  0  0  0  0  0  0
   35.5889  -23.4366   39.4269 C   0  0  0  0  0  0  0  0  0  0  0  0
   36.4978  -22.5862   40.2510 C   0  0  0  0  0  0  0  0  0  0  0  0
   36.1596  -21.1243   40.1984 C   0  0  0  0  0  0  0  0  0  0  0  0
   33.1526  -13.0643   36.4726 S   0  0  0  0  0  0  0  0  0  0  0  0
   32.0978  -13.2265   35.3872 O   0  0  0  0  0  0  0  0  0  0  0  0
   33.9401  -11.8470   36.1200 O   0  0  0  0  0  0  0  0  0  0  0  0
   32.3939  -12.9083   38.0049 N   0  0  0  0  0  0  0  0  0  0  0  0
   32.3790  -13.8183   38.4969 H   0  0  0  0  0  0  0  0  0  0  0  0
   30.1805  -12.7809   39.1002 C   0  0  0  0  0  0  0  0  0  0  0  0
   31.0244  -12.4437   37.8889 C   0  0  0  0  0  0  0  0  0  0  0  0
   31.0568  -10.9340   37.7751 C   0  0  0  0  0  0  0  0  0  0  0  0
   32.3051  -10.4221   38.1109 F   0  0  0  0  0  0  0  0  0  0  0  0
   30.7426  -10.5777   36.4584 F   0  0  0  0  0  0  0  0  0  0  0  0
   30.1036  -10.3204   38.5629 F   0  0  0  0  0  0  0  0  0  0  0  0
 34 35  1  0  0  0
 35 32  1  0  0  0
 32 29  1  0  0  0
 29 30  2  0  0  0
 29 31  2  0  0  0
 29  1  1  0  0  0
  1  2  2  0  0  0
  2  3  1  0  0  0
  3  4  2  0  0  0
  4 11  1  0  0  0
 11 12  1  0  0  0
 12 13  1  0  0  0
 13 14  2  0  0  0
 14 15  1  0  0  0
 15 22  1  0  0  0
 22 23  1  0  0  0
 23 24  1  0  0  0
 24 25  1  0  0  0
 25 26  1  0  0  0
 26 27  1  0  0  0
 27 28  1  0  0  0
 13 16  1  0  0  0
 16 17  2  0  0  0
 17 18  1  0  0  0
 18 19  2  0  0  0
 19 20  1  0  0  0
 20 21  2  0  0  0
  4  5  1  0  0  0
  5  6  2  0  0  0
  6  7  1  0  0  0
  7  8  2  0  0  0
  8  9  1  0  0  0
  9 10  2  0  0  0
 35 36  1  0  0  0
 36 37  1  0  0  0
 36 38  1  0  0  0
 36 39  1  0  0  0
 10  1  1  0  0  0
 15 11  2  0  0  0
 28 23  1  0  0  0
 21 16  1  0  0  0
 10  5  1  0  0  0
 32 33  1  0  0  0
M  END
> <minimizedAffinity>
-6.05292

> <CNNscore>
0.3512175083

> <CNNaffinity>
6.4392499924

> <CNN_VS>
2.2615773678

> <CNNaffinity_variance>
0.3336827755

$$$$
[H]c1c([H])c([H])c(-c2nc(C([H])([H])C3([H])C([H])([H])C([H])([H])C([H])([H])C([H])([H])C3([H])[H])c(-c3c([H])c([H])c(S(=O)(=O)N([H])[C@@]([H])(C([H])([H])[H])C(F)(F)F)c4c([H])c([H])c([H])c([H])c34)s2)c([H])c1[H]


 39 43  0  0  0  0  0  0  0  0999 V2000
   34.0416  -13.3490   36.6630 C   0  0  0  0  0  0  0  0  0  0  0  0
   33.0383  -14.0711   36.0440 C   0  0  0  0  0  0  0  0  0  0  0  0
   33.1728  -15.3735   35.6969 C   0  0  0  0  0  0  0  0  0  0  0  0
   34.3764  -16.0576   35.9620 C   0  0  0  0  0  0  0  0  0  0  0  0
   35.3889  -15.3854   36.5747 C   0  0  0  0  0  0  0  0  0  0  0  0
   36.5542  -16.0415   36.9048 C   0  0  0  0  0  0  0  0  0  0  0  0
   37.5528  -15.3733   37.5659 C   0  0  0  0  0  0  0  0  0  0  0  0
   37.4111  -14.0460   37.9107 C   0  0  0  0  0  0  0  0  0  0  0  0
   36.2331  -13.4103   37.5735 C   0  0  0  0  0  0  0  0  0  0  0  0
   35.2127  -14.0413   36.9168 C   0  0  0  0  0  0  0  0  0  0  0  0
   34.3758  -17.4683   35.6103 C   0  0  0  0  0  0  0  0  0  0  0  0
   33.0765  -18.5790   36.0508 S   0  0  0  0  0  0  0  0  0  0  0  0
   33.6674  -19.9660   35.2783 C   0  0  0  0  0  0  0  0  0  0  0  0
   34.7674  -19.5451   34.7444 N   0  0  0  0  0  0  0  0  0  0  0  0
   35.1641  -18.2954   34.8818 C   0  0  0  0  0  0  0  0  0  0  0  0
   33.0576  -21.3000   35.2433 C   0  0  0  0  0  0  0  0  0  0  0  0
   33.2972  -22.1927   36.2532 C   0  0  0  0  0  0  0  0  0  0  0  0
   32.7354  -23.4644   36.2531 C   0  0  0  0  0  0  0  0  0  0  0  0
   31.9196  -23.8517   35.2269 C   0  0  0  0  0  0  0  0  0  0  0  0
   31.6700  -22.9629   34.2044 C   0  0  0  0  0  0  0  0  0  0  0  0
   32.2398  -21.6806   34.2092 C   0  0  0  0  0  0  0  0  0  0  0  0
   36.3826  -17.8995   34.0681 C   0  0  0  0  0  0  0  0  0  0  0  0
   37.5627  -18.7783   34.2741 C   0  0  0  0  0  0  0  0  0  0  0  0
   38.0878  -18.9325   35.6433 C   0  0  0  0  0  0  0  0  0  0  0  0
   39.1661  -19.9878   35.6613 C   0  0  0  0  0  0  0  0  0  0  0  0
   39.3685  -20.6501   34.3190 C   0  0  0  0  0  0  0  0  0  0  0  0
   39.5677  -19.6684   33.2122 C   0  0  0  0  0  0  0  0  0  0  0  0
   38.7125  -18.4410   33.3406 C   0  0  0  0  0  0  0  0  0  0  0  0
   33.8078  -11.6751   37.1030 S   0  0  0  0  0  0  0  0  0  0  0  0
   34.8350  -10.8480   36.3430 O   0  0  0  0  0  0  0  0  0  0  0  0
   34.0617  -11.4375   38.5541 O   0  0  0  0  0  0  0  0  0  0  0  0
   32.2224  -11.1973   36.6490 N   0  0  0  0  0  0  0  0  0  0  0  0
   32.2543  -10.5645   35.8312 H   0  0  0  0  0  0  0  0  0  0  0  0
   31.3035   -9.0362   37.4238 C   0  0  0  0  0  0  0  0  0  0  0  0
   31.5357  -10.5028   37.7217 C   0  0  0  0  0  0  0  0  0  0  0  0
   30.1741  -11.1438   37.8901 C   0  0  0  0  0  0  0  0  0  0  0  0
   29.3518  -10.8932   36.7974 F   0  0  0  0  0  0  0  0  0  0  0  0
   30.3454  -12.5248   38.0410 F   0  0  0  0  0  0  0  0  0  0  0  0
   29.5257  -10.7233   39.0340 F   0  0  0  0  0  0  0  0  0  0  0  0
 34 35  1  0  0  0
 35 32  1  0  0  0
 32 29  1  0  0  0
 29 30  2  0  0  0
 29 31  2  0  0  0
 29  1  1  0  0  0
  1  2  2  0  0  0
  2  3  1  0  0  0
  3  4  2  0  0  0
  4 11  1  0  0  0
 11 12  1  0  0  0
 12 13  1  0  0  0
 13 14  2  0  0  0
 14 15  1  0  0  0
 15 22  1  0  0  0
 22 23  1  0  0  0
 23 24  1  0  0  0
 24 25  1  0  0  0
 25 26  1  0  0  0
 26 27  1  0  0  0
 27 28  1  0  0  0
 13 16  1  0  0  0
 16 17  2  0  0  0
 17 18  1  0  0  0
 18 19  2  0  0  0
 19 20  1  0  0  0
 20 21  2  0  0  0
  4  5  1  0  0  0
  5  6  2  0  0  0
  6  7  1  0  0  0
  7  8  2  0  0  0
  8  9  1  0  0  0
  9 10  2  0  0  0
 35 36  1  0  0  0
 36 37  1  0  0  0
 36 38  1  0  0  0
 36 39  1  0  0  0
 10  1  1  0  0  0
 15 11  2  0  0  0
 28 23  1  0  0  0
 21 16  1  0  0  0
 10  5  1  0  0  0
 32 33  1  0  0  0
M  END
> <minimizedAffinity>
-6.95109

> <CNNscore>
0.3378401399

> <CNNaffinity>
6.7326240540

> <CNN_VS>
2.2745506763

> <CNNaffinity_variance>
0.1828599870

$$$$
[H]c1c([H])c([H])c(-c2nc(C([H])([H])C3([H])C([H])([H])C([H])([H])C([H])([H])C([H])([H])C3([H])[H])c(-c3c([H])c([H])c(S(=O)(=O)N([H])[C@@]([H])(C([H])([H])[H])C(F)(F)F)c4c([H])c([H])c([H])c([H])c34)s2)c([H])c1[H]


 39 43  0  0  0  0  0  0  0  0999 V2000
   34.0906  -14.4888   36.4149 C   0  0  0  0  0  0  0  0  0  0  0  0
   33.5238  -15.6750   35.9870 C   0  0  0  0  0  0  0  0  0  0  0  0
   34.2065  -16.8439   35.9385 C   0  0  0  0  0  0  0  0  0  0  0  0
   35.5588  -16.8926   36.3335 C   0  0  0  0  0  0  0  0  0  0  0  0
   36.1549  -15.7482   36.7662 C   0  0  0  0  0  0  0  0  0  0  0  0
   37.4555  -15.7744   37.2187 C   0  0  0  0  0  0  0  0  0  0  0  0
   38.0367  -14.6292   37.6997 C   0  0  0  0  0  0  0  0  0  0  0  0
   37.3375  -13.4416   37.7405 C   0  0  0  0  0  0  0  0  0  0  0  0
   36.0341  -13.4402   37.2858 C   0  0  0  0  0  0  0  0  0  0  0  0
   35.4176  -14.5607   36.8011 C   0  0  0  0  0  0  0  0  0  0  0  0
   36.1632  -18.2146   36.3065 C   0  0  0  0  0  0  0  0  0  0  0  0
   35.7699  -19.4868   37.4654 S   0  0  0  0  0  0  0  0  0  0  0  0
   36.7323  -20.7187   36.8129 C   0  0  0  0  0  0  0  0  0  0  0  0
   37.2794  -20.1402   35.7939 N   0  0  0  0  0  0  0  0  0  0  0  0
   37.0214  -18.8817   35.4974 C   0  0  0  0  0  0  0  0  0  0  0  0
   36.8854  -22.0918   37.3065 C   0  0  0  0  0  0  0  0  0  0  0  0
   38.1123  -22.5447   37.7114 C   0  0  0  0  0  0  0  0  0  0  0  0
   38.2937  -23.8389   38.1854 C   0  0  0  0  0  0  0  0  0  0  0  0
   37.2315  -24.6963   38.2570 C   0  0  0  0  0  0  0  0  0  0  0  0
   35.9911  -24.2532   37.8530 C   0  0  0  0  0  0  0  0  0  0  0  0
   35.8136  -22.9459   37.3750 C   0  0  0  0  0  0  0  0  0  0  0  0
   37.6008  -18.3835   34.1861 C   0  0  0  0  0  0  0  0  0  0  0  0
   39.0377  -18.7090   33.9939 C   0  0  0  0  0  0  0  0  0  0  0  0
   39.3879  -19.8047   33.0715 C   0  0  0  0  0  0  0  0  0  0  0  0
   40.8845  -19.8596   32.8880 C   0  0  0  0  0  0  0  0  0  0  0  0
   41.6114  -18.7556   33.6189 C   0  0  0  0  0  0  0  0  0  0  0  0
   41.2292  -18.6644   35.0591 C   0  0  0  0  0  0  0  0  0  0  0  0
   39.7704  -18.9180   35.3078 C   0  0  0  0  0  0  0  0  0  0  0  0
   33.1584  -13.0131   36.4722 S   0  0  0  0  0  0  0  0  0  0  0  0
   32.0936  -13.0948   35.3877 O   0  0  0  0  0  0  0  0  0  0  0  0
   33.9899  -11.8139   36.1607 O   0  0  0  0  0  0  0  0  0  0  0  0
   32.4129  -12.8862   38.0137 N   0  0  0  0  0  0  0  0  0  0  0  0
   32.4302  -13.7984   38.5014 H   0  0  0  0  0  0  0  0  0  0  0  0
   30.2113  -12.8211   39.1378 C   0  0  0  0  0  0  0  0  0  0  0  0
   31.0293  -12.4612   37.9152 C   0  0  0  0  0  0  0  0  0  0  0  0
   31.0167  -10.9514   37.7997 C   0  0  0  0  0  0  0  0  0  0  0  0
   32.2567  -10.4041   38.1096 F   0  0  0  0  0  0  0  0  0  0  0  0
   30.6659  -10.6058   36.4894 F   0  0  0  0  0  0  0  0  0  0  0  0
   30.0628  -10.3639   38.6063 F   0  0  0  0  0  0  0  0  0  0  0  0
 34 35  1  0  0  0
 35 32  1  0  0  0
 32 29  1  0  0  0
 29 30  2  0  0  0
 29 31  2  0  0  0
 29  1  1  0  0  0
  1  2  2  0  0  0
  2  3  1  0  0  0
  3  4  2  0  0  0
  4 11  1  0  0  0
 11 12  1  0  0  0
 12 13  1  0  0  0
 13 14  2  0  0  0
 14 15  1  0  0  0
 15 22  1  0  0  0
 22 23  1  0  0  0
 23 24  1  0  0  0
 24 25  1  0  0  0
 25 26  1  0  0  0
 26 27  1  0  0  0
 27 28  1  0  0  0
 13 16  1  0  0  0
 16 17  2  0  0  0
 17 18  1  0  0  0
 18 19  2  0  0  0
 19 20  1  0  0  0
 20 21  2  0  0  0
  4  5  1  0  0  0
  5  6  2  0  0  0
  6  7  1  0  0  0
  7  8  2  0  0  0
  8  9  1  0  0  0
  9 10  2  0  0  0
 35 36  1  0  0  0
 36 37  1  0  0  0
 36 38  1  0  0  0
 36 39  1  0  0  0
 10  1  1  0  0  0
 15 11  2  0  0  0
 28 23  1  0  0  0
 21 16  1  0  0  0
 10  5  1  0  0  0
 32 33  1  0  0  0
M  END
> <minimizedAffinity>
-6.65743

> <CNNscore>
0.3162303567

> <CNNaffinity>
6.4237008095

> <CNN_VS>
2.0313692093

> <CNNaffinity_variance>
0.2797993422

$$$$
[H]c1c([H])c([H])c(-c2nc(C([H])([H])C3([H])C([H])([H])C([H])([H])C([H])([H])C([H])([H])C3([H])[H])c(-c3c([H])c([H])c(S(=O)(=O)N([H])[C@@]([H])(C([H])([H])[H])C(F)(F)F)c4c([H])c([H])c([H])c([H])c34)s2)c([H])c1[H]


 39 43  0  0  0  0  0  0  0  0999 V2000
   34.1492  -14.2822   36.6012 C   0  0  0  0  0  0  0  0  0  0  0  0
   33.5874  -15.4242   36.0611 C   0  0  0  0  0  0  0  0  0  0  0  0
   34.2914  -16.5605   35.8423 C   0  0  0  0  0  0  0  0  0  0  0  0
   35.6620  -16.6195   36.1665 C   0  0  0  0  0  0  0  0  0  0  0  0
   36.2541  -15.5188   36.7050 C   0  0  0  0  0  0  0  0  0  0  0  0
   37.5754  -15.5636   37.0914 C   0  0  0  0  0  0  0  0  0  0  0  0
   38.1550  -14.4682   37.6786 C   0  0  0  0  0  0  0  0  0  0  0  0
   37.4337  -13.3129   37.8928 C   0  0  0  0  0  0  0  0  0  0  0  0
   36.1101  -13.2925   37.5015 C   0  0  0  0  0  0  0  0  0  0  0  0
   35.4946  -14.3638   36.9151 C   0  0  0  0  0  0  0  0  0  0  0  0
   36.2921  -17.9124   35.9543 C   0  0  0  0  0  0  0  0  0  0  0  0
   37.6991  -18.1490   34.9150 S   0  0  0  0  0  0  0  0  0  0  0  0
   37.9352  -19.8029   35.1947 C   0  0  0  0  0  0  0  0  0  0  0  0
   36.9857  -20.0874   36.0253 N   0  0  0  0  0  0  0  0  0  0  0  0
   36.1356  -19.1683   36.4386 C   0  0  0  0  0  0  0  0  0  0  0  0
   38.9704  -20.6694   34.6203 C   0  0  0  0  0  0  0  0  0  0  0  0
   40.0087  -20.1253   33.9132 C   0  0  0  0  0  0  0  0  0  0  0  0
   41.0074  -20.9158   33.3561 C   0  0  0  0  0  0  0  0  0  0  0  0
   40.9692  -22.2738   33.5080 C   0  0  0  0  0  0  0  0  0  0  0  0
   39.9300  -22.8345   34.2176 C   0  0  0  0  0  0  0  0  0  0  0  0
   38.9243  -22.0319   34.7776 C   0  0  0  0  0  0  0  0  0  0  0  0
   35.1797  -19.6028   37.5345 C   0  0  0  0  0  0  0  0  0  0  0  0
   34.5090  -20.9030   37.2757 C   0  0  0  0  0  0  0  0  0  0  0  0
   33.3885  -20.9321   36.3177 C   0  0  0  0  0  0  0  0  0  0  0  0
   32.9642  -22.3588   36.0706 C   0  0  0  0  0  0  0  0  0  0  0  0
   33.8273  -23.3665   36.7924 C   0  0  0  0  0  0  0  0  0  0  0  0
   33.9686  -23.0711   38.2489 C   0  0  0  0  0  0  0  0  0  0  0  0
   34.0831  -21.6054   38.5533 C   0  0  0  0  0  0  0  0  0  0  0  0
   33.1900  -12.8491   36.8768 S   0  0  0  0  0  0  0  0  0  0  0  0
   32.6137  -12.9400   38.2826 O   0  0  0  0  0  0  0  0  0  0  0  0
   32.0266  -12.7671   35.9460 O   0  0  0  0  0  0  0  0  0  0  0  0
   34.2036  -11.4690   36.7497 N   0  0  0  0  0  0  0  0  0  0  0  0
   34.7902  -11.3704   37.5962 H   0  0  0  0  0  0  0  0  0  0  0  0
   32.6974   -9.8470   37.8522 C   0  0  0  0  0  0  0  0  0  0  0  0
   33.4395  -10.2457   36.5938 C   0  0  0  0  0  0  0  0  0  0  0  0
   34.4132   -9.1296   36.2786 C   0  0  0  0  0  0  0  0  0  0  0  0
   35.4467   -9.5686   35.4586 F   0  0  0  0  0  0  0  0  0  0  0  0
   33.7173   -8.0950   35.6427 F   0  0  0  0  0  0  0  0  0  0  0  0
   34.9614   -8.5655   37.4130 F   0  0  0  0  0  0  0  0  0  0  0  0
 34 35  1  0  0  0
 35 32  1  0  0  0
 32 29  1  0  0  0
 29 30  2  0  0  0
 29 31  2  0  0  0
 29  1  1  0  0  0
  1  2  2  0  0  0
  2  3  1  0  0  0
  3  4  2  0  0  0
  4 11  1  0  0  0
 11 12  1  0  0  0
 12 13  1  0  0  0
 13 14  2  0  0  0
 14 15  1  0  0  0
 15 22  1  0  0  0
 22 23  1  0  0  0
 23 24  1  0  0  0
 24 25  1  0  0  0
 25 26  1  0  0  0
 26 27  1  0  0  0
 27 28  1  0  0  0
 13 16  1  0  0  0
 16 17  2  0  0  0
 17 18  1  0  0  0
 18 19  2  0  0  0
 19 20  1  0  0  0
 20 21  2  0  0  0
  4  5  1  0  0  0
  5  6  2  0  0  0
  6  7  1  0  0  0
  7  8  2  0  0  0
  8  9  1  0  0  0
  9 10  2  0  0  0
 35 36  1  0  0  0
 36 37  1  0  0  0
 36 38  1  0  0  0
 36 39  1  0  0  0
 10  1  1  0  0  0
 15 11  2  0  0  0
 28 23  1  0  0  0
 21 16  1  0  0  0
 10  5  1  0  0  0
 32 33  1  0  0  0
M  END
> <minimizedAffinity>
-6.15200

> <CNNscore>
0.2764266133

> <CNNaffinity>
6.4192214012

> <CNN_VS>
1.7744436264

> <CNNaffinity_variance>
0.2271234989

$$$$
[H]c1c([H])c([H])c(-c2nc(C([H])([H])C3([H])C([H])([H])C([H])([H])C([H])([H])C([H])([H])C3([H])[H])c(-c3c([H])c([H])c(S(=O)(=O)N([H])[C@@]([H])(C([H])([H])[H])C(F)(F)F)c4c([H])c([H])c([H])c([H])c34)s2)c([H])c1[H]


 39 43  0  0  0  0  0  0  0  0999 V2000
   37.3447  -21.7808   37.7874 C   0  0  0  0  0  0  0  0  0  0  0  0
   36.0099  -21.4506   37.9307 C   0  0  0  0  0  0  0  0  0  0  0  0
   35.5141  -20.2294   37.6184 C   0  0  0  0  0  0  0  0  0  0  0  0
   36.3673  -19.2228   37.1226 C   0  0  0  0  0  0  0  0  0  0  0  0
   37.6885  -19.5070   36.9615 C   0  0  0  0  0  0  0  0  0  0  0  0
   38.5371  -18.5667   36.4202 C   0  0  0  0  0  0  0  0  0  0  0  0
   39.8577  -18.8737   36.2140 C   0  0  0  0  0  0  0  0  0  0  0  0
   40.3566  -20.1170   36.5398 C   0  0  0  0  0  0  0  0  0  0  0  0
   39.4868  -21.0447   37.0769 C   0  0  0  0  0  0  0  0  0  0  0  0
   38.1632  -20.7790   37.2959 C   0  0  0  0  0  0  0  0  0  0  0  0
   35.7086  -17.9799   36.7553 C   0  0  0  0  0  0  0  0  0  0  0  0
   35.9658  -16.4553   37.6070 S   0  0  0  0  0  0  0  0  0  0  0  0
   34.9967  -15.4642   36.6332 C   0  0  0  0  0  0  0  0  0  0  0  0
   34.5462  -16.2918   35.7475 N   0  0  0  0  0  0  0  0  0  0  0  0
   34.8790  -17.5674   35.7665 C   0  0  0  0  0  0  0  0  0  0  0  0
   34.7500  -14.0259   36.7848 C   0  0  0  0  0  0  0  0  0  0  0  0
   35.5447  -13.1193   36.1362 C   0  0  0  0  0  0  0  0  0  0  0  0
   35.3393  -11.7496   36.2562 C   0  0  0  0  0  0  0  0  0  0  0  0
   34.3222  -11.2764   37.0373 C   0  0  0  0  0  0  0  0  0  0  0  0
   33.5147  -12.1779   37.6954 C   0  0  0  0  0  0  0  0  0  0  0  0
   33.7266  -13.5595   37.5711 C   0  0  0  0  0  0  0  0  0  0  0  0
   34.4127  -18.3859   34.5765 C   0  0  0  0  0  0  0  0  0  0  0  0
   33.2293  -19.2407   34.8530 C   0  0  0  0  0  0  0  0  0  0  0  0
   33.3232  -20.6812   34.5527 C   0  0  0  0  0  0  0  0  0  0  0  0
   32.0919  -21.3904   35.0602 C   0  0  0  0  0  0  0  0  0  0  0  0
   31.1415  -20.4743   35.7943 C   0  0  0  0  0  0  0  0  0  0  0  0
   30.7974  -19.2495   35.0134 C   0  0  0  0  0  0  0  0  0  0  0  0
   31.9545  -18.6911   34.2365 C   0  0  0  0  0  0  0  0  0  0  0  0
   37.9270  -23.3771   38.1908 S   0  0  0  0  0  0  0  0  0  0  0  0
   38.6344  -23.9364   36.9645 O   0  0  0  0  0  0  0  0  0  0  0  0
   36.8111  -24.3174   38.5023 O   0  0  0  0  0  0  0  0  0  0  0  0
   39.0347  -23.2511   39.4966 N   0  0  0  0  0  0  0  0  0  0  0  0
   39.8965  -22.7641   39.1958 H   0  0  0  0  0  0  0  0  0  0  0  0
   40.8800  -24.8712   39.7886 C   0  0  0  0  0  0  0  0  0  0  0  0
   39.4167  -24.5519   40.0130 C   0  0  0  0  0  0  0  0  0  0  0  0
   39.1880  -24.5402   41.5099 C   0  0  0  0  0  0  0  0  0  0  0  0
   40.3727  -24.7387   42.2101 F   0  0  0  0  0  0  0  0  0  0  0  0
   38.6328  -23.3062   41.8680 F   0  0  0  0  0  0  0  0  0  0  0  0
   38.2728  -25.4905   41.9158 F   0  0  0  0  0  0  0  0  0  0  0  0
 34 35  1  0  0  0
 35 32  1  0  0  0
 32 29  1  0  0  0
 29 30  2  0  0  0
 29 31  2  0  0  0
 29  1  1  0  0  0
  1  2  2  0  0  0
  2  3  1  0  0  0
  3  4  2  0  0  0
  4 11  1  0  0  0
 11 12  1  0  0  0
 12 13  1  0  0  0
 13 14  2  0  0  0
 14 15  1  0  0  0
 15 22  1  0  0  0
 22 23  1  0  0  0
 23 24  1  0  0  0
 24 25  1  0  0  0
 25 26  1  0  0  0
 26 27  1  0  0  0
 27 28  1  0  0  0
 13 16  1  0  0  0
 16 17  2  0  0  0
 17 18  1  0  0  0
 18 19  2  0  0  0
 19 20  1  0  0  0
 20 21  2  0  0  0
  4  5  1  0  0  0
  5  6  2  0  0  0
  6  7  1  0  0  0
  7  8  2  0  0  0
  8  9  1  0  0  0
  9 10  2  0  0  0
 35 36  1  0  0  0
 36 37  1  0  0  0
 36 38  1  0  0  0
 36 39  1  0  0  0
 10  1  1  0  0  0
 15 11  2  0  0  0
 28 23  1  0  0  0
 21 16  1  0  0  0
 10  5  1  0  0  0
 32 33  1  0  0  0
M  END
> <minimizedAffinity>
-6.25957

> <CNNscore>
0.2456869930

> <CNNaffinity>
6.1253657341

> <CNN_VS>
1.5049227476

> <CNNaffinity_variance>
0.0789697841

$$$$
[H]c1c([H])c([H])c(-c2nc(C([H])([H])C3([H])C([H])([H])C([H])([H])C([H])([H])C([H])([H])C3([H])[H])c(-c3c([H])c([H])c(S(=O)(=O)N([H])[C@@]([H])(C([H])([H])[H])C(F)(F)F)c4c([H])c([H])c([H])c([H])c34)s2)c([H])c1[H]


 39 43  0  0  0  0  0  0  0  0999 V2000
   34.0837  -14.5242   36.5590 C   0  0  0  0  0  0  0  0  0  0  0  0
   33.6252  -15.6989   35.9922 C   0  0  0  0  0  0  0  0  0  0  0  0
   34.4238  -16.7689   35.7637 C   0  0  0  0  0  0  0  0  0  0  0  0
   35.7905  -16.7199   36.1052 C   0  0  0  0  0  0  0  0  0  0  0  0
   36.2827  -15.5837   36.6701 C   0  0  0  0  0  0  0  0  0  0  0  0
   37.5985  -15.5258   37.0733 C   0  0  0  0  0  0  0  0  0  0  0  0
   38.0780  -14.3969   37.6865 C   0  0  0  0  0  0  0  0  0  0  0  0
   37.2607  -13.3093   37.9106 C   0  0  0  0  0  0  0  0  0  0  0  0
   35.9447  -13.3916   37.5020 C   0  0  0  0  0  0  0  0  0  0  0  0
   35.4274  -14.4996   36.8895 C   0  0  0  0  0  0  0  0  0  0  0  0
   36.5283  -17.9522   35.8797 C   0  0  0  0  0  0  0  0  0  0  0  0
   37.8181  -18.1078   34.6847 S   0  0  0  0  0  0  0  0  0  0  0  0
   38.2655  -19.7081   35.0140 C   0  0  0  0  0  0  0  0  0  0  0  0
   37.4592  -20.0359   35.9703 N   0  0  0  0  0  0  0  0  0  0  0  0
   36.5693  -19.1847   36.4413 C   0  0  0  0  0  0  0  0  0  0  0  0
   39.3131  -20.4981   34.3575 C   0  0  0  0  0  0  0  0  0  0  0  0
   39.4743  -21.8214   34.6694 C   0  0  0  0  0  0  0  0  0  0  0  0
   40.4555  -22.6002   34.0665 C   0  0  0  0  0  0  0  0  0  0  0  0
   41.2904  -22.0484   33.1353 C   0  0  0  0  0  0  0  0  0  0  0  0
   41.1388  -20.7178   32.8119 C   0  0  0  0  0  0  0  0  0  0  0  0
   40.1470  -19.9361   33.4237 C   0  0  0  0  0  0  0  0  0  0  0  0
   35.8048  -19.6454   37.6688 C   0  0  0  0  0  0  0  0  0  0  0  0
   34.7268  -20.6265   37.3807 C   0  0  0  0  0  0  0  0  0  0  0  0
   33.6634  -20.2378   36.4362 C   0  0  0  0  0  0  0  0  0  0  0  0
   32.7732  -21.4227   36.1530 C   0  0  0  0  0  0  0  0  0  0  0  0
   33.2375  -22.6881   36.8346 C   0  0  0  0  0  0  0  0  0  0  0  0
   33.4742  -22.5055   38.2971 C   0  0  0  0  0  0  0  0  0  0  0  0
   34.0871  -21.1791   38.6425 C   0  0  0  0  0  0  0  0  0  0  0  0
   33.0055  -13.1806   36.8459 S   0  0  0  0  0  0  0  0  0  0  0  0
   32.1168  -13.0291   35.6195 O   0  0  0  0  0  0  0  0  0  0  0  0
   33.7443  -11.8929   36.9960 O   0  0  0  0  0  0  0  0  0  0  0  0
   32.0429  -13.5252   38.2252 N   0  0  0  0  0  0  0  0  0  0  0  0
   31.3350  -14.2461   38.0028 H   0  0  0  0  0  0  0  0  0  0  0  0
   30.3576  -11.7931   37.7011 C   0  0  0  0  0  0  0  0  0  0  0  0
   31.3431  -12.3494   38.7074 C   0  0  0  0  0  0  0  0  0  0  0  0
   30.5488  -12.7540   39.9316 C   0  0  0  0  0  0  0  0  0  0  0  0
   29.9813  -14.0141   39.7799 F   0  0  0  0  0  0  0  0  0  0  0  0
   31.4042  -12.7552   41.0395 F   0  0  0  0  0  0  0  0  0  0  0  0
   29.5472  -11.8545   40.2372 F   0  0  0  0  0  0  0  0  0  0  0  0
 34 35  1  0  0  0
 35 32  1  0  0  0
 32 29  1  0  0  0
 29 30  2  0  0  0
 29 31  2  0  0  0
 29  1  1  0  0  0
  1  2  2  0  0  0
  2  3  1  0  0  0
  3  4  2  0  0  0
  4 11  1  0  0  0
 11 12  1  0  0  0
 12 13  1  0  0  0
 13 14  2  0  0  0
 14 15  1  0  0  0
 15 22  1  0  0  0
 22 23  1  0  0  0
 23 24  1  0  0  0
 24 25  1  0  0  0
 25 26  1  0  0  0
 26 27  1  0  0  0
 27 28  1  0  0  0
 13 16  1  0  0  0
 16 17  2  0  0  0
 17 18  1  0  0  0
 18 19  2  0  0  0
 19 20  1  0  0  0
 20 21  2  0  0  0
  4  5  1  0  0  0
  5  6  2  0  0  0
  6  7  1  0  0  0
  7  8  2  0  0  0
  8  9  1  0  0  0
  9 10  2  0  0  0
 35 36  1  0  0  0
 36 37  1  0  0  0
 36 38  1  0  0  0
 36 39  1  0  0  0
 10  1  1  0  0  0
 15 11  2  0  0  0
 28 23  1  0  0  0
 21 16  1  0  0  0
 10  5  1  0  0  0
 32 33  1  0  0  0
M  END
> <minimizedAffinity>
-7.32326

> <CNNscore>
0.2442157120

> <CNNaffinity>
6.4184899330

> <CNN_VS>
1.5674960613

> <CNNaffinity_variance>
0.3354232907

$$$$
[H]c1nc(N([H])c2c([H])c(OC([H])([H])[H])c(OC([H])([H])[H])c(OC([H])([H])[H])c2[H])nc(N([H])c2nc3c(c([H])c2[H])OC(C([H])([H])[H])(C([H])([H])[H])C(=O)N3[H])c1F


 37 40  0  0  0  0  0  0  0  0999 V2000
   32.8325  -18.3067   34.8831 C   0  0  0  0  0  0  0  0  0  0  0  0
   32.4543  -19.0480   33.8350 N   0  0  0  0  0  0  0  0  0  0  0  0
   32.2054  -20.3588   33.8694 C   0  0  0  0  0  0  0  0  0  0  0  0
   32.3395  -21.0185   35.0529 C   0  0  0  0  0  0  0  0  0  0  0  0
   32.1212  -22.3299   35.2250 F   0  0  0  0  0  0  0  0  0  0  0  0
   32.7339  -20.2975   36.1907 C   0  0  0  0  0  0  0  0  0  0  0  0
   32.9592  -18.9873   36.0515 N   0  0  0  0  0  0  0  0  0  0  0  0
   33.1014  -16.9265   34.8786 N   0  0  0  0  0  0  0  0  0  0  0  0
   32.5406  -16.3580   34.1638 H   0  0  0  0  0  0  0  0  0  0  0  0
   34.8274  -14.4146   37.0546 C   0  0  0  0  0  0  0  0  0  0  0  0
   33.8534  -15.0320   36.2567 C   0  0  0  0  0  0  0  0  0  0  0  0
   34.0187  -16.2506   35.7045 C   0  0  0  0  0  0  0  0  0  0  0  0
   35.2430  -16.8963   35.9700 C   0  0  0  0  0  0  0  0  0  0  0  0
   36.2158  -16.3217   36.7456 C   0  0  0  0  0  0  0  0  0  0  0  0
   36.0200  -15.0719   37.2982 C   0  0  0  0  0  0  0  0  0  0  0  0
   33.2912  -12.8414   38.0297 C   0  0  0  0  0  0  0  0  0  0  0  0
   34.5818  -13.1622   37.5843 O   0  0  0  0  0  0  0  0  0  0  0  0
   37.3938  -16.9799   36.9820 O   0  0  0  0  0  0  0  0  0  0  0  0
   37.6036  -18.2522   36.4059 C   0  0  0  0  0  0  0  0  0  0  0  0
   36.9787  -14.4467   38.0928 O   0  0  0  0  0  0  0  0  0  0  0  0
   37.9124  -13.5839   37.4569 C   0  0  0  0  0  0  0  0  0  0  0  0
   32.8819  -20.9562   37.4357 N   0  0  0  0  0  0  0  0  0  0  0  0
   32.0420  -21.2004   37.9773 H   0  0  0  0  0  0  0  0  0  0  0  0
   34.1831  -21.2626   37.9050 C   0  0  0  0  0  0  0  0  0  0  0  0
   34.4832  -21.1897   39.2733 C   0  0  0  0  0  0  0  0  0  0  0  0
   35.7509  -21.4900   39.7151 C   0  0  0  0  0  0  0  0  0  0  0  0
   36.7394  -21.8640   38.8341 C   0  0  0  0  0  0  0  0  0  0  0  0
   38.0282  -22.1735   39.2452 O   0  0  0  0  0  0  0  0  0  0  0  0
   39.1372  -22.1134   38.3614 C   0  0  0  0  0  0  0  0  0  0  0  0
   40.2554  -22.9800   38.8660 C   0  0  0  0  0  0  0  0  0  0  0  0
   39.5905  -20.6864   38.2005 C   0  0  0  0  0  0  0  0  0  0  0  0
   38.7467  -22.6295   37.0140 C   0  0  0  0  0  0  0  0  0  0  0  0
   39.5620  -23.3149   36.3214 O   0  0  0  0  0  0  0  0  0  0  0  0
   37.4437  -22.3196   36.5585 N   0  0  0  0  0  0  0  0  0  0  0  0
   36.4319  -21.9338   37.4760 C   0  0  0  0  0  0  0  0  0  0  0  0
   35.1806  -21.6313   37.0926 N   0  0  0  0  0  0  0  0  0  0  0  0
   37.2397  -22.3787   35.5440 H   0  0  0  0  0  0  0  0  0  0  0  0
 16 17  1  0  0  0
 17 10  1  0  0  0
 10 11  2  0  0  0
 11 12  1  0  0  0
 12  8  1  0  0  0
  8  1  1  0  0  0
  1  2  2  0  0  0
  2  3  1  0  0  0
  3  4  2  0  0  0
  4  5  1  0  0  0
  4  6  1  0  0  0
  6 22  1  0  0  0
 22 24  1  0  0  0
 24 25  2  0  0  0
 25 26  1  0  0  0
 26 27  2  0  0  0
 27 28  1  0  0  0
 28 29  1  0  0  0
 29 30  1  0  0  0
 29 31  1  0  0  0
 29 32  1  0  0  0
 32 33  2  0  0  0
 32 34  1  0  0  0
 34 35  1  0  0  0
 35 36  2  0  0  0
  6  7  2  0  0  0
 12 13  2  0  0  0
 13 14  1  0  0  0
 14 18  1  0  0  0
 18 19  1  0  0  0
 14 15  2  0  0  0
 15 20  1  0  0  0
 20 21  1  0  0  0
 15 10  1  0  0  0
  7  1  1  0  0  0
 36 24  1  0  0  0
 35 27  1  0  0  0
  8  9  1  0  0  0
 22 23  1  0  0  0
 34 37  1  0  0  0
M  END
> <minimizedAffinity>
-6.94268

> <CNNscore>
0.2926756740

> <CNNaffinity>
5.8174920082

> <CNN_VS>
1.7026383877

> <CNNaffinity_variance>
0.5948079824

$$$$
[H]c1nc(N([H])c2c([H])c(OC([H])([H])[H])c(OC([H])([H])[H])c(OC([H])([H])[H])c2[H])nc(N([H])c2nc3c(c([H])c2[H])OC(C([H])([H])[H])(C([H])([H])[H])C(=O)N3[H])c1F


 37 40  0  0  0  0  0  0  0  0999 V2000
   35.8742  -17.9828   36.8185 C   0  0  0  0  0  0  0  0  0  0  0  0
   35.9835  -16.6858   37.1303 N   0  0  0  0  0  0  0  0  0  0  0  0
   35.2277  -15.7073   36.6276 C   0  0  0  0  0  0  0  0  0  0  0  0
   34.2611  -16.0270   35.7236 C   0  0  0  0  0  0  0  0  0  0  0  0
   33.4358  -15.1440   35.1439 F   0  0  0  0  0  0  0  0  0  0  0  0
   34.0953  -17.3710   35.3543 C   0  0  0  0  0  0  0  0  0  0  0  0
   34.9034  -18.2760   35.9152 N   0  0  0  0  0  0  0  0  0  0  0  0
   36.6538  -19.0352   37.3302 N   0  0  0  0  0  0  0  0  0  0  0  0
   37.7082  -18.9409   37.1627 H   0  0  0  0  0  0  0  0  0  0  0  0
   36.0218  -22.5267   38.5278 C   0  0  0  0  0  0  0  0  0  0  0  0
   36.5571  -21.4461   37.8119 C   0  0  0  0  0  0  0  0  0  0  0  0
   36.1812  -20.1681   38.0183 C   0  0  0  0  0  0  0  0  0  0  0  0
   35.2026  -19.9568   39.0105 C   0  0  0  0  0  0  0  0  0  0  0  0
   34.6592  -20.9898   39.7286 C   0  0  0  0  0  0  0  0  0  0  0  0
   35.0624  -22.2895   39.4957 C   0  0  0  0  0  0  0  0  0  0  0  0
   36.5004  -24.2582   36.9284 C   0  0  0  0  0  0  0  0  0  0  0  0
   36.4597  -23.8088   38.2563 O   0  0  0  0  0  0  0  0  0  0  0  0
   33.7098  -20.7459   40.6855 O   0  0  0  0  0  0  0  0  0  0  0  0
   34.1147  -20.3194   41.9696 C   0  0  0  0  0  0  0  0  0  0  0  0
   34.5394  -23.3724   40.1993 O   0  0  0  0  0  0  0  0  0  0  0  0
   33.3749  -24.0035   39.6831 C   0  0  0  0  0  0  0  0  0  0  0  0
   33.0984  -17.7342   34.4163 N   0  0  0  0  0  0  0  0  0  0  0  0
   32.9673  -17.1575   33.5744 H   0  0  0  0  0  0  0  0  0  0  0  0
   32.3057  -18.8828   34.6602 C   0  0  0  0  0  0  0  0  0  0  0  0
   31.1345  -18.7914   35.4267 C   0  0  0  0  0  0  0  0  0  0  0  0
   30.3743  -19.9148   35.6556 C   0  0  0  0  0  0  0  0  0  0  0  0
   30.7427  -21.1375   35.1431 C   0  0  0  0  0  0  0  0  0  0  0  0
   29.9998  -22.2904   35.3545 O   0  0  0  0  0  0  0  0  0  0  0  0
   30.5678  -23.5860   35.2392 C   0  0  0  0  0  0  0  0  0  0  0  0
   29.4959  -24.6056   34.9792 C   0  0  0  0  0  0  0  0  0  0  0  0
   31.3412  -23.9220   36.4869 C   0  0  0  0  0  0  0  0  0  0  0  0
   31.5139  -23.6293   34.0827 C   0  0  0  0  0  0  0  0  0  0  0  0
   31.5983  -24.6658   33.3530 O   0  0  0  0  0  0  0  0  0  0  0  0
   32.2971  -22.4748   33.8479 N   0  0  0  0  0  0  0  0  0  0  0  0
   31.9082  -21.2187   34.3824 C   0  0  0  0  0  0  0  0  0  0  0  0
   32.6173  -20.0950   34.1862 N   0  0  0  0  0  0  0  0  0  0  0  0
   33.1594  -22.5608   33.2793 H   0  0  0  0  0  0  0  0  0  0  0  0
 16 17  1  0  0  0
 17 10  1  0  0  0
 10 11  2  0  0  0
 11 12  1  0  0  0
 12  8  1  0  0  0
  8  1  1  0  0  0
  1  2  2  0  0  0
  2  3  1  0  0  0
  3  4  2  0  0  0
  4  5  1  0  0  0
  4  6  1  0  0  0
  6 22  1  0  0  0
 22 24  1  0  0  0
 24 25  2  0  0  0
 25 26  1  0  0  0
 26 27  2  0  0  0
 27 28  1  0  0  0
 28 29  1  0  0  0
 29 30  1  0  0  0
 29 31  1  0  0  0
 29 32  1  0  0  0
 32 33  2  0  0  0
 32 34  1  0  0  0
 34 35  1  0  0  0
 35 36  2  0  0  0
  6  7  2  0  0  0
 12 13  2  0  0  0
 13 14  1  0  0  0
 14 18  1  0  0  0
 18 19  1  0  0  0
 14 15  2  0  0  0
 15 20  1  0  0  0
 20 21  1  0  0  0
 15 10  1  0  0  0
  7  1  1  0  0  0
 36 24  1  0  0  0
 35 27  1  0  0  0
  8  9  1  0  0  0
 22 23  1  0  0  0
 34 37  1  0  0  0
M  END
> <minimizedAffinity>
-5.93783

> <CNNscore>
0.2889644206

> <CNNaffinity>
5.5174794197

> <CNN_VS>
1.5943552256

> <CNNaffinity_variance>
0.1807248145

$$$$
[H]c1nc(N([H])c2c([H])c(OC([H])([H])[H])c(OC([H])([H])[H])c(OC([H])([H])[H])c2[H])nc(N([H])c2nc3c(c([H])c2[H])OC(C([H])([H])[H])(C([H])([H])[H])C(=O)N3[H])c1F


 37 40  0  0  0  0  0  0  0  0999 V2000
   34.8123  -19.7059   36.1168 C   0  0  0  0  0  0  0  0  0  0  0  0
   34.7948  -19.9096   34.7942 N   0  0  0  0  0  0  0  0  0  0  0  0
   35.4634  -19.1844   33.8950 C   0  0  0  0  0  0  0  0  0  0  0  0
   36.2319  -18.1488   34.3318 C   0  0  0  0  0  0  0  0  0  0  0  0
   36.9517  -17.3441   33.5372 F   0  0  0  0  0  0  0  0  0  0  0  0
   36.2927  -17.8825   35.7085 C   0  0  0  0  0  0  0  0  0  0  0  0
   35.5857  -18.6677   36.5273 N   0  0  0  0  0  0  0  0  0  0  0  0
   34.1204  -20.4514   37.0878 N   0  0  0  0  0  0  0  0  0  0  0  0
   34.6616  -20.6249   37.9963 H   0  0  0  0  0  0  0  0  0  0  0  0
   30.5447  -21.0567   36.1539 C   0  0  0  0  0  0  0  0  0  0  0  0
   31.8252  -20.4870   36.2018 C   0  0  0  0  0  0  0  0  0  0  0  0
   32.8199  -20.9758   36.9693 C   0  0  0  0  0  0  0  0  0  0  0  0
   32.5119  -22.1139   37.7415 C   0  0  0  0  0  0  0  0  0  0  0  0
   31.2713  -22.6957   37.7179 C   0  0  0  0  0  0  0  0  0  0  0  0
   30.2708  -22.1735   36.9229 C   0  0  0  0  0  0  0  0  0  0  0  0
   29.8262  -19.2603   34.7248 C   0  0  0  0  0  0  0  0  0  0  0  0
   29.5783  -20.4954   35.3412 O   0  0  0  0  0  0  0  0  0  0  0  0
   31.0088  -23.8017   38.4825 O   0  0  0  0  0  0  0  0  0  0  0  0
   31.6955  -25.0066   38.2156 C   0  0  0  0  0  0  0  0  0  0  0  0
   28.9943  -22.7290   36.8654 O   0  0  0  0  0  0  0  0  0  0  0  0
   28.7673  -23.7844   35.9405 C   0  0  0  0  0  0  0  0  0  0  0  0
   37.0835  -16.8121   36.1928 N   0  0  0  0  0  0  0  0  0  0  0  0
   38.1035  -16.9306   36.2567 H   0  0  0  0  0  0  0  0  0  0  0  0
   36.4507  -15.6044   36.5778 C   0  0  0  0  0  0  0  0  0  0  0  0
   37.1736  -14.5992   37.2370 C   0  0  0  0  0  0  0  0  0  0  0  0
   36.5465  -13.4315   37.6050 C   0  0  0  0  0  0  0  0  0  0  0  0
   35.2124  -13.2275   37.3371 C   0  0  0  0  0  0  0  0  0  0  0  0
   34.5485  -12.0623   37.6941 O   0  0  0  0  0  0  0  0  0  0  0  0
   33.1378  -12.0126   37.8423 C   0  0  0  0  0  0  0  0  0  0  0  0
   32.6457  -10.6016   37.6911 C   0  0  0  0  0  0  0  0  0  0  0  0
   32.7402  -12.5829   39.1782 C   0  0  0  0  0  0  0  0  0  0  0  0
   32.4818  -12.8300   36.7766 C   0  0  0  0  0  0  0  0  0  0  0  0
   31.3937  -12.4473   36.2440 O   0  0  0  0  0  0  0  0  0  0  0  0
   33.1255  -14.0318   36.3989 N   0  0  0  0  0  0  0  0  0  0  0  0
   34.5020  -14.2321   36.6814 C   0  0  0  0  0  0  0  0  0  0  0  0
   35.1573  -15.3544   36.3420 N   0  0  0  0  0  0  0  0  0  0  0  0
   32.5759  -14.7638   35.9126 H   0  0  0  0  0  0  0  0  0  0  0  0
 16 17  1  0  0  0
 17 10  1  0  0  0
 10 11  2  0  0  0
 11 12  1  0  0  0
 12  8  1  0  0  0
  8  1  1  0  0  0
  1  2  2  0  0  0
  2  3  1  0  0  0
  3  4  2  0  0  0
  4  5  1  0  0  0
  4  6  1  0  0  0
  6 22  1  0  0  0
 22 24  1  0  0  0
 24 25  2  0  0  0
 25 26  1  0  0  0
 26 27  2  0  0  0
 27 28  1  0  0  0
 28 29  1  0  0  0
 29 30  1  0  0  0
 29 31  1  0  0  0
 29 32  1  0  0  0
 32 33  2  0  0  0
 32 34  1  0  0  0
 34 35  1  0  0  0
 35 36  2  0  0  0
  6  7  2  0  0  0
 12 13  2  0  0  0
 13 14  1  0  0  0
 14 18  1  0  0  0
 18 19  1  0  0  0
 14 15  2  0  0  0
 15 20  1  0  0  0
 20 21  1  0  0  0
 15 10  1  0  0  0
  7  1  1  0  0  0
 36 24  1  0  0  0
 35 27  1  0  0  0
  8  9  1  0  0  0
 22 23  1  0  0  0
 34 37  1  0  0  0
M  END
> <minimizedAffinity>
-7.40568

> <CNNscore>
0.2739302516

> <CNNaffinity>
6.1630034447

> <CNN_VS>
1.6882331371

> <CNNaffinity_variance>
0.0651700497

$$$$
[H]c1nc(N([H])c2c([H])c(OC([H])([H])[H])c(OC([H])([H])[H])c(OC([H])([H])[H])c2[H])nc(N([H])c2nc3c(c([H])c2[H])OC(C([H])([H])[H])(C([H])([H])[H])C(=O)N3[H])c1F


 37 40  0  0  0  0  0  0  0  0999 V2000
   34.9607  -14.7824   36.9352 C   0  0  0  0  0  0  0  0  0  0  0  0
   36.1712  -15.1754   36.5212 N   0  0  0  0  0  0  0  0  0  0  0  0
   36.4049  -16.1640   35.6556 C   0  0  0  0  0  0  0  0  0  0  0  0
   35.3447  -16.8431   35.1375 C   0  0  0  0  0  0  0  0  0  0  0  0
   35.4395  -17.8537   34.2618 F   0  0  0  0  0  0  0  0  0  0  0  0
   34.0477  -16.4794   35.5318 C   0  0  0  0  0  0  0  0  0  0  0  0
   33.9200  -15.4749   36.4044 N   0  0  0  0  0  0  0  0  0  0  0  0
   34.6825  -13.7463   37.8442 N   0  0  0  0  0  0  0  0  0  0  0  0
   35.2767  -13.7544   38.7361 H   0  0  0  0  0  0  0  0  0  0  0  0
   31.4815  -11.8383   37.4745 C   0  0  0  0  0  0  0  0  0  0  0  0
   32.3801  -12.8997   37.6548 C   0  0  0  0  0  0  0  0  0  0  0  0
   33.7175  -12.7339   37.6885 C   0  0  0  0  0  0  0  0  0  0  0  0
   34.1880  -11.4146   37.5317 C   0  0  0  0  0  0  0  0  0  0  0  0
   33.3376  -10.3548   37.3541 C   0  0  0  0  0  0  0  0  0  0  0  0
   31.9718  -10.5537   37.3230 C   0  0  0  0  0  0  0  0  0  0  0  0
   29.4678  -12.4560   38.6359 C   0  0  0  0  0  0  0  0  0  0  0  0
   30.1231  -12.0910   37.4510 O   0  0  0  0  0  0  0  0  0  0  0  0
   33.8318   -9.0858   37.2051 O   0  0  0  0  0  0  0  0  0  0  0  0
   34.8068   -8.8345   36.2147 C   0  0  0  0  0  0  0  0  0  0  0  0
   31.0675   -9.5088   37.1447 O   0  0  0  0  0  0  0  0  0  0  0  0
   30.3579   -9.0393   38.2834 C   0  0  0  0  0  0  0  0  0  0  0  0
   32.9251  -17.1674   35.0100 N   0  0  0  0  0  0  0  0  0  0  0  0
   32.1858  -16.6331   34.5341 H   0  0  0  0  0  0  0  0  0  0  0  0
   32.8476  -18.5744   35.1561 C   0  0  0  0  0  0  0  0  0  0  0  0
   32.5327  -19.3891   34.0585 C   0  0  0  0  0  0  0  0  0  0  0  0
   32.4608  -20.7539   34.2147 C   0  0  0  0  0  0  0  0  0  0  0  0
   32.6937  -21.3415   35.4370 C   0  0  0  0  0  0  0  0  0  0  0  0
   32.6294  -22.7143   35.6300 O   0  0  0  0  0  0  0  0  0  0  0  0
   32.4160  -23.2871   36.9110 C   0  0  0  0  0  0  0  0  0  0  0  0
   32.9171  -24.7027   36.9407 C   0  0  0  0  0  0  0  0  0  0  0  0
   30.9538  -23.2244   37.2658 C   0  0  0  0  0  0  0  0  0  0  0  0
   33.1765  -22.5233   37.9466 C   0  0  0  0  0  0  0  0  0  0  0  0
   33.7270  -23.1246   38.9210 O   0  0  0  0  0  0  0  0  0  0  0  0
   33.2494  -21.1195   37.7873 N   0  0  0  0  0  0  0  0  0  0  0  0
   33.0061  -20.5239   36.5221 C   0  0  0  0  0  0  0  0  0  0  0  0
   33.0646  -19.1972   36.3206 N   0  0  0  0  0  0  0  0  0  0  0  0
   33.4833  -20.5329   38.6091 H   0  0  0  0  0  0  0  0  0  0  0  0
 16 17  1  0  0  0
 17 10  1  0  0  0
 10 11  2  0  0  0
 11 12  1  0  0  0
 12  8  1  0  0  0
  8  1  1  0  0  0
  1  2  2  0  0  0
  2  3  1  0  0  0
  3  4  2  0  0  0
  4  5  1  0  0  0
  4  6  1  0  0  0
  6 22  1  0  0  0
 22 24  1  0  0  0
 24 25  2  0  0  0
 25 26  1  0  0  0
 26 27  2  0  0  0
 27 28  1  0  0  0
 28 29  1  0  0  0
 29 30  1  0  0  0
 29 31  1  0  0  0
 29 32  1  0  0  0
 32 33  2  0  0  0
 32 34  1  0  0  0
 34 35  1  0  0  0
 35 36  2  0  0  0
  6  7  2  0  0  0
 12 13  2  0  0  0
 13 14  1  0  0  0
 14 18  1  0  0  0
 18 19  1  0  0  0
 14 15  2  0  0  0
 15 20  1  0  0  0
 20 21  1  0  0  0
 15 10  1  0  0  0
  7  1  1  0  0  0
 36 24  1  0  0  0
 35 27  1  0  0  0
  8  9  1  0  0  0
 22 23  1  0  0  0
 34 37  1  0  0  0
M  END
> <minimizedAffinity>
-7.39201

> <CNNscore>
0.2641690671

> <CNNaffinity>
6.2511134148

> <CNN_VS>
1.6513508558

> <CNNaffinity_variance>
0.1082581878

$$$$
[H]c1nc(N([H])c2c([H])c(OC([H])([H])[H])c(OC([H])([H])[H])c(OC([H])([H])[H])c2[H])nc(N([H])c2nc3c(c([H])c2[H])OC(C([H])([H])[H])(C([H])([H])[H])C(=O)N3[H])c1F


 37 40  0  0  0  0  0  0  0  0999 V2000
   34.8942  -19.7382   36.1756 C   0  0  0  0  0  0  0  0  0  0  0  0
   34.8410  -19.9543   34.8559 N   0  0  0  0  0  0  0  0  0  0  0  0
   35.4712  -19.2270   33.9311 C   0  0  0  0  0  0  0  0  0  0  0  0
   36.2358  -18.1757   34.3359 C   0  0  0  0  0  0  0  0  0  0  0  0
   36.9190  -17.3671   33.5135 F   0  0  0  0  0  0  0  0  0  0  0  0
   36.3328  -17.8959   35.7079 C   0  0  0  0  0  0  0  0  0  0  0  0
   35.6627  -18.6844   36.5540 N   0  0  0  0  0  0  0  0  0  0  0  0
   34.2430  -20.4855   37.1730 N   0  0  0  0  0  0  0  0  0  0  0  0
   34.8156  -20.6474   38.0643 H   0  0  0  0  0  0  0  0  0  0  0  0
   31.1550  -22.5400   37.6901 C   0  0  0  0  0  0  0  0  0  0  0  0
   32.4584  -22.0438   37.8370 C   0  0  0  0  0  0  0  0  0  0  0  0
   32.9454  -21.0252   37.1003 C   0  0  0  0  0  0  0  0  0  0  0  0
   32.0669  -20.4638   36.1518 C   0  0  0  0  0  0  0  0  0  0  0  0
   30.7872  -20.9242   35.9829 C   0  0  0  0  0  0  0  0  0  0  0  0
   30.3147  -21.9696   36.7508 C   0  0  0  0  0  0  0  0  0  0  0  0
   31.4475  -24.7938   38.4775 C   0  0  0  0  0  0  0  0  0  0  0  0
   30.7307  -23.5884   38.4839 O   0  0  0  0  0  0  0  0  0  0  0  0
   29.9617  -20.3534   35.0505 O   0  0  0  0  0  0  0  0  0  0  0  0
   29.7550  -18.9564   35.0716 C   0  0  0  0  0  0  0  0  0  0  0  0
   29.0224  -22.4726   36.6158 O   0  0  0  0  0  0  0  0  0  0  0  0
   27.9772  -21.8269   37.3309 C   0  0  0  0  0  0  0  0  0  0  0  0
   37.1205  -16.8089   36.1593 N   0  0  0  0  0  0  0  0  0  0  0  0
   38.1435  -16.9115   36.1960 H   0  0  0  0  0  0  0  0  0  0  0  0
   36.4804  -15.6067   36.5495 C   0  0  0  0  0  0  0  0  0  0  0  0
   37.1965  -14.6013   37.2159 C   0  0  0  0  0  0  0  0  0  0  0  0
   36.5624  -13.4390   37.5890 C   0  0  0  0  0  0  0  0  0  0  0  0
   35.2278  -13.2407   37.3193 C   0  0  0  0  0  0  0  0  0  0  0  0
   34.5570  -12.0810   37.6813 O   0  0  0  0  0  0  0  0  0  0  0  0
   33.1457  -12.0396   37.8267 C   0  0  0  0  0  0  0  0  0  0  0  0
   32.6464  -10.6304   37.6823 C   0  0  0  0  0  0  0  0  0  0  0  0
   32.7482  -12.6194   39.1585 C   0  0  0  0  0  0  0  0  0  0  0  0
   32.4964  -12.8546   36.7550 C   0  0  0  0  0  0  0  0  0  0  0  0
   31.4074  -12.4747   36.2222 O   0  0  0  0  0  0  0  0  0  0  0  0
   33.1473  -14.0509   36.3721 N   0  0  0  0  0  0  0  0  0  0  0  0
   34.5242  -14.2454   36.6565 C   0  0  0  0  0  0  0  0  0  0  0  0
   35.1862  -15.3623   36.3124 N   0  0  0  0  0  0  0  0  0  0  0  0
   32.6027  -14.7830   35.8806 H   0  0  0  0  0  0  0  0  0  0  0  0
 16 17  1  0  0  0
 17 10  1  0  0  0
 10 11  2  0  0  0
 11 12  1  0  0  0
 12  8  1  0  0  0
  8  1  1  0  0  0
  1  2  2  0  0  0
  2  3  1  0  0  0
  3  4  2  0  0  0
  4  5  1  0  0  0
  4  6  1  0  0  0
  6 22  1  0  0  0
 22 24  1  0  0  0
 24 25  2  0  0  0
 25 26  1  0  0  0
 26 27  2  0  0  0
 27 28  1  0  0  0
 28 29  1  0  0  0
 29 30  1  0  0  0
 29 31  1  0  0  0
 29 32  1  0  0  0
 32 33  2  0  0  0
 32 34  1  0  0  0
 34 35  1  0  0  0
 35 36  2  0  0  0
  6  7  2  0  0  0
 12 13  2  0  0  0
 13 14  1  0  0  0
 14 18  1  0  0  0
 18 19  1  0  0  0
 14 15  2  0  0  0
 15 20  1  0  0  0
 20 21  1  0  0  0
 15 10  1  0  0  0
  7  1  1  0  0  0
 36 24  1  0  0  0
 35 27  1  0  0  0
  8  9  1  0  0  0
 22 23  1  0  0  0
 34 37  1  0  0  0
M  END
> <minimizedAffinity>
-7.34544

> <CNNscore>
0.2518075705

> <CNNaffinity>
6.1657819748

> <CNN_VS>
1.5525906086

> <CNNaffinity_variance>
0.0575111434

$$$$
[H]c1nc(N([H])c2c([H])c(OC([H])([H])[H])c(OC([H])([H])[H])c(OC([H])([H])[H])c2[H])nc(N([H])c2nc3c(c([H])c2[H])OC(C([H])([H])[H])(C([H])([H])[H])C(=O)N3[H])c1F


 37 40  0  0  0  0  0  0  0  0999 V2000
   35.3404  -15.6919   36.5040 C   0  0  0  0  0  0  0  0  0  0  0  0
   36.3827  -16.2312   35.8605 N   0  0  0  0  0  0  0  0  0  0  0  0
   36.3053  -17.2051   34.9512 C   0  0  0  0  0  0  0  0  0  0  0  0
   35.0802  -17.7079   34.6347 C   0  0  0  0  0  0  0  0  0  0  0  0
   34.8628  -18.6837   33.7417 F   0  0  0  0  0  0  0  0  0  0  0  0
   33.9461  -17.1846   35.2750 C   0  0  0  0  0  0  0  0  0  0  0  0
   34.1300  -16.2100   36.1711 N   0  0  0  0  0  0  0  0  0  0  0  0
   35.3895  -14.6667   37.4651 N   0  0  0  0  0  0  0  0  0  0  0  0
   36.1825  -14.7542   38.1807 H   0  0  0  0  0  0  0  0  0  0  0  0
   32.4336  -12.4598   38.1103 C   0  0  0  0  0  0  0  0  0  0  0  0
   33.2578  -13.5934   38.0632 C   0  0  0  0  0  0  0  0  0  0  0  0
   34.5106  -13.5723   37.5660 C   0  0  0  0  0  0  0  0  0  0  0  0
   34.9707  -12.3305   37.0834 C   0  0  0  0  0  0  0  0  0  0  0  0
   34.1917  -11.2034   37.1148 C   0  0  0  0  0  0  0  0  0  0  0  0
   32.9116  -11.2541   37.6292 C   0  0  0  0  0  0  0  0  0  0  0  0
   30.9813  -13.1197   39.9106 C   0  0  0  0  0  0  0  0  0  0  0  0
   31.1597  -12.5639   38.6354 O   0  0  0  0  0  0  0  0  0  0  0  0
   34.6732  -10.0135   36.6365 O   0  0  0  0  0  0  0  0  0  0  0  0
   35.6020  -10.0200   35.5726 C   0  0  0  0  0  0  0  0  0  0  0  0
   32.0819  -10.1360   37.6823 O   0  0  0  0  0  0  0  0  0  0  0  0
   30.7641  -10.2581   37.1635 C   0  0  0  0  0  0  0  0  0  0  0  0
   32.6584  -17.6873   34.9667 N   0  0  0  0  0  0  0  0  0  0  0  0
   32.0429  -17.1441   34.3465 H   0  0  0  0  0  0  0  0  0  0  0  0
   32.2493  -18.9257   35.5199 C   0  0  0  0  0  0  0  0  0  0  0  0
   33.1225  -19.6692   36.3277 C   0  0  0  0  0  0  0  0  0  0  0  0
   32.7120  -20.8701   36.8583 C   0  0  0  0  0  0  0  0  0  0  0  0
   31.4508  -21.3613   36.6107 C   0  0  0  0  0  0  0  0  0  0  0  0
   31.0043  -22.5685   37.1296 O   0  0  0  0  0  0  0  0  0  0  0  0
   29.9318  -23.2909   36.5445 C   0  0  0  0  0  0  0  0  0  0  0  0
   29.3135  -24.2167   37.5528 C   0  0  0  0  0  0  0  0  0  0  0  0
   30.4201  -24.0523   35.3405 C   0  0  0  0  0  0  0  0  0  0  0  0
   28.8644  -22.3467   36.0931 C   0  0  0  0  0  0  0  0  0  0  0  0
   27.6371  -22.6557   36.2034 O   0  0  0  0  0  0  0  0  0  0  0  0
   29.2861  -21.1122   35.5458 N   0  0  0  0  0  0  0  0  0  0  0  0
   30.5898  -20.6155   35.8068 C   0  0  0  0  0  0  0  0  0  0  0  0
   31.0354  -19.4493   35.3114 N   0  0  0  0  0  0  0  0  0  0  0  0
   28.6278  -20.5762   34.9512 H   0  0  0  0  0  0  0  0  0  0  0  0
 16 17  1  0  0  0
 17 10  1  0  0  0
 10 11  2  0  0  0
 11 12  1  0  0  0
 12  8  1  0  0  0
  8  1  1  0  0  0
  1  2  2  0  0  0
  2  3  1  0  0  0
  3  4  2  0  0  0
  4  5  1  0  0  0
  4  6  1  0  0  0
  6 22  1  0  0  0
 22 24  1  0  0  0
 24 25  2  0  0  0
 25 26  1  0  0  0
 26 27  2  0  0  0
 27 28  1  0  0  0
 28 29  1  0  0  0
 29 30  1  0  0  0
 29 31  1  0  0  0
 29 32  1  0  0  0
 32 33  2  0  0  0
 32 34  1  0  0  0
 34 35  1  0  0  0
 35 36  2  0  0  0
  6  7  2  0  0  0
 12 13  2  0  0  0
 13 14  1  0  0  0
 14 18  1  0  0  0
 18 19  1  0  0  0
 14 15  2  0  0  0
 15 20  1  0  0  0
 20 21  1  0  0  0
 15 10  1  0  0  0
  7  1  1  0  0  0
 36 24  1  0  0  0
 35 27  1  0  0  0
  8  9  1  0  0  0
 22 23  1  0  0  0
 34 37  1  0  0  0
M  END
> <minimizedAffinity>
-7.60347

> <CNNscore>
0.2398820817

> <CNNaffinity>
6.1596460342

> <CNN_VS>
1.4775887728

> <CNNaffinity_variance>
0.2402324229

$$$$
[H]c1nc(N([H])c2c([H])c(OC([H])([H])[H])c(OC([H])([H])[H])c(OC([H])([H])[H])c2[H])nc(N([H])c2nc3c(c([H])c2[H])OC(C([H])([H])[H])(C([H])([H])[H])C(=O)N3[H])c1F


 37 40  0  0  0  0  0  0  0  0999 V2000
   34.5553  -14.0752   37.5745 C   0  0  0  0  0  0  0  0  0  0  0  0
   35.8787  -14.1812   37.4057 N   0  0  0  0  0  0  0  0  0  0  0  0
   36.4802  -14.9832   36.5246 C   0  0  0  0  0  0  0  0  0  0  0  0
   35.7089  -15.7664   35.7211 C   0  0  0  0  0  0  0  0  0  0  0  0
   36.1839  -16.6136   34.7972 F   0  0  0  0  0  0  0  0  0  0  0  0
   34.3127  -15.7018   35.8488 C   0  0  0  0  0  0  0  0  0  0  0  0
   33.8080  -14.8661   36.7618 N   0  0  0  0  0  0  0  0  0  0  0  0
   33.8928  -13.2409   38.4923 N   0  0  0  0  0  0  0  0  0  0  0  0
   34.3895  -13.1189   39.4340 H   0  0  0  0  0  0  0  0  0  0  0  0
   31.2359  -10.7987   37.4922 C   0  0  0  0  0  0  0  0  0  0  0  0
   32.4900  -11.4091   37.6375 C   0  0  0  0  0  0  0  0  0  0  0  0
   32.6692  -12.5770   38.2866 C   0  0  0  0  0  0  0  0  0  0  0  0
   31.5131  -13.1757   38.8268 C   0  0  0  0  0  0  0  0  0  0  0  0
   30.2728  -12.6064   38.7026 C   0  0  0  0  0  0  0  0  0  0  0  0
   30.1184  -11.4090   38.0330 C   0  0  0  0  0  0  0  0  0  0  0  0
   31.9553   -8.5243   37.1840 C   0  0  0  0  0  0  0  0  0  0  0  0
   31.1354   -9.5997   36.8125 O   0  0  0  0  0  0  0  0  0  0  0  0
   29.1714  -13.2178   39.2410 O   0  0  0  0  0  0  0  0  0  0  0  0
   29.3428  -14.1782   40.2623 C   0  0  0  0  0  0  0  0  0  0  0  0
   28.8788  -10.7913   37.8809 O   0  0  0  0  0  0  0  0  0  0  0  0
   28.4132   -9.9614   38.9369 C   0  0  0  0  0  0  0  0  0  0  0  0
   33.4842  -16.5044   35.0270 N   0  0  0  0  0  0  0  0  0  0  0  0
   33.1357  -16.1205   34.1384 H   0  0  0  0  0  0  0  0  0  0  0  0
   33.1555  -17.8164   35.4488 C   0  0  0  0  0  0  0  0  0  0  0  0
   34.0842  -18.5906   36.1598 C   0  0  0  0  0  0  0  0  0  0  0  0
   33.7517  -19.8630   36.5632 C   0  0  0  0  0  0  0  0  0  0  0  0
   32.5151  -20.3965   36.2810 C   0  0  0  0  0  0  0  0  0  0  0  0
   32.1467  -21.6759   36.6725 O   0  0  0  0  0  0  0  0  0  0  0  0
   31.1047  -22.3918   36.0273 C   0  0  0  0  0  0  0  0  0  0  0  0
   30.5587  -23.4542   36.9380 C   0  0  0  0  0  0  0  0  0  0  0  0
   31.6110  -22.9908   34.7417 C   0  0  0  0  0  0  0  0  0  0  0  0
   29.9779  -21.4676   35.6949 C   0  0  0  0  0  0  0  0  0  0  0  0
   28.7720  -21.8565   35.7878 O   0  0  0  0  0  0  0  0  0  0  0  0
   30.3195  -20.1594   35.2784 N   0  0  0  0  0  0  0  0  0  0  0  0
   31.5985  -19.6196   35.5740 C   0  0  0  0  0  0  0  0  0  0  0  0
   31.9688  -18.3834   35.2014 N   0  0  0  0  0  0  0  0  0  0  0  0
   29.6209  -19.6016   34.7540 H   0  0  0  0  0  0  0  0  0  0  0  0
 16 17  1  0  0  0
 17 10  1  0  0  0
 10 11  2  0  0  0
 11 12  1  0  0  0
 12  8  1  0  0  0
  8  1  1  0  0  0
  1  2  2  0  0  0
  2  3  1  0  0  0
  3  4  2  0  0  0
  4  5  1  0  0  0
  4  6  1  0  0  0
  6 22  1  0  0  0
 22 24  1  0  0  0
 24 25  2  0  0  0
 25 26  1  0  0  0
 26 27  2  0  0  0
 27 28  1  0  0  0
 28 29  1  0  0  0
 29 30  1  0  0  0
 29 31  1  0  0  0
 29 32  1  0  0  0
 32 33  2  0  0  0
 32 34  1  0  0  0
 34 35  1  0  0  0
 35 36  2  0  0  0
  6  7  2  0  0  0
 12 13  2  0  0  0
 13 14  1  0  0  0
 14 18  1  0  0  0
 18 19  1  0  0  0
 14 15  2  0  0  0
 15 20  1  0  0  0
 20 21  1  0  0  0
 15 10  1  0  0  0
  7  1  1  0  0  0
 36 24  1  0  0  0
 35 27  1  0  0  0
  8  9  1  0  0  0
 22 23  1  0  0  0
 34 37  1  0  0  0
M  END
> <minimizedAffinity>
-7.48594

> <CNNscore>
0.2320276797

> <CNNaffinity>
6.2297439575

> <CNN_VS>
1.4454730749

> <CNNaffinity_variance>
0.2224923372

$$$$
[H]c1nc(N([H])c2c([H])c(OC([H])([H])[H])c(OC([H])([H])[H])c(OC([H])([H])[H])c2[H])nc(N([H])c2nc3c(c([H])c2[H])OC(C([H])([H])[H])(C([H])([H])[H])C(=O)N3[H])c1F


 37 40  0  0  0  0  0  0  0  0999 V2000
   33.4990  -19.7304   35.5223 C   0  0  0  0  0  0  0  0  0  0  0  0
   33.8720  -20.3194   36.6648 N   0  0  0  0  0  0  0  0  0  0  0  0
   34.8565  -19.8987   37.4616 C   0  0  0  0  0  0  0  0  0  0  0  0
   35.5529  -18.7837   37.1070 C   0  0  0  0  0  0  0  0  0  0  0  0
   36.5616  -18.2562   37.8149 F   0  0  0  0  0  0  0  0  0  0  0  0
   35.2105  -18.1192   35.9190 C   0  0  0  0  0  0  0  0  0  0  0  0
   34.2083  -18.6209   35.1905 N   0  0  0  0  0  0  0  0  0  0  0  0
   32.4676  -20.1487   34.6629 N   0  0  0  0  0  0  0  0  0  0  0  0
   32.4183  -19.6280   33.7275 H   0  0  0  0  0  0  0  0  0  0  0  0
   29.4369  -22.0629   35.7466 C   0  0  0  0  0  0  0  0  0  0  0  0
   30.3174  -20.9987   35.5042 C   0  0  0  0  0  0  0  0  0  0  0  0
   31.5222  -21.1586   34.9209 C   0  0  0  0  0  0  0  0  0  0  0  0
   31.8693  -22.4744   34.5539 C   0  0  0  0  0  0  0  0  0  0  0  0
   31.0325  -23.5368   34.7758 C   0  0  0  0  0  0  0  0  0  0  0  0
   29.8043  -23.3441   35.3759 C   0  0  0  0  0  0  0  0  0  0  0  0
   28.1857  -21.2901   37.6498 C   0  0  0  0  0  0  0  0  0  0  0  0
   28.2187  -21.8165   36.3504 O   0  0  0  0  0  0  0  0  0  0  0  0
   31.4042  -24.8022   34.4053 O   0  0  0  0  0  0  0  0  0  0  0  0
   31.0520  -25.2798   33.1237 C   0  0  0  0  0  0  0  0  0  0  0  0
   28.9196  -24.3919   35.6227 O   0  0  0  0  0  0  0  0  0  0  0  0
   28.9934  -25.0441   36.8836 C   0  0  0  0  0  0  0  0  0  0  0  0
   35.9167  -16.9569   35.5239 N   0  0  0  0  0  0  0  0  0  0  0  0
   36.7002  -17.0461   34.8631 H   0  0  0  0  0  0  0  0  0  0  0  0
   35.5272  -15.6998   36.0484 C   0  0  0  0  0  0  0  0  0  0  0  0
   36.4704  -14.8567   36.6543 C   0  0  0  0  0  0  0  0  0  0  0  0
   36.0782  -13.6387   37.1594 C   0  0  0  0  0  0  0  0  0  0  0  0
   34.7676  -13.2268   37.0815 C   0  0  0  0  0  0  0  0  0  0  0  0
   34.3377  -12.0053   37.5804 O   0  0  0  0  0  0  0  0  0  0  0  0
   32.9803  -11.7632   37.9171 C   0  0  0  0  0  0  0  0  0  0  0  0
   32.6930  -10.2890   37.9022 C   0  0  0  0  0  0  0  0  0  0  0  0
   32.6697  -12.3602   39.2643 C   0  0  0  0  0  0  0  0  0  0  0  0
   32.0807  -12.4028   36.9091 C   0  0  0  0  0  0  0  0  0  0  0  0
   31.0057  -11.8318   36.5454 O   0  0  0  0  0  0  0  0  0  0  0  0
   32.4828  -13.6561   36.3906 N   0  0  0  0  0  0  0  0  0  0  0  0
   33.8373  -14.0714   36.4775 C   0  0  0  0  0  0  0  0  0  0  0  0
   34.2675  -15.2506   35.9993 N   0  0  0  0  0  0  0  0  0  0  0  0
   31.7725  -14.2663   35.9463 H   0  0  0  0  0  0  0  0  0  0  0  0
 16 17  1  0  0  0
 17 10  1  0  0  0
 10 11  2  0  0  0
 11 12  1  0  0  0
 12  8  1  0  0  0
  8  1  1  0  0  0
  1  2  2  0  0  0
  2  3  1  0  0  0
  3  4  2  0  0  0
  4  5  1  0  0  0
  4  6  1  0  0  0
  6 22  1  0  0  0
 22 24  1  0  0  0
 24 25  2  0  0  0
 25 26  1  0  0  0
 26 27  2  0  0  0
 27 28  1  0  0  0
 28 29  1  0  0  0
 29 30  1  0  0  0
 29 31  1  0  0  0
 29 32  1  0  0  0
 32 33  2  0  0  0
 32 34  1  0  0  0
 34 35  1  0  0  0
 35 36  2  0  0  0
  6  7  2  0  0  0
 12 13  2  0  0  0
 13 14  1  0  0  0
 14 18  1  0  0  0
 18 19  1  0  0  0
 14 15  2  0  0  0
 15 20  1  0  0  0
 20 21  1  0  0  0
 15 10  1  0  0  0
  7  1  1  0  0  0
 36 24  1  0  0  0
 35 27  1  0  0  0
  8  9  1  0  0  0
 22 23  1  0  0  0
 34 37  1  0  0  0
M  END
> <minimizedAffinity>
-7.74778

> <CNNscore>
0.2159059048

> <CNNaffinity>
6.0882019997

> <CNN_VS>
1.3144787550

> <CNNaffinity_variance>
0.0598757640

$$$$
[H]c1nc(N([H])c2c([H])c(OC([H])([H])[H])c(OC([H])([H])[H])c(OC([H])([H])[H])c2[H])nc(N([H])c2nc3c(c([H])c2[H])OC(C([H])([H])[H])(C([H])([H])[H])C(=O)N3[H])c1F


 37 40  0  0  0  0  0  0  0  0999 V2000
   33.2070  -13.0196   36.8140 C   0  0  0  0  0  0  0  0  0  0  0  0
   34.1915  -12.6972   37.6615 N   0  0  0  0  0  0  0  0  0  0  0  0
   35.3518  -13.3467   37.7758 C   0  0  0  0  0  0  0  0  0  0  0  0
   35.5773  -14.4271   36.9784 C   0  0  0  0  0  0  0  0  0  0  0  0
   36.6957  -15.1658   36.9919 F   0  0  0  0  0  0  0  0  0  0  0  0
   34.5833  -14.8172   36.0675 C   0  0  0  0  0  0  0  0  0  0  0  0
   33.4557  -14.1002   36.0300 N   0  0  0  0  0  0  0  0  0  0  0  0
   31.9756  -12.3561   36.6702 N   0  0  0  0  0  0  0  0  0  0  0  0
   31.7730  -11.9855   35.6853 H   0  0  0  0  0  0  0  0  0  0  0  0
   29.2447  -10.9515   38.8133 C   0  0  0  0  0  0  0  0  0  0  0  0
   30.1576  -11.1069   37.7602 C   0  0  0  0  0  0  0  0  0  0  0  0
   31.0189  -12.1407   37.6796 C   0  0  0  0  0  0  0  0  0  0  0  0
   30.9621  -13.0847   38.7246 C   0  0  0  0  0  0  0  0  0  0  0  0
   30.0821  -12.9633   39.7682 C   0  0  0  0  0  0  0  0  0  0  0  0
   29.2114  -11.8936   39.8257 C   0  0  0  0  0  0  0  0  0  0  0  0
   28.8596   -8.6271   39.2975 C   0  0  0  0  0  0  0  0  0  0  0  0
   28.3942   -9.8624   38.8238 O   0  0  0  0  0  0  0  0  0  0  0  0
   30.0557  -13.9011   40.7664 O   0  0  0  0  0  0  0  0  0  0  0  0
   29.4116  -15.1371   40.5382 C   0  0  0  0  0  0  0  0  0  0  0  0
   28.2993  -11.7265   40.8657 O   0  0  0  0  0  0  0  0  0  0  0  0
   27.0041  -12.2926   40.7143 C   0  0  0  0  0  0  0  0  0  0  0  0
   34.7889  -15.9368   35.2249 N   0  0  0  0  0  0  0  0  0  0  0  0
   35.3436  -15.8233   34.3659 H   0  0  0  0  0  0  0  0  0  0  0  0
   34.2256  -17.1857   35.5854 C   0  0  0  0  0  0  0  0  0  0  0  0
   34.9643  -18.1107   36.3379 C   0  0  0  0  0  0  0  0  0  0  0  0
   34.4049  -19.3197   36.6809 C   0  0  0  0  0  0  0  0  0  0  0  0
   33.1236  -19.6430   36.2975 C   0  0  0  0  0  0  0  0  0  0  0  0
   32.5286  -20.8530   36.6260 O   0  0  0  0  0  0  0  0  0  0  0  0
   31.4367  -21.3816   35.8892 C   0  0  0  0  0  0  0  0  0  0  0  0
   30.6630  -22.3574   36.7290 C   0  0  0  0  0  0  0  0  0  0  0  0
   31.9350  -22.0327   34.6261 C   0  0  0  0  0  0  0  0  0  0  0  0
   30.4988  -20.2831   35.5045 C   0  0  0  0  0  0  0  0  0  0  0  0
   29.2429  -20.4748   35.5013 O   0  0  0  0  0  0  0  0  0  0  0  0
   31.0737  -19.0400   35.1501 N   0  0  0  0  0  0  0  0  0  0  0  0
   32.3969  -18.7174   35.5499 C   0  0  0  0  0  0  0  0  0  0  0  0
   32.9854  -17.5507   35.2392 N   0  0  0  0  0  0  0  0  0  0  0  0
   30.5134  -18.3687   34.5937 H   0  0  0  0  0  0  0  0  0  0  0  0
 16 17  1  0  0  0
 17 10  1  0  0  0
 10 11  2  0  0  0
 11 12  1  0  0  0
 12  8  1  0  0  0
  8  1  1  0  0  0
  1  2  2  0  0  0
  2  3  1  0  0  0
  3  4  2  0  0  0
  4  5  1  0  0  0
  4  6  1  0  0  0
  6 22  1  0  0  0
 22 24  1  0  0  0
 24 25  2  0  0  0
 25 26  1  0  0  0
 26 27  2  0  0  0
 27 28  1  0  0  0
 28 29  1  0  0  0
 29 30  1  0  0  0
 29 31  1  0  0  0
 29 32  1  0  0  0
 32 33  2  0  0  0
 32 34  1  0  0  0
 34 35  1  0  0  0
 35 36  2  0  0  0
  6  7  2  0  0  0
 12 13  2  0  0  0
 13 14  1  0  0  0
 14 18  1  0  0  0
 18 19  1  0  0  0
 14 15  2  0  0  0
 15 20  1  0  0  0
 20 21  1  0  0  0
 15 10  1  0  0  0
  7  1  1  0  0  0
 36 24  1  0  0  0
 35 27  1  0  0  0
  8  9  1  0  0  0
 22 23  1  0  0  0
 34 37  1  0  0  0
M  END
> <minimizedAffinity>
-7.89327

> <CNNscore>
0.1840997636

> <CNNaffinity>
6.1742739677

> <CNN_VS>
1.1366823912

> <CNNaffinity_variance>
0.3189632893

$$$$
[H]c1nc(N([H])[H])c(O[C@@]([H])(c2c([H])c([H])c(F)c([H])c2F)C([H])([H])[H])c([H])c1-c1c([H])c(F)c(F)c(C(F)(F)F)c1[H]


 32 34  0  0  0  0  0  0  0  0999 V2000
   33.8682  -18.2550   35.0549 C   0  0  0  0  0  0  0  0  0  0  0  0
   32.6936  -18.8719   35.5389 C   0  0  0  0  0  0  0  0  0  0  0  0
   32.2627  -20.0292   34.9557 C   0  0  0  0  0  0  0  0  0  0  0  0
   32.9922  -20.5554   33.9123 C   0  0  0  0  0  0  0  0  0  0  0  0
   34.1054  -19.9530   33.4685 N   0  0  0  0  0  0  0  0  0  0  0  0
   34.5747  -18.8068   34.0102 C   0  0  0  0  0  0  0  0  0  0  0  0
   35.7820  -18.2229   33.4860 N   0  0  0  0  0  0  0  0  0  0  0  0
   35.7318  -17.5041   32.7396 H   0  0  0  0  0  0  0  0  0  0  0  0
   36.6945  -18.5126   33.8462 H   0  0  0  0  0  0  0  0  0  0  0  0
   31.0519  -20.7475   35.3824 C   0  0  0  0  0  0  0  0  0  0  0  0
   29.9775  -20.0528   35.8917 C   0  0  0  0  0  0  0  0  0  0  0  0
   28.8452  -20.7338   36.2896 C   0  0  0  0  0  0  0  0  0  0  0  0
   27.7725  -20.0639   36.7950 F   0  0  0  0  0  0  0  0  0  0  0  0
   28.7913  -22.0991   36.1776 C   0  0  0  0  0  0  0  0  0  0  0  0
   27.6569  -22.7570   36.5789 F   0  0  0  0  0  0  0  0  0  0  0  0
   29.8699  -22.8009   35.6658 C   0  0  0  0  0  0  0  0  0  0  0  0
   30.9974  -22.1161   35.2703 C   0  0  0  0  0  0  0  0  0  0  0  0
   29.7863  -24.2984   35.5520 C   0  0  0  0  0  0  0  0  0  0  0  0
   29.7572  -24.7986   36.8374 F   0  0  0  0  0  0  0  0  0  0  0  0
   30.9134  -24.7461   34.8907 F   0  0  0  0  0  0  0  0  0  0  0  0
   28.6303  -24.5934   34.8818 F   0  0  0  0  0  0  0  0  0  0  0  0
   34.2242  -17.1270   35.6791 O   0  0  0  0  0  0  0  0  0  0  0  0
   36.0195  -16.9611   37.2670 C   0  0  0  0  0  0  0  0  0  0  0  0
   35.3258  -16.4133   35.9976 C   0  0  0  0  0  0  0  0  0  0  0  0
   34.9538  -14.9852   36.3407 C   0  0  0  0  0  0  0  0  0  0  0  0
   33.6478  -14.5828   36.5075 C   0  0  0  0  0  0  0  0  0  0  0  0
   33.3054  -13.2712   36.8265 C   0  0  0  0  0  0  0  0  0  0  0  0
   34.3508  -12.3852   36.9686 C   0  0  0  0  0  0  0  0  0  0  0  0
   34.0628  -11.0832   37.2823 F   0  0  0  0  0  0  0  0  0  0  0  0
   35.6624  -12.7362   36.8133 C   0  0  0  0  0  0  0  0  0  0  0  0
   35.9594  -14.0436   36.4979 C   0  0  0  0  0  0  0  0  0  0  0  0
   37.2636  -14.4367   36.3328 F   0  0  0  0  0  0  0  0  0  0  0  0
 23 24  1  0  0  0
 24 22  1  0  0  0
 22  1  1  0  0  0
  1  2  2  0  0  0
  2  3  1  0  0  0
  3  4  2  0  0  0
  4  5  1  0  0  0
  5  6  2  0  0  0
  6  7  1  0  0  0
  3 10  1  0  0  0
 10 11  2  0  0  0
 11 12  1  0  0  0
 12 13  1  0  0  0
 12 14  2  0  0  0
 14 15  1  0  0  0
 14 16  1  0  0  0
 16 17  2  0  0  0
 16 18  1  0  0  0
 18 19  1  0  0  0
 18 20  1  0  0  0
 18 21  1  0  0  0
 24 25  1  0  0  0
 25 26  2  0  0  0
 26 27  1  0  0  0
 27 28  2  0  0  0
 28 29  1  0  0  0
 28 30  1  0  0  0
 30 31  2  0  0  0
 31 32  1  0  0  0
  6  1  1  0  0  0
 17 10  1  0  0  0
 31 25  1  0  0  0
  7  8  1  0  0  0
  7  9  1  0  0  0
M  END
> <minimizedAffinity>
-8.24555

> <CNNscore>
0.3421714306

> <CNNaffinity>
5.6845169067

> <CNN_VS>
1.9450793266

> <CNNaffinity_variance>
0.4604206085

$$$$
[H]c1nc(N([H])[H])c(O[C@@]([H])(c2c([H])c([H])c(F)c([H])c2F)C([H])([H])[H])c([H])c1-c1c([H])c(F)c(F)c(C(F)(F)F)c1[H]


 32 34  0  0  0  0  0  0  0  0999 V2000
   34.4922  -17.0671   35.3368 C   0  0  0  0  0  0  0  0  0  0  0  0
   35.8948  -17.2317   35.3440 C   0  0  0  0  0  0  0  0  0  0  0  0
   36.4186  -18.4749   35.1320 C   0  0  0  0  0  0  0  0  0  0  0  0
   35.5567  -19.5280   34.9175 C   0  0  0  0  0  0  0  0  0  0  0  0
   34.2275  -19.3492   34.9145 N   0  0  0  0  0  0  0  0  0  0  0  0
   33.6580  -18.1403   35.1193 C   0  0  0  0  0  0  0  0  0  0  0  0
   32.2230  -18.0244   35.0928 N   0  0  0  0  0  0  0  0  0  0  0  0
   31.6776  -18.1026   35.9719 H   0  0  0  0  0  0  0  0  0  0  0  0
   31.7339  -17.8641   34.2089 H   0  0  0  0  0  0  0  0  0  0  0  0
   37.8632  -18.7528   35.1230 C   0  0  0  0  0  0  0  0  0  0  0  0
   38.5955  -18.5766   33.9702 C   0  0  0  0  0  0  0  0  0  0  0  0
   39.9502  -18.8392   33.9699 C   0  0  0  0  0  0  0  0  0  0  0  0
   40.6910  -18.6702   32.8397 F   0  0  0  0  0  0  0  0  0  0  0  0
   40.5645  -19.2747   35.1156 C   0  0  0  0  0  0  0  0  0  0  0  0
   41.9117  -19.5303   35.0942 F   0  0  0  0  0  0  0  0  0  0  0  0
   39.8311  -19.4530   36.2767 C   0  0  0  0  0  0  0  0  0  0  0  0
   38.4795  -19.1894   36.2712 C   0  0  0  0  0  0  0  0  0  0  0  0
   40.5280  -19.9307   37.5211 C   0  0  0  0  0  0  0  0  0  0  0  0
   41.2201  -21.0746   37.1808 F   0  0  0  0  0  0  0  0  0  0  0  0
   39.5681  -20.2184   38.4718 F   0  0  0  0  0  0  0  0  0  0  0  0
   41.3817  -18.9377   37.9183 F   0  0  0  0  0  0  0  0  0  0  0  0
   34.0586  -15.8202   35.5507 O   0  0  0  0  0  0  0  0  0  0  0  0
   33.0691  -13.7070   36.1229 C   0  0  0  0  0  0  0  0  0  0  0  0
   33.9472  -14.9094   36.5419 C   0  0  0  0  0  0  0  0  0  0  0  0
   35.3001  -14.3105   36.8687 C   0  0  0  0  0  0  0  0  0  0  0  0
   35.7068  -13.0924   36.3728 C   0  0  0  0  0  0  0  0  0  0  0  0
   36.9486  -12.5396   36.6757 C   0  0  0  0  0  0  0  0  0  0  0  0
   37.7600  -13.2810   37.5063 C   0  0  0  0  0  0  0  0  0  0  0  0
   38.9916  -12.7776   37.8325 F   0  0  0  0  0  0  0  0  0  0  0  0
   37.4015  -14.4941   38.0235 C   0  0  0  0  0  0  0  0  0  0  0  0
   36.1647  -15.0064   37.6999 C   0  0  0  0  0  0  0  0  0  0  0  0
   35.7668  -16.2215   38.1978 F   0  0  0  0  0  0  0  0  0  0  0  0
 23 24  1  0  0  0
 24 22  1  0  0  0
 22  1  1  0  0  0
  1  2  2  0  0  0
  2  3  1  0  0  0
  3  4  2  0  0  0
  4  5  1  0  0  0
  5  6  2  0  0  0
  6  7  1  0  0  0
  3 10  1  0  0  0
 10 11  2  0  0  0
 11 12  1  0  0  0
 12 13  1  0  0  0
 12 14  2  0  0  0
 14 15  1  0  0  0
 14 16  1  0  0  0
 16 17  2  0  0  0
 16 18  1  0  0  0
 18 19  1  0  0  0
 18 20  1  0  0  0
 18 21  1  0  0  0
 24 25  1  0  0  0
 25 26  2  0  0  0
 26 27  1  0  0  0
 27 28  2  0  0  0
 28 29  1  0  0  0
 28 30  1  0  0  0
 30 31  2  0  0  0
 31 32  1  0  0  0
  6  1  1  0  0  0
 17 10  1  0  0  0
 31 25  1  0  0  0
  7  8  1  0  0  0
  7  9  1  0  0  0
M  END
> <minimizedAffinity>
-7.30375

> <CNNscore>
0.2577765286

> <CNNaffinity>
5.8064641953

> <CNN_VS>
1.4967701435

> <CNNaffinity_variance>
0.2946442962

$$$$
[H]c1nc(N([H])[H])c(O[C@@]([H])(c2c([H])c([H])c(F)c([H])c2F)C([H])([H])[H])c([H])c1-c1c([H])c(F)c(F)c(C(F)(F)F)c1[H]


 32 34  0  0  0  0  0  0  0  0999 V2000
   35.7959  -17.3647   34.8945 C   0  0  0  0  0  0  0  0  0  0  0  0
   34.4670  -17.7868   35.1190 C   0  0  0  0  0  0  0  0  0  0  0  0
   34.1080  -19.0596   34.7783 C   0  0  0  0  0  0  0  0  0  0  0  0
   35.0588  -19.8895   34.2259 C   0  0  0  0  0  0  0  0  0  0  0  0
   36.3156  -19.4681   34.0216 N   0  0  0  0  0  0  0  0  0  0  0  0
   36.7224  -18.2190   34.3406 C   0  0  0  0  0  0  0  0  0  0  0  0
   38.0908  -17.8411   34.1000 N   0  0  0  0  0  0  0  0  0  0  0  0
   38.3557  -17.3824   33.2078 H   0  0  0  0  0  0  0  0  0  0  0  0
   38.8084  -18.0220   34.8061 H   0  0  0  0  0  0  0  0  0  0  0  0
   32.7510  -19.5951   34.9678 C   0  0  0  0  0  0  0  0  0  0  0  0
   31.6616  -18.7540   34.9220 C   0  0  0  0  0  0  0  0  0  0  0  0
   30.3919  -19.2640   35.1005 C   0  0  0  0  0  0  0  0  0  0  0  0
   29.3024  -18.4478   35.0579 F   0  0  0  0  0  0  0  0  0  0  0  0
   30.2167  -20.6054   35.3230 C   0  0  0  0  0  0  0  0  0  0  0  0
   28.9467  -21.0921   35.4982 F   0  0  0  0  0  0  0  0  0  0  0  0
   31.3100  -21.4542   35.3697 C   0  0  0  0  0  0  0  0  0  0  0  0
   32.5749  -20.9397   35.1909 C   0  0  0  0  0  0  0  0  0  0  0  0
   31.0920  -22.9221   35.6143 C   0  0  0  0  0  0  0  0  0  0  0  0
   30.2600  -23.3778   34.6125 F   0  0  0  0  0  0  0  0  0  0  0  0
   30.4829  -23.0703   36.8452 F   0  0  0  0  0  0  0  0  0  0  0  0
   32.3152  -23.5326   35.5550 F   0  0  0  0  0  0  0  0  0  0  0  0
   36.0681  -16.1062   35.2558 O   0  0  0  0  0  0  0  0  0  0  0  0
   36.4617  -16.2537   37.6213 C   0  0  0  0  0  0  0  0  0  0  0  0
   36.4228  -15.3855   36.3417 C   0  0  0  0  0  0  0  0  0  0  0  0
   35.3920  -14.3127   36.6283 C   0  0  0  0  0  0  0  0  0  0  0  0
   34.0384  -14.5606   36.5875 C   0  0  0  0  0  0  0  0  0  0  0  0
   33.0905  -13.5759   36.8545 C   0  0  0  0  0  0  0  0  0  0  0  0
   33.5799  -12.3262   37.1651 C   0  0  0  0  0  0  0  0  0  0  0  0
   32.6849  -11.3250   37.4354 F   0  0  0  0  0  0  0  0  0  0  0  0
   34.9132  -12.0310   37.2184 C   0  0  0  0  0  0  0  0  0  0  0  0
   35.8189  -13.0328   36.9479 C   0  0  0  0  0  0  0  0  0  0  0  0
   37.1664  -12.7776   36.9900 F   0  0  0  0  0  0  0  0  0  0  0  0
 23 24  1  0  0  0
 24 22  1  0  0  0
 22  1  1  0  0  0
  1  2  2  0  0  0
  2  3  1  0  0  0
  3  4  2  0  0  0
  4  5  1  0  0  0
  5  6  2  0  0  0
  6  7  1  0  0  0
  3 10  1  0  0  0
 10 11  2  0  0  0
 11 12  1  0  0  0
 12 13  1  0  0  0
 12 14  2  0  0  0
 14 15  1  0  0  0
 14 16  1  0  0  0
 16 17  2  0  0  0
 16 18  1  0  0  0
 18 19  1  0  0  0
 18 20  1  0  0  0
 18 21  1  0  0  0
 24 25  1  0  0  0
 25 26  2  0  0  0
 26 27  1  0  0  0
 27 28  2  0  0  0
 28 29  1  0  0  0
 28 30  1  0  0  0
 30 31  2  0  0  0
 31 32  1  0  0  0
  6  1  1  0  0  0
 17 10  1  0  0  0
 31 25  1  0  0  0
  7  8  1  0  0  0
  7  9  1  0  0  0
M  END
> <minimizedAffinity>
-7.73293

> <CNNscore>
0.2527261376

> <CNNaffinity>
5.8502283096

> <CNN_VS>
1.4785056114

> <CNNaffinity_variance>
0.3731619418

$$$$
[H]c1nc(N([H])[H])c(O[C@@]([H])(c2c([H])c([H])c(F)c([H])c2F)C([H])([H])[H])c([H])c1-c1c([H])c(F)c(F)c(C(F)(F)F)c1[H]


 32 34  0  0  0  0  0  0  0  0999 V2000
   34.6158  -18.8708   35.7739 C   0  0  0  0  0  0  0  0  0  0  0  0
   35.9561  -19.3136   35.8194 C   0  0  0  0  0  0  0  0  0  0  0  0
   36.9621  -18.4019   35.6718 C   0  0  0  0  0  0  0  0  0  0  0  0
   36.6321  -17.0777   35.4833 C   0  0  0  0  0  0  0  0  0  0  0  0
   35.3522  -16.6788   35.4436 N   0  0  0  0  0  0  0  0  0  0  0  0
   34.3196  -17.5400   35.5841 C   0  0  0  0  0  0  0  0  0  0  0  0
   32.9714  -17.0361   35.5392 N   0  0  0  0  0  0  0  0  0  0  0  0
   32.4512  -17.0187   34.6418 H   0  0  0  0  0  0  0  0  0  0  0  0
   32.5195  -16.6936   36.3905 H   0  0  0  0  0  0  0  0  0  0  0  0
   38.3886  -18.7602   35.7005 C   0  0  0  0  0  0  0  0  0  0  0  0
   39.0749  -18.7771   36.8942 C   0  0  0  0  0  0  0  0  0  0  0  0
   40.4128  -19.1145   36.9128 C   0  0  0  0  0  0  0  0  0  0  0  0
   41.1078  -19.1373   38.0838 F   0  0  0  0  0  0  0  0  0  0  0  0
   41.0562  -19.4319   35.7446 C   0  0  0  0  0  0  0  0  0  0  0  0
   42.3861  -19.7641   35.7847 F   0  0  0  0  0  0  0  0  0  0  0  0
   40.3691  -19.4160   34.5423 C   0  0  0  0  0  0  0  0  0  0  0  0
   39.0340  -19.0785   34.5297 C   0  0  0  0  0  0  0  0  0  0  0  0
   41.0969  -19.7690   33.2742 C   0  0  0  0  0  0  0  0  0  0  0  0
   41.7395  -20.9688   33.4996 F   0  0  0  0  0  0  0  0  0  0  0  0
   42.0197  -18.7747   33.0133 F   0  0  0  0  0  0  0  0  0  0  0  0
   40.1592  -19.8901   32.2849 F   0  0  0  0  0  0  0  0  0  0  0  0
   33.6900  -19.8237   35.9276 O   0  0  0  0  0  0  0  0  0  0  0  0
   32.9201  -20.3941   33.7245 C   0  0  0  0  0  0  0  0  0  0  0  0
   33.0425  -20.7738   35.2189 C   0  0  0  0  0  0  0  0  0  0  0  0
   31.6144  -20.9187   35.7038 C   0  0  0  0  0  0  0  0  0  0  0  0
   30.5777  -20.1829   35.1754 C   0  0  0  0  0  0  0  0  0  0  0  0
   29.2643  -20.3182   35.6180 C   0  0  0  0  0  0  0  0  0  0  0  0
   29.0508  -21.2358   36.6231 C   0  0  0  0  0  0  0  0  0  0  0  0
   27.7743  -21.4038   37.0912 F   0  0  0  0  0  0  0  0  0  0  0  0
   30.0460  -21.9893   37.1794 C   0  0  0  0  0  0  0  0  0  0  0  0
   31.3318  -21.8259   36.7136 C   0  0  0  0  0  0  0  0  0  0  0  0
   32.3597  -22.5626   37.2459 F   0  0  0  0  0  0  0  0  0  0  0  0
 23 24  1  0  0  0
 24 22  1  0  0  0
 22  1  1  0  0  0
  1  2  2  0  0  0
  2  3  1  0  0  0
  3  4  2  0  0  0
  4  5  1  0  0  0
  5  6  2  0  0  0
  6  7  1  0  0  0
  3 10  1  0  0  0
 10 11  2  0  0  0
 11 12  1  0  0  0
 12 13  1  0  0  0
 12 14  2  0  0  0
 14 15  1  0  0  0
 14 16  1  0  0  0
 16 17  2  0  0  0
 16 18  1  0  0  0
 18 19  1  0  0  0
 18 20  1  0  0  0
 18 21  1  0  0  0
 24 25  1  0  0  0
 25 26  2  0  0  0
 26 27  1  0  0  0
 27 28  2  0  0  0
 28 29  1  0  0  0
 28 30  1  0  0  0
 30 31  2  0  0  0
 31 32  1  0  0  0
  6  1  1  0  0  0
 17 10  1  0  0  0
 31 25  1  0  0  0
  7  8  1  0  0  0
  7  9  1  0  0  0
M  END
> <minimizedAffinity>
-6.68414

> <CNNscore>
0.1622779518

> <CNNaffinity>
5.2897596359

> <CNN_VS>
0.8584113717

> <CNNaffinity_variance>
0.1609560549

$$$$
[H]c1nc(N([H])[H])c(O[C@@]([H])(c2c([H])c([H])c(F)c([H])c2F)C([H])([H])[H])c([H])c1-c1c([H])c(F)c(F)c(C(F)(F)F)c1[H]


 32 34  0  0  0  0  0  0  0  0999 V2000
   33.2078  -12.5097   37.4173 C   0  0  0  0  0  0  0  0  0  0  0  0
   33.4903  -13.8758   37.1974 C   0  0  0  0  0  0  0  0  0  0  0  0
   34.6724  -14.2229   36.6083 C   0  0  0  0  0  0  0  0  0  0  0  0
   35.5504  -13.2242   36.2485 C   0  0  0  0  0  0  0  0  0  0  0  0
   35.2620  -11.9327   36.4669 N   0  0  0  0  0  0  0  0  0  0  0  0
   34.1068  -11.5356   37.0460 C   0  0  0  0  0  0  0  0  0  0  0  0
   33.8711  -10.1308   37.2562 N   0  0  0  0  0  0  0  0  0  0  0  0
   33.3616   -9.5754   36.5432 H   0  0  0  0  0  0  0  0  0  0  0  0
   34.2034   -9.6731   38.1085 H   0  0  0  0  0  0  0  0  0  0  0  0
   35.0603  -15.6150   36.3326 C   0  0  0  0  0  0  0  0  0  0  0  0
   36.2774  -16.0935   36.7639 C   0  0  0  0  0  0  0  0  0  0  0  0
   36.6338  -17.4005   36.5015 C   0  0  0  0  0  0  0  0  0  0  0  0
   37.8330  -17.8916   36.9206 F   0  0  0  0  0  0  0  0  0  0  0  0
   35.7771  -18.2199   35.8129 C   0  0  0  0  0  0  0  0  0  0  0  0
   36.1504  -19.5154   35.5623 F   0  0  0  0  0  0  0  0  0  0  0  0
   34.5522  -17.7420   35.3778 C   0  0  0  0  0  0  0  0  0  0  0  0
   34.2018  -16.4367   35.6424 C   0  0  0  0  0  0  0  0  0  0  0  0
   33.6293  -18.6606   34.6251 C   0  0  0  0  0  0  0  0  0  0  0  0
   33.1793  -19.6047   35.5248 F   0  0  0  0  0  0  0  0  0  0  0  0
   34.3512  -19.2684   33.6163 F   0  0  0  0  0  0  0  0  0  0  0  0
   32.5954  -17.9011   34.1489 F   0  0  0  0  0  0  0  0  0  0  0  0
   32.0315  -12.2524   37.9994 O   0  0  0  0  0  0  0  0  0  0  0  0
   30.5047  -10.4636   37.5083 C   0  0  0  0  0  0  0  0  0  0  0  0
   30.7469  -11.9814   37.6819 C   0  0  0  0  0  0  0  0  0  0  0  0
   29.8214  -12.3989   38.8065 C   0  0  0  0  0  0  0  0  0  0  0  0
   30.2861  -12.9610   39.9742 C   0  0  0  0  0  0  0  0  0  0  0  0
   29.4363  -13.3415   41.0098 C   0  0  0  0  0  0  0  0  0  0  0  0
   28.0912  -13.1253   40.8056 C   0  0  0  0  0  0  0  0  0  0  0  0
   27.2162  -13.4838   41.7969 F   0  0  0  0  0  0  0  0  0  0  0  0
   27.5816  -12.5710   39.6651 C   0  0  0  0  0  0  0  0  0  0  0  0
   28.4554  -12.2080   38.6643 C   0  0  0  0  0  0  0  0  0  0  0  0
   27.9843  -11.6489   37.5032 F   0  0  0  0  0  0  0  0  0  0  0  0
 23 24  1  0  0  0
 24 22  1  0  0  0
 22  1  1  0  0  0
  1  2  2  0  0  0
  2  3  1  0  0  0
  3  4  2  0  0  0
  4  5  1  0  0  0
  5  6  2  0  0  0
  6  7  1  0  0  0
  3 10  1  0  0  0
 10 11  2  0  0  0
 11 12  1  0  0  0
 12 13  1  0  0  0
 12 14  2  0  0  0
 14 15  1  0  0  0
 14 16  1  0  0  0
 16 17  2  0  0  0
 16 18  1  0  0  0
 18 19  1  0  0  0
 18 20  1  0  0  0
 18 21  1  0  0  0
 24 25  1  0  0  0
 25 26  2  0  0  0
 26 27  1  0  0  0
 27 28  2  0  0  0
 28 29  1  0  0  0
 28 30  1  0  0  0
 30 31  2  0  0  0
 31 32  1  0  0  0
  6  1  1  0  0  0
 17 10  1  0  0  0
 31 25  1  0  0  0
  7  8  1  0  0  0
  7  9  1  0  0  0
M  END
> <minimizedAffinity>
-9.43145

> <CNNscore>
0.1547024697

> <CNNaffinity>
5.9078197479

> <CNN_VS>
0.9139543176

> <CNNaffinity_variance>
0.5546540022

$$$$
[H]c1nc(N([H])[H])c(O[C@@]([H])(c2c([H])c([H])c(F)c([H])c2F)C([H])([H])[H])c([H])c1-c1c([H])c(F)c(F)c(C(F)(F)F)c1[H]


 32 34  0  0  0  0  0  0  0  0999 V2000
   33.4522  -12.2402   37.1228 C   0  0  0  0  0  0  0  0  0  0  0  0
   33.6188  -13.6345   36.9721 C   0  0  0  0  0  0  0  0  0  0  0  0
   34.7901  -14.1114   36.4567 C   0  0  0  0  0  0  0  0  0  0  0  0
   35.7710  -13.2119   36.1011 C   0  0  0  0  0  0  0  0  0  0  0  0
   35.5918  -11.8914   36.2530 N   0  0  0  0  0  0  0  0  0  0  0  0
   34.4523  -11.3676   36.7578 C   0  0  0  0  0  0  0  0  0  0  0  0
   34.3362   -9.9394   36.8996 N   0  0  0  0  0  0  0  0  0  0  0  0
   33.9126   -9.3731   36.1405 H   0  0  0  0  0  0  0  0  0  0  0  0
   34.6696   -9.4758   37.7482 H   0  0  0  0  0  0  0  0  0  0  0  0
   35.0616  -15.5434   36.2566 C   0  0  0  0  0  0  0  0  0  0  0  0
   36.2993  -16.0634   36.5635 C   0  0  0  0  0  0  0  0  0  0  0  0
   36.5461  -17.4076   36.3732 C   0  0  0  0  0  0  0  0  0  0  0  0
   37.7636  -17.9400   36.6717 F   0  0  0  0  0  0  0  0  0  0  0  0
   35.5604  -18.2226   35.8795 C   0  0  0  0  0  0  0  0  0  0  0  0
   35.8261  -19.5556   35.6975 F   0  0  0  0  0  0  0  0  0  0  0  0
   34.3146  -17.7031   35.5698 C   0  0  0  0  0  0  0  0  0  0  0  0
   34.0739  -16.3608   35.7617 C   0  0  0  0  0  0  0  0  0  0  0  0
   33.2494  -18.6177   35.0303 C   0  0  0  0  0  0  0  0  0  0  0  0
   32.7302  -18.0112   33.9052 F   0  0  0  0  0  0  0  0  0  0  0  0
   32.2690  -18.7563   35.9936 F   0  0  0  0  0  0  0  0  0  0  0  0
   33.8513  -19.8059   34.7166 F   0  0  0  0  0  0  0  0  0  0  0  0
   32.2789  -11.8536   37.6352 O   0  0  0  0  0  0  0  0  0  0  0  0
   31.1023   -9.7696   37.4237 C   0  0  0  0  0  0  0  0  0  0  0  0
   31.1034  -11.3073   37.2555 C   0  0  0  0  0  0  0  0  0  0  0  0
   29.9773  -11.7984   38.1423 C   0  0  0  0  0  0  0  0  0  0  0  0
   28.6559  -11.5116   37.8834 C   0  0  0  0  0  0  0  0  0  0  0  0
   27.6201  -11.9658   38.6960 C   0  0  0  0  0  0  0  0  0  0  0  0
   27.9874  -12.7255   39.7849 C   0  0  0  0  0  0  0  0  0  0  0  0
   27.0026  -13.1948   40.6135 F   0  0  0  0  0  0  0  0  0  0  0  0
   29.2841  -13.0369   40.0837 C   0  0  0  0  0  0  0  0  0  0  0  0
   30.2795  -12.5685   39.2550 C   0  0  0  0  0  0  0  0  0  0  0  0
   31.5942  -12.8582   39.5201 F   0  0  0  0  0  0  0  0  0  0  0  0
 23 24  1  0  0  0
 24 22  1  0  0  0
 22  1  1  0  0  0
  1  2  2  0  0  0
  2  3  1  0  0  0
  3  4  2  0  0  0
  4  5  1  0  0  0
  5  6  2  0  0  0
  6  7  1  0  0  0
  3 10  1  0  0  0
 10 11  2  0  0  0
 11 12  1  0  0  0
 12 13  1  0  0  0
 12 14  2  0  0  0
 14 15  1  0  0  0
 14 16  1  0  0  0
 16 17  2  0  0  0
 16 18  1  0  0  0
 18 19  1  0  0  0
 18 20  1  0  0  0
 18 21  1  0  0  0
 24 25  1  0  0  0
 25 26  2  0  0  0
 26 27  1  0  0  0
 27 28  2  0  0  0
 28 29  1  0  0  0
 28 30  1  0  0  0
 30 31  2  0  0  0
 31 32  1  0  0  0
  6  1  1  0  0  0
 17 10  1  0  0  0
 31 25  1  0  0  0
  7  8  1  0  0  0
  7  9  1  0  0  0
M  END
> <minimizedAffinity>
-9.19776

> <CNNscore>
0.1473446637

> <CNNaffinity>
6.0936613083

> <CNN_VS>
0.8978684545

> <CNNaffinity_variance>
0.4975823462

$$$$
[H]c1nc(N([H])[H])c(O[C@@]([H])(c2c([H])c([H])c(F)c([H])c2F)C([H])([H])[H])c([H])c1-c1c([H])c(F)c(F)c(C(F)(F)F)c1[H]


 32 34  0  0  0  0  0  0  0  0999 V2000
   37.6526  -18.8828   34.8778 C   0  0  0  0  0  0  0  0  0  0  0  0
   38.0911  -19.4919   36.0741 C   0  0  0  0  0  0  0  0  0  0  0  0
   39.4205  -19.7606   36.2340 C   0  0  0  0  0  0  0  0  0  0  0  0
   40.2895  -19.4263   35.2187 C   0  0  0  0  0  0  0  0  0  0  0  0
   39.8516  -18.8481   34.0906 N   0  0  0  0  0  0  0  0  0  0  0  0
   38.5471  -18.5611   33.8821 C   0  0  0  0  0  0  0  0  0  0  0  0
   38.1530  -17.9312   32.6486 N   0  0  0  0  0  0  0  0  0  0  0  0
   37.8512  -18.5092   31.8416 H   0  0  0  0  0  0  0  0  0  0  0  0
   38.1679  -16.9122   32.5613 H   0  0  0  0  0  0  0  0  0  0  0  0
   39.9780  -20.3947   37.4387 C   0  0  0  0  0  0  0  0  0  0  0  0
   41.3171  -20.7101   37.4990 C   0  0  0  0  0  0  0  0  0  0  0  0
   41.8325  -21.3046   38.6327 C   0  0  0  0  0  0  0  0  0  0  0  0
   43.1543  -21.6232   38.7110 F   0  0  0  0  0  0  0  0  0  0  0  0
   41.0121  -21.5799   39.6960 C   0  0  0  0  0  0  0  0  0  0  0  0
   41.5440  -22.1712   40.8132 F   0  0  0  0  0  0  0  0  0  0  0  0
   39.6649  -21.2640   39.6388 C   0  0  0  0  0  0  0  0  0  0  0  0
   39.1560  -20.6709   38.5048 C   0  0  0  0  0  0  0  0  0  0  0  0
   38.7854  -21.5752   40.8186 C   0  0  0  0  0  0  0  0  0  0  0  0
   37.5014  -21.2094   40.4710 F   0  0  0  0  0  0  0  0  0  0  0  0
   39.2212  -20.8250   41.8935 F   0  0  0  0  0  0  0  0  0  0  0  0
   38.8697  -22.9218   41.0473 F   0  0  0  0  0  0  0  0  0  0  0  0
   36.3377  -18.6517   34.7988 O   0  0  0  0  0  0  0  0  0  0  0  0
   34.1214  -17.7463   34.5982 C   0  0  0  0  0  0  0  0  0  0  0  0
   35.3350  -18.0776   35.4983 C   0  0  0  0  0  0  0  0  0  0  0  0
   35.7772  -16.7438   36.0650 C   0  0  0  0  0  0  0  0  0  0  0  0
   35.7635  -15.5853   35.3214 C   0  0  0  0  0  0  0  0  0  0  0  0
   36.1663  -14.3584   35.8428 C   0  0  0  0  0  0  0  0  0  0  0  0
   36.5843  -14.3611   37.1554 C   0  0  0  0  0  0  0  0  0  0  0  0
   36.9900  -13.1770   37.7121 F   0  0  0  0  0  0  0  0  0  0  0  0
   36.6159  -15.4839   37.9339 C   0  0  0  0  0  0  0  0  0  0  0  0
   36.2092  -16.6780   37.3809 C   0  0  0  0  0  0  0  0  0  0  0  0
   36.2263  -17.8285   38.1285 F   0  0  0  0  0  0  0  0  0  0  0  0
 23 24  1  0  0  0
 24 22  1  0  0  0
 22  1  1  0  0  0
  1  2  2  0  0  0
  2  3  1  0  0  0
  3  4  2  0  0  0
  4  5  1  0  0  0
  5  6  2  0  0  0
  6  7  1  0  0  0
  3 10  1  0  0  0
 10 11  2  0  0  0
 11 12  1  0  0  0
 12 13  1  0  0  0
 12 14  2  0  0  0
 14 15  1  0  0  0
 14 16  1  0  0  0
 16 17  2  0  0  0
 16 18  1  0  0  0
 18 19  1  0  0  0
 18 20  1  0  0  0
 18 21  1  0  0  0
 24 25  1  0  0  0
 25 26  2  0  0  0
 26 27  1  0  0  0
 27 28  2  0  0  0
 28 29  1  0  0  0
 28 30  1  0  0  0
 30 31  2  0  0  0
 31 32  1  0  0  0
  6  1  1  0  0  0
 17 10  1  0  0  0
 31 25  1  0  0  0
  7  8  1  0  0  0
  7  9  1  0  0  0
M  END
> <minimizedAffinity>
-6.34756

> <CNNscore>
0.1472717077

> <CNNaffinity>
5.4409379959

> <CNN_VS>
0.8012962341

> <CNNaffinity_variance>
0.3493782282

$$$$
[H]c1nc(N([H])[H])c(O[C@@]([H])(c2c([H])c([H])c(F)c([H])c2F)C([H])([H])[H])c([H])c1-c1c([H])c(F)c(F)c(C(F)(F)F)c1[H]


 32 34  0  0  0  0  0  0  0  0999 V2000
   34.5807  -13.9887   36.8554 C   0  0  0  0  0  0  0  0  0  0  0  0
   33.9548  -15.2369   36.6442 C   0  0  0  0  0  0  0  0  0  0  0  0
   34.6394  -16.2208   35.9898 C   0  0  0  0  0  0  0  0  0  0  0  0
   35.9212  -15.9595   35.5579 C   0  0  0  0  0  0  0  0  0  0  0  0
   36.4968  -14.7667   35.7694 N   0  0  0  0  0  0  0  0  0  0  0  0
   35.8633  -13.7596   36.4111 C   0  0  0  0  0  0  0  0  0  0  0  0
   36.5493  -12.5091   36.6091 N   0  0  0  0  0  0  0  0  0  0  0  0
   36.4441  -11.7420   35.9185 H   0  0  0  0  0  0  0  0  0  0  0  0
   37.1428  -12.3699   37.4304 H   0  0  0  0  0  0  0  0  0  0  0  0
   34.0773  -17.5527   35.7170 C   0  0  0  0  0  0  0  0  0  0  0  0
   33.3585  -17.7784   34.5643 C   0  0  0  0  0  0  0  0  0  0  0  0
   32.8347  -19.0305   34.3155 C   0  0  0  0  0  0  0  0  0  0  0  0
   32.1216  -19.2730   33.1807 F   0  0  0  0  0  0  0  0  0  0  0  0
   33.0302  -20.0468   35.2147 C   0  0  0  0  0  0  0  0  0  0  0  0
   32.5011  -21.2837   34.9488 F   0  0  0  0  0  0  0  0  0  0  0  0
   33.7526  -19.8233   36.3749 C   0  0  0  0  0  0  0  0  0  0  0  0
   34.2731  -18.5716   36.6181 C   0  0  0  0  0  0  0  0  0  0  0  0
   33.9543  -20.9544   37.3455 C   0  0  0  0  0  0  0  0  0  0  0  0
   34.7108  -20.4602   38.3880 F   0  0  0  0  0  0  0  0  0  0  0  0
   34.6371  -21.9650   36.6971 F   0  0  0  0  0  0  0  0  0  0  0  0
   32.7169  -21.3478   37.7776 F   0  0  0  0  0  0  0  0  0  0  0  0
   33.8453  -13.0792   37.5040 O   0  0  0  0  0  0  0  0  0  0  0  0
   33.5603  -10.7019   37.7018 C   0  0  0  0  0  0  0  0  0  0  0  0
   32.9836  -12.0679   37.2612 C   0  0  0  0  0  0  0  0  0  0  0  0
   31.7182  -12.2395   38.0766 C   0  0  0  0  0  0  0  0  0  0  0  0
   31.6563  -13.0637   39.1776 C   0  0  0  0  0  0  0  0  0  0  0  0
   30.4946  -13.2191   39.9298 C   0  0  0  0  0  0  0  0  0  0  0  0
   29.3969  -12.4986   39.5127 C   0  0  0  0  0  0  0  0  0  0  0  0
   28.2310  -12.6193   40.2217 F   0  0  0  0  0  0  0  0  0  0  0  0
   29.4087  -11.6682   38.4273 C   0  0  0  0  0  0  0  0  0  0  0  0
   30.5775  -11.5419   37.7098 C   0  0  0  0  0  0  0  0  0  0  0  0
   30.6310  -10.7188   36.6133 F   0  0  0  0  0  0  0  0  0  0  0  0
 23 24  1  0  0  0
 24 22  1  0  0  0
 22  1  1  0  0  0
  1  2  2  0  0  0
  2  3  1  0  0  0
  3  4  2  0  0  0
  4  5  1  0  0  0
  5  6  2  0  0  0
  6  7  1  0  0  0
  3 10  1  0  0  0
 10 11  2  0  0  0
 11 12  1  0  0  0
 12 13  1  0  0  0
 12 14  2  0  0  0
 14 15  1  0  0  0
 14 16  1  0  0  0
 16 17  2  0  0  0
 16 18  1  0  0  0
 18 19  1  0  0  0
 18 20  1  0  0  0
 18 21  1  0  0  0
 24 25  1  0  0  0
 25 26  2  0  0  0
 26 27  1  0  0  0
 27 28  2  0  0  0
 28 29  1  0  0  0
 28 30  1  0  0  0
 30 31  2  0  0  0
 31 32  1  0  0  0
  6  1  1  0  0  0
 17 10  1  0  0  0
 31 25  1  0  0  0
  7  8  1  0  0  0
  7  9  1  0  0  0
M  END
> <minimizedAffinity>
-7.98847

> <CNNscore>
0.1416017264

> <CNNaffinity>
5.8688473701

> <CNN_VS>
0.8310388923

> <CNNaffinity_variance>
0.4331464171

$$$$
[H]c1nc(N([H])[H])c(O[C@@]([H])(c2c([H])c([H])c(F)c([H])c2F)C([H])([H])[H])c([H])c1-c1c([H])c(F)c(F)c(C(F)(F)F)c1[H]


 32 34  0  0  0  0  0  0  0  0999 V2000
   35.4379  -16.8501   35.6105 C   0  0  0  0  0  0  0  0  0  0  0  0
   36.7874  -17.2572   35.5228 C   0  0  0  0  0  0  0  0  0  0  0  0
   37.0985  -18.3741   34.8012 C   0  0  0  0  0  0  0  0  0  0  0  0
   36.0808  -19.0662   34.1821 C   0  0  0  0  0  0  0  0  0  0  0  0
   34.8057  -18.6616   34.2783 N   0  0  0  0  0  0  0  0  0  0  0  0
   34.4442  -17.5640   34.9797 C   0  0  0  0  0  0  0  0  0  0  0  0
   33.0556  -17.1864   35.0303 N   0  0  0  0  0  0  0  0  0  0  0  0
   32.4528  -17.5198   35.8061 H   0  0  0  0  0  0  0  0  0  0  0  0
   32.6563  -16.5879   34.3033 H   0  0  0  0  0  0  0  0  0  0  0  0
   38.4704  -18.8833   34.6506 C   0  0  0  0  0  0  0  0  0  0  0  0
   38.9438  -19.2422   33.4082 C   0  0  0  0  0  0  0  0  0  0  0  0
   40.2320  -19.7187   33.2752 C   0  0  0  0  0  0  0  0  0  0  0  0
   40.7178  -20.0779   32.0547 F   0  0  0  0  0  0  0  0  0  0  0  0
   41.0378  -19.8341   34.3783 C   0  0  0  0  0  0  0  0  0  0  0  0
   42.3146  -20.3101   34.2247 F   0  0  0  0  0  0  0  0  0  0  0  0
   40.5650  -19.4740   35.6293 C   0  0  0  0  0  0  0  0  0  0  0  0
   39.2785  -18.9991   35.7561 C   0  0  0  0  0  0  0  0  0  0  0  0
   41.4685  -19.6089   36.8242 C   0  0  0  0  0  0  0  0  0  0  0  0
   41.8161  -20.9407   36.9176 F   0  0  0  0  0  0  0  0  0  0  0  0
   40.7635  -19.2195   37.9464 F   0  0  0  0  0  0  0  0  0  0  0  0
   42.5682  -18.8273   36.5954 F   0  0  0  0  0  0  0  0  0  0  0  0
   35.2161  -15.7472   36.3337 O   0  0  0  0  0  0  0  0  0  0  0  0
   36.7211  -14.6885   37.8784 C   0  0  0  0  0  0  0  0  0  0  0  0
   35.7971  -14.5679   36.6438 C   0  0  0  0  0  0  0  0  0  0  0  0
   34.7499  -13.5460   37.0373 C   0  0  0  0  0  0  0  0  0  0  0  0
   33.5822  -13.8953   37.6774 C   0  0  0  0  0  0  0  0  0  0  0  0
   32.6210  -12.9561   38.0427 C   0  0  0  0  0  0  0  0  0  0  0  0
   32.8997  -11.6442   37.7281 C   0  0  0  0  0  0  0  0  0  0  0  0
   31.9833  -10.6843   38.0680 F   0  0  0  0  0  0  0  0  0  0  0  0
   34.0437  -11.2479   37.0941 C   0  0  0  0  0  0  0  0  0  0  0  0
   34.9696  -12.2076   36.7495 C   0  0  0  0  0  0  0  0  0  0  0  0
   36.1308  -11.8514   36.1113 F   0  0  0  0  0  0  0  0  0  0  0  0
 23 24  1  0  0  0
 24 22  1  0  0  0
 22  1  1  0  0  0
  1  2  2  0  0  0
  2  3  1  0  0  0
  3  4  2  0  0  0
  4  5  1  0  0  0
  5  6  2  0  0  0
  6  7  1  0  0  0
  3 10  1  0  0  0
 10 11  2  0  0  0
 11 12  1  0  0  0
 12 13  1  0  0  0
 12 14  2  0  0  0
 14 15  1  0  0  0
 14 16  1  0  0  0
 16 17  2  0  0  0
 16 18  1  0  0  0
 18 19  1  0  0  0
 18 20  1  0  0  0
 18 21  1  0  0  0
 24 25  1  0  0  0
 25 26  2  0  0  0
 26 27  1  0  0  0
 27 28  2  0  0  0
 28 29  1  0  0  0
 28 30  1  0  0  0
 30 31  2  0  0  0
 31 32  1  0  0  0
  6  1  1  0  0  0
 17 10  1  0  0  0
 31 25  1  0  0  0
  7  8  1  0  0  0
  7  9  1  0  0  0
M  END
> <minimizedAffinity>
-8.22159

> <CNNscore>
0.1400414556

> <CNNaffinity>
5.7972779274

> <CNN_VS>
0.8118592501

> <CNNaffinity_variance>
0.2030480653

$$$$
[H]OC(=O)C([H])([H])[C@@]1([H])C(=O)N([H])[C@@]([H])(C([H])([H])c2c([H])c([H])c(O[H])c([H])c2[H])C(=O)N([H])[C@@]([H])(C([H])([H])C([H])(C([H])([H])[H])C([H])([H])[H])C(=O)N([H])[C@@]([H])(C([H])([H])c2c([H])c([H])c(O[H])c([H])c2[H])C(=O)N([H])[C@@]([H])([C@@]([H])(C([H])([H])[H])C([H])([H])C([H])([H])[H])C(=O)N1[H]


 56 58  0  0  0  0  0  0  0  0999 V2000
   40.4711  -23.9503   35.6391 C   0  0  0  0  0  0  0  0  0  0  0  0
   41.8949  -24.2100   35.6851 N   0  0  0  0  0  0  0  0  0  0  0  0
   42.7913  -23.8496   36.6905 C   0  0  0  0  0  0  0  0  0  0  0  0
   43.7159  -24.7044   36.9665 O   0  0  0  0  0  0  0  0  0  0  0  0
   42.7448  -22.5699   37.4437 C   0  0  0  0  0  0  0  0  0  0  0  0
   43.7550  -22.6228   38.4854 N   0  0  0  0  0  0  0  0  0  0  0  0
   43.5593  -22.3836   39.8552 C   0  0  0  0  0  0  0  0  0  0  0  0
   44.6218  -22.3647   40.5689 O   0  0  0  0  0  0  0  0  0  0  0  0
   42.2757  -22.1589   40.5500 C   0  0  0  0  0  0  0  0  0  0  0  0
   42.0518  -23.3552   41.3648 N   0  0  0  0  0  0  0  0  0  0  0  0
   41.0900  -24.3683   41.1499 C   0  0  0  0  0  0  0  0  0  0  0  0
   41.6153  -25.5242   40.9478 O   0  0  0  0  0  0  0  0  0  0  0  0
   39.6304  -24.2230   41.1398 C   0  0  0  0  0  0  0  0  0  0  0  0
   39.1404  -22.9850   40.5714 N   0  0  0  0  0  0  0  0  0  0  0  0
   38.3435  -22.6793   39.4758 C   0  0  0  0  0  0  0  0  0  0  0  0
   37.1939  -22.1618   39.8054 O   0  0  0  0  0  0  0  0  0  0  0  0
   38.5442  -22.8189   38.0299 C   0  0  0  0  0  0  0  0  0  0  0  0
   38.7320  -24.1491   37.5411 N   0  0  0  0  0  0  0  0  0  0  0  0
   39.8394  -24.5850   36.8108 C   0  0  0  0  0  0  0  0  0  0  0  0
   40.4073  -25.6840   37.1817 O   0  0  0  0  0  0  0  0  0  0  0  0
   42.2988  -24.7429   34.8553 H   0  0  0  0  0  0  0  0  0  0  0  0
   44.7223  -22.8837   38.1140 H   0  0  0  0  0  0  0  0  0  0  0  0
   42.7340  -23.4125   42.1862 H   0  0  0  0  0  0  0  0  0  0  0  0
   39.4820  -22.1359   41.1822 H   0  0  0  0  0  0  0  0  0  0  0  0
   37.9841  -24.8544   37.7480 H   0  0  0  0  0  0  0  0  0  0  0  0
   39.9004  -24.4996   34.3299 C   0  0  0  0  0  0  0  0  0  0  0  0
   38.5668  -23.9792   33.9633 C   0  0  0  0  0  0  0  0  0  0  0  0
   40.5455  -25.3753   32.0738 C   0  0  0  0  0  0  0  0  0  0  0  0
   40.8917  -24.4321   33.2031 C   0  0  0  0  0  0  0  0  0  0  0  0
   43.1198  -21.4588   36.4945 C   0  0  0  0  0  0  0  0  0  0  0  0
   42.0963  -21.0678   35.5397 C   0  0  0  0  0  0  0  0  0  0  0  0
   40.8462  -20.6244   35.9855 C   0  0  0  0  0  0  0  0  0  0  0  0
   39.8348  -20.2468   35.1389 C   0  0  0  0  0  0  0  0  0  0  0  0
   40.0340  -20.2971   33.7687 C   0  0  0  0  0  0  0  0  0  0  0  0
   39.0006  -19.9112   32.9216 O   0  0  0  0  0  0  0  0  0  0  0  0
   41.2465  -20.7264   33.2811 C   0  0  0  0  0  0  0  0  0  0  0  0
   42.2409  -21.0987   34.1680 C   0  0  0  0  0  0  0  0  0  0  0  0
   38.3370  -20.5923   32.6069 H   0  0  0  0  0  0  0  0  0  0  0  0
   42.3235  -21.0144   41.4979 C   0  0  0  0  0  0  0  0  0  0  0  0
   41.9656  -19.6677   41.0424 C   0  0  0  0  0  0  0  0  0  0  0  0
   41.9372  -18.7866   42.3262 C   0  0  0  0  0  0  0  0  0  0  0  0
   42.8624  -18.9476   40.1057 C   0  0  0  0  0  0  0  0  0  0  0  0
   38.8384  -25.4393   40.8325 C   0  0  0  0  0  0  0  0  0  0  0  0
   37.5109  -25.5727   41.4488 C   0  0  0  0  0  0  0  0  0  0  0  0
   37.2894  -25.4746   42.7952 C   0  0  0  0  0  0  0  0  0  0  0  0
   36.0539  -25.5654   43.3983 C   0  0  0  0  0  0  0  0  0  0  0  0
   34.9607  -25.7712   42.5863 C   0  0  0  0  0  0  0  0  0  0  0  0
   33.7079  -25.8697   43.1273 O   0  0  0  0  0  0  0  0  0  0  0  0
   35.1579  -25.8744   41.2255 C   0  0  0  0  0  0  0  0  0  0  0  0
   36.3831  -25.7829   40.6383 C   0  0  0  0  0  0  0  0  0  0  0  0
   33.5627  -25.7946   44.1185 H   0  0  0  0  0  0  0  0  0  0  0  0
   37.3729  -22.2619   37.2325 C   0  0  0  0  0  0  0  0  0  0  0  0
   37.0424  -20.8701   37.4641 C   0  0  0  0  0  0  0  0  0  0  0  0
   38.1168  -20.0480   37.8840 O   0  0  0  0  0  0  0  0  0  0  0  0
   35.9615  -20.2719   37.3544 O   0  0  0  0  0  0  0  0  0  0  0  0
   38.2878  -19.8744   38.8668 H   0  0  0  0  0  0  0  0  0  0  0  0
 28 29  1  0  0  0
 29 26  1  0  0  0
 26 27  1  0  0  0
 26  1  1  0  0  0
  1  2  1  0  0  0
  2  3  1  0  0  0
  3  4  2  0  0  0
  3  5  1  0  0  0
  5 30  1  0  0  0
 30 31  1  0  0  0
 31 32  2  0  0  0
 32 33  1  0  0  0
 33 34  2  0  0  0
 34 35  1  0  0  0
 34 36  1  0  0  0
 36 37  2  0  0  0
  5  6  1  0  0  0
  6  7  1  0  0  0
  7  8  2  0  0  0
  7  9  1  0  0  0
  9 39  1  0  0  0
 39 40  1  0  0  0
 40 41  1  0  0  0
 40 42  1  0  0  0
  9 10  1  0  0  0
 10 11  1  0  0  0
 11 12  2  0  0  0
 11 13  1  0  0  0
 13 43  1  0  0  0
 43 44  1  0  0  0
 44 45  2  0  0  0
 45 46  1  0  0  0
 46 47  2  0  0  0
 47 48  1  0  0  0
 47 49  1  0  0  0
 49 50  2  0  0  0
 13 14  1  0  0  0
 14 15  1  0  0  0
 15 16  2  0  0  0
 15 17  1  0  0  0
 17 52  1  0  0  0
 52 53  1  0  0  0
 53 54  1  0  0  0
 53 55  2  0  0  0
 17 18  1  0  0  0
 18 19  1  0  0  0
 19 20  2  0  0  0
 19  1  1  0  0  0
 37 31  1  0  0  0
 50 44  1  0  0  0
  2 21  1  0  0  0
 35 38  1  0  0  0
  6 22  1  0  0  0
 10 23  1  0  0  0
 48 51  1  0  0  0
 14 24  1  0  0  0
 54 56  1  0  0  0
 18 25  1  0  0  0
M  END
> <minimizedAffinity>
-3.09465

> <CNNscore>
0.4688116312

> <CNNaffinity>
5.3610906601

> <CNN_VS>
2.5133416653

> <CNNaffinity_variance>
1.0395038128

$$$$
[H]OC(=O)C([H])([H])[C@@]1([H])C(=O)N([H])[C@@]([H])(C([H])([H])c2c([H])c([H])c(O[H])c([H])c2[H])C(=O)N([H])[C@@]([H])(C([H])([H])C([H])(C([H])([H])[H])C([H])([H])[H])C(=O)N([H])[C@@]([H])(C([H])([H])c2c([H])c([H])c(O[H])c([H])c2[H])C(=O)N([H])[C@@]([H])([C@@]([H])(C([H])([H])[H])C([H])([H])C([H])([H])[H])C(=O)N1[H]


 56 58  0  0  0  0  0  0  0  0999 V2000
   35.1646  -21.7312   41.6166 C   0  0  0  0  0  0  0  0  0  0  0  0
   36.5068  -21.7979   42.1560 N   0  0  0  0  0  0  0  0  0  0  0  0
   37.6525  -22.2795   41.5239 C   0  0  0  0  0  0  0  0  0  0  0  0
   38.7467  -21.6388   41.7564 O   0  0  0  0  0  0  0  0  0  0  0  0
   37.6858  -23.4584   40.6207 C   0  0  0  0  0  0  0  0  0  0  0  0
   39.0225  -23.5616   40.0629 N   0  0  0  0  0  0  0  0  0  0  0  0
   39.3580  -23.6522   38.7024 C   0  0  0  0  0  0  0  0  0  0  0  0
   40.5961  -23.8603   38.4524 O   0  0  0  0  0  0  0  0  0  0  0  0
   38.4473  -23.5306   37.5461 C   0  0  0  0  0  0  0  0  0  0  0  0
   38.7907  -22.2597   36.9039 N   0  0  0  0  0  0  0  0  0  0  0  0
   38.0229  -21.0731   36.8918 C   0  0  0  0  0  0  0  0  0  0  0  0
   38.6197  -20.0835   37.4552 O   0  0  0  0  0  0  0  0  0  0  0  0
   36.6838  -20.8846   36.3237 C   0  0  0  0  0  0  0  0  0  0  0  0
   35.7924  -22.0167   36.4634 N   0  0  0  0  0  0  0  0  0  0  0  0
   34.5798  -22.2112   37.1121 C   0  0  0  0  0  0  0  0  0  0  0  0
   33.5893  -22.4302   36.2943 O   0  0  0  0  0  0  0  0  0  0  0  0
   34.2003  -22.2239   38.5285 C   0  0  0  0  0  0  0  0  0  0  0  0
   34.4097  -21.0090   39.2523 N   0  0  0  0  0  0  0  0  0  0  0  0
   35.1857  -20.8882   40.4067 C   0  0  0  0  0  0  0  0  0  0  0  0
   36.0422  -19.9228   40.4550 O   0  0  0  0  0  0  0  0  0  0  0  0
   36.6291  -21.4307   43.1489 H   0  0  0  0  0  0  0  0  0  0  0  0
   39.7866  -23.5536   40.8097 H   0  0  0  0  0  0  0  0  0  0  0  0
   39.7449  -22.3001   36.4231 H   0  0  0  0  0  0  0  0  0  0  0  0
   36.1934  -22.8754   35.9044 H   0  0  0  0  0  0  0  0  0  0  0  0
   33.9491  -20.1398   38.8889 H   0  0  0  0  0  0  0  0  0  0  0  0
   34.2220  -21.1614   42.6788 C   0  0  0  0  0  0  0  0  0  0  0  0
   34.4552  -19.7437   43.0245 C   0  0  0  0  0  0  0  0  0  0  0  0
   31.8341  -20.5565   43.1312 C   0  0  0  0  0  0  0  0  0  0  0  0
   32.7810  -21.4695   42.3865 C   0  0  0  0  0  0  0  0  0  0  0  0
   37.4390  -24.6903   41.4561 C   0  0  0  0  0  0  0  0  0  0  0  0
   36.0468  -24.9956   41.7401 C   0  0  0  0  0  0  0  0  0  0  0  0
   35.5910  -25.0528   43.0619 C   0  0  0  0  0  0  0  0  0  0  0  0
   34.2930  -25.3415   43.3994 C   0  0  0  0  0  0  0  0  0  0  0  0
   33.3656  -25.5930   42.4014 C   0  0  0  0  0  0  0  0  0  0  0  0
   32.0529  -25.8841   42.7573 O   0  0  0  0  0  0  0  0  0  0  0  0
   33.7651  -25.5487   41.0859 C   0  0  0  0  0  0  0  0  0  0  0  0
   35.0834  -25.2541   40.7869 C   0  0  0  0  0  0  0  0  0  0  0  0
   31.7813  -26.8351   42.9154 H   0  0  0  0  0  0  0  0  0  0  0  0
   38.6682  -24.5857   36.5222 C   0  0  0  0  0  0  0  0  0  0  0  0
   39.5727  -24.3381   35.3953 C   0  0  0  0  0  0  0  0  0  0  0  0
   40.4848  -25.5972   35.3077 C   0  0  0  0  0  0  0  0  0  0  0  0
   39.0161  -24.1749   34.0300 C   0  0  0  0  0  0  0  0  0  0  0  0
   36.0674  -19.5456   36.4918 C   0  0  0  0  0  0  0  0  0  0  0  0
   34.7785  -19.2912   35.8329 C   0  0  0  0  0  0  0  0  0  0  0  0
   34.5826  -19.4104   34.4843 C   0  0  0  0  0  0  0  0  0  0  0  0
   33.3804  -19.2077   33.8426 C   0  0  0  0  0  0  0  0  0  0  0  0
   32.2952  -18.8582   34.6154 C   0  0  0  0  0  0  0  0  0  0  0  0
   31.0749  -18.6439   34.0350 O   0  0  0  0  0  0  0  0  0  0  0  0
   32.4671  -18.7308   35.9775 C   0  0  0  0  0  0  0  0  0  0  0  0
   33.6596  -18.9336   36.6031 C   0  0  0  0  0  0  0  0  0  0  0  0
   30.9482  -18.7365   33.0428 H   0  0  0  0  0  0  0  0  0  0  0  0
   32.7274  -22.5565   38.7239 C   0  0  0  0  0  0  0  0  0  0  0  0
   32.3640  -23.9545   38.6077 C   0  0  0  0  0  0  0  0  0  0  0  0
   33.2242  -24.7457   37.8073 O   0  0  0  0  0  0  0  0  0  0  0  0
   31.4127  -24.5809   39.0987 O   0  0  0  0  0  0  0  0  0  0  0  0
   33.0236  -24.9074   36.8281 H   0  0  0  0  0  0  0  0  0  0  0  0
 28 29  1  0  0  0
 29 26  1  0  0  0
 26 27  1  0  0  0
 26  1  1  0  0  0
  1  2  1  0  0  0
  2  3  1  0  0  0
  3  4  2  0  0  0
  3  5  1  0  0  0
  5 30  1  0  0  0
 30 31  1  0  0  0
 31 32  2  0  0  0
 32 33  1  0  0  0
 33 34  2  0  0  0
 34 35  1  0  0  0
 34 36  1  0  0  0
 36 37  2  0  0  0
  5  6  1  0  0  0
  6  7  1  0  0  0
  7  8  2  0  0  0
  7  9  1  0  0  0
  9 39  1  0  0  0
 39 40  1  0  0  0
 40 41  1  0  0  0
 40 42  1  0  0  0
  9 10  1  0  0  0
 10 11  1  0  0  0
 11 12  2  0  0  0
 11 13  1  0  0  0
 13 43  1  0  0  0
 43 44  1  0  0  0
 44 45  2  0  0  0
 45 46  1  0  0  0
 46 47  2  0  0  0
 47 48  1  0  0  0
 47 49  1  0  0  0
 49 50  2  0  0  0
 13 14  1  0  0  0
 14 15  1  0  0  0
 15 16  2  0  0  0
 15 17  1  0  0  0
 17 52  1  0  0  0
 52 53  1  0  0  0
 53 54  1  0  0  0
 53 55  2  0  0  0
 17 18  1  0  0  0
 18 19  1  0  0  0
 19 20  2  0  0  0
 19  1  1  0  0  0
 37 31  1  0  0  0
 50 44  1  0  0  0
  2 21  1  0  0  0
 35 38  1  0  0  0
  6 22  1  0  0  0
 10 23  1  0  0  0
 48 51  1  0  0  0
 14 24  1  0  0  0
 54 56  1  0  0  0
 18 25  1  0  0  0
M  END
> <minimizedAffinity>
-2.52257

> <CNNscore>
0.4386257231

> <CNNaffinity>
5.4037528038

> <CNN_VS>
2.3702249527

> <CNNaffinity_variance>
0.6619380713

$$$$
[H]OC(=O)C([H])([H])[C@@]1([H])C(=O)N([H])[C@@]([H])(C([H])([H])c2c([H])c([H])c(O[H])c([H])c2[H])C(=O)N([H])[C@@]([H])(C([H])([H])C([H])(C([H])([H])[H])C([H])([H])[H])C(=O)N([H])[C@@]([H])(C([H])([H])c2c([H])c([H])c(O[H])c([H])c2[H])C(=O)N([H])[C@@]([H])([C@@]([H])(C([H])([H])[H])C([H])([H])C([H])([H])[H])C(=O)N1[H]


 56 58  0  0  0  0  0  0  0  0999 V2000
   32.4822  -19.5702   35.9226 C   0  0  0  0  0  0  0  0  0  0  0  0
   32.2994  -18.4544   35.0179 N   0  0  0  0  0  0  0  0  0  0  0  0
   33.1520  -17.3675   34.8278 C   0  0  0  0  0  0  0  0  0  0  0  0
   33.2715  -16.9385   33.6180 O   0  0  0  0  0  0  0  0  0  0  0  0
   33.9117  -16.6913   35.9106 C   0  0  0  0  0  0  0  0  0  0  0  0
   34.7792  -15.6991   35.3009 N   0  0  0  0  0  0  0  0  0  0  0  0
   36.1643  -15.5673   35.4906 C   0  0  0  0  0  0  0  0  0  0  0  0
   36.7000  -14.5401   34.9463 O   0  0  0  0  0  0  0  0  0  0  0  0
   37.0559  -16.4775   36.2374 C   0  0  0  0  0  0  0  0  0  0  0  0
   37.8877  -17.1344   35.2266 N   0  0  0  0  0  0  0  0  0  0  0  0
   37.8214  -18.4833   34.8099 C   0  0  0  0  0  0  0  0  0  0  0  0
   37.5304  -18.6101   33.5641 O   0  0  0  0  0  0  0  0  0  0  0  0
   38.0446  -19.6801   35.6282 C   0  0  0  0  0  0  0  0  0  0  0  0
   37.5699  -19.5884   36.9928 N   0  0  0  0  0  0  0  0  0  0  0  0
   36.6171  -20.2818   37.7278 C   0  0  0  0  0  0  0  0  0  0  0  0
   37.1289  -20.9851   38.6981 O   0  0  0  0  0  0  0  0  0  0  0  0
   35.1568  -20.3718   37.6294 C   0  0  0  0  0  0  0  0  0  0  0  0
   34.6351  -20.9138   36.4136 N   0  0  0  0  0  0  0  0  0  0  0  0
   33.7351  -20.2626   35.5679 C   0  0  0  0  0  0  0  0  0  0  0  0
   34.0034  -20.2470   34.3047 O   0  0  0  0  0  0  0  0  0  0  0  0
   31.4123  -18.4730   34.4277 H   0  0  0  0  0  0  0  0  0  0  0  0
   34.2569  -15.0365   34.6454 H   0  0  0  0  0  0  0  0  0  0  0  0
   38.5897  -16.4586   34.7863 H   0  0  0  0  0  0  0  0  0  0  0  0
   38.1244  -18.8018   37.5260 H   0  0  0  0  0  0  0  0  0  0  0  0
   34.9535  -21.8722   36.1314 H   0  0  0  0  0  0  0  0  0  0  0  0
   31.2767  -20.5068   35.8180 C   0  0  0  0  0  0  0  0  0  0  0  0
   31.1711  -21.5112   36.8969 C   0  0  0  0  0  0  0  0  0  0  0  0
   28.7800  -20.5485   36.0117 C   0  0  0  0  0  0  0  0  0  0  0  0
   29.9949  -19.7614   35.5765 C   0  0  0  0  0  0  0  0  0  0  0  0
   32.9226  -15.9625   36.7862 C   0  0  0  0  0  0  0  0  0  0  0  0
   33.1419  -14.5338   36.9374 C   0  0  0  0  0  0  0  0  0  0  0  0
   32.8046  -13.8895   38.1329 C   0  0  0  0  0  0  0  0  0  0  0  0
   32.9793  -12.5445   38.3393 C   0  0  0  0  0  0  0  0  0  0  0  0
   33.5147  -11.7607   37.3301 C   0  0  0  0  0  0  0  0  0  0  0  0
   33.6869  -10.3986   37.5525 O   0  0  0  0  0  0  0  0  0  0  0  0
   33.8622  -12.3479   36.1356 C   0  0  0  0  0  0  0  0  0  0  0  0
   33.6701  -13.7076   35.9670 C   0  0  0  0  0  0  0  0  0  0  0  0
   32.9479   -9.7618   37.3247 H   0  0  0  0  0  0  0  0  0  0  0  0
   37.9920  -15.7578   37.1410 C   0  0  0  0  0  0  0  0  0  0  0  0
   37.4784  -14.7722   38.0970 C   0  0  0  0  0  0  0  0  0  0  0  0
   38.1511  -13.4229   37.7075 C   0  0  0  0  0  0  0  0  0  0  0  0
   36.0254  -14.4764   38.1364 C   0  0  0  0  0  0  0  0  0  0  0  0
   37.8588  -20.9920   34.9607 C   0  0  0  0  0  0  0  0  0  0  0  0
   39.0540  -21.6924   34.4699 C   0  0  0  0  0  0  0  0  0  0  0  0
   39.1627  -23.0549   34.4155 C   0  0  0  0  0  0  0  0  0  0  0  0
   40.2573  -23.7386   33.9333 C   0  0  0  0  0  0  0  0  0  0  0  0
   41.3218  -22.9959   33.4727 C   0  0  0  0  0  0  0  0  0  0  0  0
   42.4369  -23.6186   32.9819 O   0  0  0  0  0  0  0  0  0  0  0  0
   41.2371  -21.6205   33.5178 C   0  0  0  0  0  0  0  0  0  0  0  0
   40.1504  -20.9533   33.9959 C   0  0  0  0  0  0  0  0  0  0  0  0
   42.4999  -24.6206   32.9483 H   0  0  0  0  0  0  0  0  0  0  0  0
   34.5597  -21.2286   38.7373 C   0  0  0  0  0  0  0  0  0  0  0  0
   34.2543  -20.5492   39.9804 C   0  0  0  0  0  0  0  0  0  0  0  0
   33.2369  -21.1421   40.7677 O   0  0  0  0  0  0  0  0  0  0  0  0
   34.7421  -19.5219   40.4753 O   0  0  0  0  0  0  0  0  0  0  0  0
   32.2750  -20.8343   40.6952 H   0  0  0  0  0  0  0  0  0  0  0  0
 28 29  1  0  0  0
 29 26  1  0  0  0
 26 27  1  0  0  0
 26  1  1  0  0  0
  1  2  1  0  0  0
  2  3  1  0  0  0
  3  4  2  0  0  0
  3  5  1  0  0  0
  5 30  1  0  0  0
 30 31  1  0  0  0
 31 32  2  0  0  0
 32 33  1  0  0  0
 33 34  2  0  0  0
 34 35  1  0  0  0
 34 36  1  0  0  0
 36 37  2  0  0  0
  5  6  1  0  0  0
  6  7  1  0  0  0
  7  8  2  0  0  0
  7  9  1  0  0  0
  9 39  1  0  0  0
 39 40  1  0  0  0
 40 41  1  0  0  0
 40 42  1  0  0  0
  9 10  1  0  0  0
 10 11  1  0  0  0
 11 12  2  0  0  0
 11 13  1  0  0  0
 13 43  1  0  0  0
 43 44  1  0  0  0
 44 45  2  0  0  0
 45 46  1  0  0  0
 46 47  2  0  0  0
 47 48  1  0  0  0
 47 49  1  0  0  0
 49 50  2  0  0  0
 13 14  1  0  0  0
 14 15  1  0  0  0
 15 16  2  0  0  0
 15 17  1  0  0  0
 17 52  1  0  0  0
 52 53  1  0  0  0
 53 54  1  0  0  0
 53 55  2  0  0  0
 17 18  1  0  0  0
 18 19  1  0  0  0
 19 20  2  0  0  0
 19  1  1  0  0  0
 37 31  1  0  0  0
 50 44  1  0  0  0
  2 21  1  0  0  0
 35 38  1  0  0  0
  6 22  1  0  0  0
 10 23  1  0  0  0
 48 51  1  0  0  0
 14 24  1  0  0  0
 54 56  1  0  0  0
 18 25  1  0  0  0
M  END
> <minimizedAffinity>
-2.09845

> <CNNscore>
0.4379769862

> <CNNaffinity>
6.4411382675

> <CNN_VS>
2.8210704327

> <CNNaffinity_variance>
0.3728901744

$$$$
[H]OC(=O)C([H])([H])[C@@]1([H])C(=O)N([H])[C@@]([H])(C([H])([H])c2c([H])c([H])c(O[H])c([H])c2[H])C(=O)N([H])[C@@]([H])(C([H])([H])C([H])(C([H])([H])[H])C([H])([H])[H])C(=O)N([H])[C@@]([H])(C([H])([H])c2c([H])c([H])c(O[H])c([H])c2[H])C(=O)N([H])[C@@]([H])([C@@]([H])(C([H])([H])[H])C([H])([H])C([H])([H])[H])C(=O)N1[H]


 56 58  0  0  0  0  0  0  0  0999 V2000
   33.9438  -23.8247   39.1554 C   0  0  0  0  0  0  0  0  0  0  0  0
   33.3357  -23.8028   37.8415 N   0  0  0  0  0  0  0  0  0  0  0  0
   33.5705  -22.8913   36.8127 C   0  0  0  0  0  0  0  0  0  0  0  0
   33.5878  -23.3705   35.6161 O   0  0  0  0  0  0  0  0  0  0  0  0
   33.7962  -21.4362   37.0096 C   0  0  0  0  0  0  0  0  0  0  0  0
   34.1316  -20.8537   35.7225 N   0  0  0  0  0  0  0  0  0  0  0  0
   35.2535  -20.0622   35.4278 C   0  0  0  0  0  0  0  0  0  0  0  0
   35.2770  -19.5548   34.2528 O   0  0  0  0  0  0  0  0  0  0  0  0
   36.3943  -19.7609   36.3159 C   0  0  0  0  0  0  0  0  0  0  0  0
   37.5362  -20.4850   35.7528 N   0  0  0  0  0  0  0  0  0  0  0  0
   38.1725  -21.6276   36.2887 C   0  0  0  0  0  0  0  0  0  0  0  0
   38.1051  -22.6501   35.5122 O   0  0  0  0  0  0  0  0  0  0  0  0
   38.8635  -21.7399   37.5777 C   0  0  0  0  0  0  0  0  0  0  0  0
   38.2701  -20.9842   38.6606 N   0  0  0  0  0  0  0  0  0  0  0  0
   37.7034  -21.3340   39.8794 C   0  0  0  0  0  0  0  0  0  0  0  0
   38.3917  -20.9169   40.9042 O   0  0  0  0  0  0  0  0  0  0  0  0
   36.4869  -22.0711   40.2356 C   0  0  0  0  0  0  0  0  0  0  0  0
   36.4167  -23.4296   39.7961 N   0  0  0  0  0  0  0  0  0  0  0  0
   35.4035  -23.9610   38.9956 C   0  0  0  0  0  0  0  0  0  0  0  0
   35.7554  -24.6701   37.9753 O   0  0  0  0  0  0  0  0  0  0  0  0
   32.6322  -24.5775   37.6402 H   0  0  0  0  0  0  0  0  0  0  0  0
   33.4225  -21.0931   34.9599 H   0  0  0  0  0  0  0  0  0  0  0  0
   37.8640  -20.0578   34.8290 H   0  0  0  0  0  0  0  0  0  0  0  0
   38.3188  -19.9089   38.4323 H   0  0  0  0  0  0  0  0  0  0  0  0
   37.1851  -24.0782   40.0934 H   0  0  0  0  0  0  0  0  0  0  0  0
   33.3588  -24.9857   39.9624 C   0  0  0  0  0  0  0  0  0  0  0  0
   32.4625  -25.8836   39.2046 C   0  0  0  0  0  0  0  0  0  0  0  0
   34.3272  -25.4358   42.2279 C   0  0  0  0  0  0  0  0  0  0  0  0
   34.4085  -25.7214   40.7458 C   0  0  0  0  0  0  0  0  0  0  0  0
   32.4962  -20.8227   37.4679 C   0  0  0  0  0  0  0  0  0  0  0  0
   31.2910  -21.3659   36.8641 C   0  0  0  0  0  0  0  0  0  0  0  0
   30.5739  -22.3810   37.5071 C   0  0  0  0  0  0  0  0  0  0  0  0
   29.4336  -22.9417   36.9901 C   0  0  0  0  0  0  0  0  0  0  0  0
   28.9448  -22.4994   35.7715 C   0  0  0  0  0  0  0  0  0  0  0  0
   27.7876  -23.0760   35.2587 O   0  0  0  0  0  0  0  0  0  0  0  0
   29.6147  -21.5030   35.1002 C   0  0  0  0  0  0  0  0  0  0  0  0
   30.7614  -20.9636   35.6554 C   0  0  0  0  0  0  0  0  0  0  0  0
   27.8553  -23.8806   34.6660 H   0  0  0  0  0  0  0  0  0  0  0  0
   36.7702  -18.3224   36.3071 C   0  0  0  0  0  0  0  0  0  0  0  0
   35.8437  -17.3177   36.8375 C   0  0  0  0  0  0  0  0  0  0  0  0
   36.7420  -16.1720   37.3902 C   0  0  0  0  0  0  0  0  0  0  0  0
   34.8883  -16.6456   35.9233 C   0  0  0  0  0  0  0  0  0  0  0  0
   39.4029  -23.0752   37.9344 C   0  0  0  0  0  0  0  0  0  0  0  0
   40.7733  -23.1482   38.4604 C   0  0  0  0  0  0  0  0  0  0  0  0
   41.5758  -22.0540   38.6333 C   0  0  0  0  0  0  0  0  0  0  0  0
   42.8520  -22.0878   39.1514 C   0  0  0  0  0  0  0  0  0  0  0  0
   43.3583  -23.3139   39.5221 C   0  0  0  0  0  0  0  0  0  0  0  0
   44.6197  -23.4109   40.0430 O   0  0  0  0  0  0  0  0  0  0  0  0
   42.5691  -24.4324   39.3569 C   0  0  0  0  0  0  0  0  0  0  0  0
   41.3082  -24.3891   38.8441 C   0  0  0  0  0  0  0  0  0  0  0  0
   45.1957  -22.5969   40.1640 H   0  0  0  0  0  0  0  0  0  0  0  0
   36.2712  -22.1269   41.7418 C   0  0  0  0  0  0  0  0  0  0  0  0
   35.0672  -21.4943   42.2419 C   0  0  0  0  0  0  0  0  0  0  0  0
   34.6865  -20.2983   41.5852 O   0  0  0  0  0  0  0  0  0  0  0  0
   34.3054  -21.8305   43.1610 O   0  0  0  0  0  0  0  0  0  0  0  0
   34.9677  -19.3940   41.9436 H   0  0  0  0  0  0  0  0  0  0  0  0
 28 29  1  0  0  0
 29 26  1  0  0  0
 26 27  1  0  0  0
 26  1  1  0  0  0
  1  2  1  0  0  0
  2  3  1  0  0  0
  3  4  2  0  0  0
  3  5  1  0  0  0
  5 30  1  0  0  0
 30 31  1  0  0  0
 31 32  2  0  0  0
 32 33  1  0  0  0
 33 34  2  0  0  0
 34 35  1  0  0  0
 34 36  1  0  0  0
 36 37  2  0  0  0
  5  6  1  0  0  0
  6  7  1  0  0  0
  7  8  2  0  0  0
  7  9  1  0  0  0
  9 39  1  0  0  0
 39 40  1  0  0  0
 40 41  1  0  0  0
 40 42  1  0  0  0
  9 10  1  0  0  0
 10 11  1  0  0  0
 11 12  2  0  0  0
 11 13  1  0  0  0
 13 43  1  0  0  0
 43 44  1  0  0  0
 44 45  2  0  0  0
 45 46  1  0  0  0
 46 47  2  0  0  0
 47 48  1  0  0  0
 47 49  1  0  0  0
 49 50  2  0  0  0
 13 14  1  0  0  0
 14 15  1  0  0  0
 15 16  2  0  0  0
 15 17  1  0  0  0
 17 52  1  0  0  0
 52 53  1  0  0  0
 53 54  1  0  0  0
 53 55  2  0  0  0
 17 18  1  0  0  0
 18 19  1  0  0  0
 19 20  2  0  0  0
 19  1  1  0  0  0
 37 31  1  0  0  0
 50 44  1  0  0  0
  2 21  1  0  0  0
 35 38  1  0  0  0
  6 22  1  0  0  0
 10 23  1  0  0  0
 48 51  1  0  0  0
 14 24  1  0  0  0
 54 56  1  0  0  0
 18 25  1  0  0  0
M  END
> <minimizedAffinity>
-3.45065

> <CNNscore>
0.4371629357

> <CNNaffinity>
6.0647521019

> <CNN_VS>
2.6512849331

> <CNNaffinity_variance>
2.0184655190

$$$$
[H]OC(=O)C([H])([H])[C@@]1([H])C(=O)N([H])[C@@]([H])(C([H])([H])c2c([H])c([H])c(O[H])c([H])c2[H])C(=O)N([H])[C@@]([H])(C([H])([H])C([H])(C([H])([H])[H])C([H])([H])[H])C(=O)N([H])[C@@]([H])(C([H])([H])c2c([H])c([H])c(O[H])c([H])c2[H])C(=O)N([H])[C@@]([H])([C@@]([H])(C([H])([H])[H])C([H])([H])C([H])([H])[H])C(=O)N1[H]


 56 58  0  0  0  0  0  0  0  0999 V2000
   37.1481  -20.3715   35.7957 C   0  0  0  0  0  0  0  0  0  0  0  0
   38.0148  -21.4779   35.4473 N   0  0  0  0  0  0  0  0  0  0  0  0
   38.6139  -22.3920   36.3133 C   0  0  0  0  0  0  0  0  0  0  0  0
   38.6811  -23.6116   35.9012 O   0  0  0  0  0  0  0  0  0  0  0  0
   39.1658  -22.0514   37.6499 C   0  0  0  0  0  0  0  0  0  0  0  0
   39.5808  -23.2849   38.2940 N   0  0  0  0  0  0  0  0  0  0  0  0
   39.2040  -23.7311   39.5710 C   0  0  0  0  0  0  0  0  0  0  0  0
   39.7934  -24.7909   39.9809 O   0  0  0  0  0  0  0  0  0  0  0  0
   38.2111  -23.1182   40.4763 C   0  0  0  0  0  0  0  0  0  0  0  0
   37.0754  -24.0428   40.5024 N   0  0  0  0  0  0  0  0  0  0  0  0
   35.8016  -23.8490   39.9213 C   0  0  0  0  0  0  0  0  0  0  0  0
   35.5230  -24.7225   39.0201 O   0  0  0  0  0  0  0  0  0  0  0  0
   34.8274  -22.7998   40.2406 C   0  0  0  0  0  0  0  0  0  0  0  0
   35.3982  -21.5077   40.5577 N   0  0  0  0  0  0  0  0  0  0  0  0
   35.3115  -20.2495   39.9760 C   0  0  0  0  0  0  0  0  0  0  0  0
   34.7008  -19.3774   40.7272 O   0  0  0  0  0  0  0  0  0  0  0  0
   35.7752  -19.7131   38.6924 C   0  0  0  0  0  0  0  0  0  0  0  0
   35.2214  -20.3109   37.5178 N   0  0  0  0  0  0  0  0  0  0  0  0
   35.9639  -20.9041   36.4949 C   0  0  0  0  0  0  0  0  0  0  0  0
   35.5918  -22.0701   36.0827 O   0  0  0  0  0  0  0  0  0  0  0  0
   38.2103  -21.6078   34.4079 H   0  0  0  0  0  0  0  0  0  0  0  0
   40.2295  -23.8751   37.6838 H   0  0  0  0  0  0  0  0  0  0  0  0
   37.3093  -24.9483   41.0208 H   0  0  0  0  0  0  0  0  0  0  0  0
   36.0057  -21.5852   41.4718 H   0  0  0  0  0  0  0  0  0  0  0  0
   34.1778  -20.3079   37.4154 H   0  0  0  0  0  0  0  0  0  0  0  0
   36.7545  -19.6192   34.5227 C   0  0  0  0  0  0  0  0  0  0  0  0
   35.3224  -19.2683   34.4225 C   0  0  0  0  0  0  0  0  0  0  0  0
   38.8426  -18.8522   33.3719 C   0  0  0  0  0  0  0  0  0  0  0  0
   37.6683  -18.4609   34.2394 C   0  0  0  0  0  0  0  0  0  0  0  0
   40.3966  -21.2040   37.4416 C   0  0  0  0  0  0  0  0  0  0  0  0
   41.2766  -21.6184   36.3618 C   0  0  0  0  0  0  0  0  0  0  0  0
   42.1479  -22.6995   36.5354 C   0  0  0  0  0  0  0  0  0  0  0  0
   43.0081  -23.1380   35.5607 C   0  0  0  0  0  0  0  0  0  0  0  0
   43.0363  -22.4965   34.3330 C   0  0  0  0  0  0  0  0  0  0  0  0
   43.9128  -22.9513   33.3535 O   0  0  0  0  0  0  0  0  0  0  0  0
   42.1984  -21.4279   34.1136 C   0  0  0  0  0  0  0  0  0  0  0  0
   41.3457  -21.0163   35.1224 C   0  0  0  0  0  0  0  0  0  0  0  0
   44.8383  -22.5719   33.3016 H   0  0  0  0  0  0  0  0  0  0  0  0
   38.6935  -23.0142   41.8788 C   0  0  0  0  0  0  0  0  0  0  0  0
   39.0049  -21.7018   42.4532 C   0  0  0  0  0  0  0  0  0  0  0  0
   39.6465  -20.8811   41.2956 C   0  0  0  0  0  0  0  0  0  0  0  0
   37.9069  -20.8455   42.9644 C   0  0  0  0  0  0  0  0  0  0  0  0
   33.5772  -22.7813   39.4420 C   0  0  0  0  0  0  0  0  0  0  0  0
   32.3243  -23.1566   40.1124 C   0  0  0  0  0  0  0  0  0  0  0  0
   31.1711  -23.4623   39.4429 C   0  0  0  0  0  0  0  0  0  0  0  0
   29.9912  -23.8459   40.0421 C   0  0  0  0  0  0  0  0  0  0  0  0
   29.9702  -23.9268   41.4169 C   0  0  0  0  0  0  0  0  0  0  0  0
   28.8274  -24.3023   42.0687 O   0  0  0  0  0  0  0  0  0  0  0  0
   31.1198  -23.6227   42.1148 C   0  0  0  0  0  0  0  0  0  0  0  0
   32.2818  -23.2448   41.5136 C   0  0  0  0  0  0  0  0  0  0  0  0
   27.9892  -24.5242   41.5615 H   0  0  0  0  0  0  0  0  0  0  0  0
   35.4879  -18.2241   38.5564 C   0  0  0  0  0  0  0  0  0  0  0  0
   36.2167  -17.5217   37.5194 C   0  0  0  0  0  0  0  0  0  0  0  0
   35.4255  -16.7618   36.6233 O   0  0  0  0  0  0  0  0  0  0  0  0
   37.4334  -17.4751   37.2833 O   0  0  0  0  0  0  0  0  0  0  0  0
   35.1144  -17.1520   35.7423 H   0  0  0  0  0  0  0  0  0  0  0  0
 28 29  1  0  0  0
 29 26  1  0  0  0
 26 27  1  0  0  0
 26  1  1  0  0  0
  1  2  1  0  0  0
  2  3  1  0  0  0
  3  4  2  0  0  0
  3  5  1  0  0  0
  5 30  1  0  0  0
 30 31  1  0  0  0
 31 32  2  0  0  0
 32 33  1  0  0  0
 33 34  2  0  0  0
 34 35  1  0  0  0
 34 36  1  0  0  0
 36 37  2  0  0  0
  5  6  1  0  0  0
  6  7  1  0  0  0
  7  8  2  0  0  0
  7  9  1  0  0  0
  9 39  1  0  0  0
 39 40  1  0  0  0
 40 41  1  0  0  0
 40 42  1  0  0  0
  9 10  1  0  0  0
 10 11  1  0  0  0
 11 12  2  0  0  0
 11 13  1  0  0  0
 13 43  1  0  0  0
 43 44  1  0  0  0
 44 45  2  0  0  0
 45 46  1  0  0  0
 46 47  2  0  0  0
 47 48  1  0  0  0
 47 49  1  0  0  0
 49 50  2  0  0  0
 13 14  1  0  0  0
 14 15  1  0  0  0
 15 16  2  0  0  0
 15 17  1  0  0  0
 17 52  1  0  0  0
 52 53  1  0  0  0
 53 54  1  0  0  0
 53 55  2  0  0  0
 17 18  1  0  0  0
 18 19  1  0  0  0
 19 20  2  0  0  0
 19  1  1  0  0  0
 37 31  1  0  0  0
 50 44  1  0  0  0
  2 21  1  0  0  0
 35 38  1  0  0  0
  6 22  1  0  0  0
 10 23  1  0  0  0
 48 51  1  0  0  0
 14 24  1  0  0  0
 54 56  1  0  0  0
 18 25  1  0  0  0
M  END
> <minimizedAffinity>
-2.42455

> <CNNscore>
0.4324823618

> <CNNaffinity>
5.8161621094

> <CNN_VS>
2.5153875351

> <CNNaffinity_variance>
1.7695480585

$$$$
[H]OC(=O)C([H])([H])[C@@]1([H])C(=O)N([H])[C@@]([H])(C([H])([H])c2c([H])c([H])c(O[H])c([H])c2[H])C(=O)N([H])[C@@]([H])(C([H])([H])C([H])(C([H])([H])[H])C([H])([H])[H])C(=O)N([H])[C@@]([H])(C([H])([H])c2c([H])c([H])c(O[H])c([H])c2[H])C(=O)N([H])[C@@]([H])([C@@]([H])(C([H])([H])[H])C([H])([H])C([H])([H])[H])C(=O)N1[H]


 56 58  0  0  0  0  0  0  0  0999 V2000
   35.3899  -21.4500   36.9278 C   0  0  0  0  0  0  0  0  0  0  0  0
   36.4007  -21.7703   35.9417 N   0  0  0  0  0  0  0  0  0  0  0  0
   37.7418  -22.0767   36.1697 C   0  0  0  0  0  0  0  0  0  0  0  0
   38.2555  -22.9912   35.4202 O   0  0  0  0  0  0  0  0  0  0  0  0
   38.5925  -21.4273   37.2000 C   0  0  0  0  0  0  0  0  0  0  0  0
   39.8773  -22.1037   37.2156 N   0  0  0  0  0  0  0  0  0  0  0  0
   40.5220  -22.6520   38.3362 C   0  0  0  0  0  0  0  0  0  0  0  0
   41.7071  -23.0901   38.1310 O   0  0  0  0  0  0  0  0  0  0  0  0
   39.9836  -22.7784   39.7055 C   0  0  0  0  0  0  0  0  0  0  0  0
   39.7607  -24.2111   39.9126 N   0  0  0  0  0  0  0  0  0  0  0  0
   38.5184  -24.8809   39.9884 C   0  0  0  0  0  0  0  0  0  0  0  0
   38.3642  -25.7589   39.0620 O   0  0  0  0  0  0  0  0  0  0  0  0
   37.4538  -24.6736   40.9760 C   0  0  0  0  0  0  0  0  0  0  0  0
   37.2730  -23.3030   41.4056 N   0  0  0  0  0  0  0  0  0  0  0  0
   36.2227  -22.3985   41.3175 C   0  0  0  0  0  0  0  0  0  0  0  0
   35.7146  -22.0871   42.4763 O   0  0  0  0  0  0  0  0  0  0  0  0
   35.5820  -21.7257   40.1830 C   0  0  0  0  0  0  0  0  0  0  0  0
   34.9547  -22.5712   39.2158 N   0  0  0  0  0  0  0  0  0  0  0  0
   35.2575  -22.5908   37.8529 C   0  0  0  0  0  0  0  0  0  0  0  0
   35.4513  -23.7409   37.2984 O   0  0  0  0  0  0  0  0  0  0  0  0
   36.0766  -21.7764   34.9266 H   0  0  0  0  0  0  0  0  0  0  0  0
   40.3251  -22.1686   36.2477 H   0  0  0  0  0  0  0  0  0  0  0  0
   40.6802  -24.7511   39.9921 H   0  0  0  0  0  0  0  0  0  0  0  0
   38.1791  -22.9542   41.9231 H   0  0  0  0  0  0  0  0  0  0  0  0
   34.2124  -23.2304   39.5534 H   0  0  0  0  0  0  0  0  0  0  0  0
   34.0686  -21.1506   36.2164 C   0  0  0  0  0  0  0  0  0  0  0  0
   34.1585  -20.1597   35.1237 C   0  0  0  0  0  0  0  0  0  0  0  0
   31.8378  -22.2146   35.8114 C   0  0  0  0  0  0  0  0  0  0  0  0
   33.3377  -22.4021   35.8211 C   0  0  0  0  0  0  0  0  0  0  0  0
   38.8289  -19.9994   36.7740 C   0  0  0  0  0  0  0  0  0  0  0  0
   40.2168  -19.6208   36.5673 C   0  0  0  0  0  0  0  0  0  0  0  0
   40.8339  -19.8441   35.3314 C   0  0  0  0  0  0  0  0  0  0  0  0
   42.1406  -19.5170   35.0716 C   0  0  0  0  0  0  0  0  0  0  0  0
   42.9113  -18.9347   36.0649 C   0  0  0  0  0  0  0  0  0  0  0  0
   44.2345  -18.6077   35.7883 O   0  0  0  0  0  0  0  0  0  0  0  0
   42.3498  -18.6950   37.2976 C   0  0  0  0  0  0  0  0  0  0  0  0
   41.0284  -19.0398   37.5197 C   0  0  0  0  0  0  0  0  0  0  0  0
   44.9572  -19.2803   35.9574 H   0  0  0  0  0  0  0  0  0  0  0  0
   40.9531  -22.3543   40.7499 C   0  0  0  0  0  0  0  0  0  0  0  0
   41.5092  -20.9981   40.7289 C   0  0  0  0  0  0  0  0  0  0  0  0
   40.7433  -20.2157   41.8363 C   0  0  0  0  0  0  0  0  0  0  0  0
   42.9448  -20.7889   41.0381 C   0  0  0  0  0  0  0  0  0  0  0  0
   36.2145  -25.4705   40.8020 C   0  0  0  0  0  0  0  0  0  0  0  0
   34.9820  -24.9769   41.4323 C   0  0  0  0  0  0  0  0  0  0  0  0
   33.8664  -24.6138   40.7288 C   0  0  0  0  0  0  0  0  0  0  0  0
   32.6880  -24.1763   41.2929 C   0  0  0  0  0  0  0  0  0  0  0  0
   32.6284  -24.0975   42.6667 C   0  0  0  0  0  0  0  0  0  0  0  0
   31.4849  -23.6701   43.2845 O   0  0  0  0  0  0  0  0  0  0  0  0
   33.7403  -24.4571   43.3984 C   0  0  0  0  0  0  0  0  0  0  0  0
   34.9009  -24.8889   42.8319 C   0  0  0  0  0  0  0  0  0  0  0  0
   30.6740  -23.4079   42.7527 H   0  0  0  0  0  0  0  0  0  0  0  0
   34.4963  -20.7566   40.6304 C   0  0  0  0  0  0  0  0  0  0  0  0
   34.8180  -19.9095   41.7613 C   0  0  0  0  0  0  0  0  0  0  0  0
   34.8141  -18.5168   41.5031 O   0  0  0  0  0  0  0  0  0  0  0  0
   35.0999  -20.2055   42.9323 O   0  0  0  0  0  0  0  0  0  0  0  0
   35.6673  -18.0288   41.2598 H   0  0  0  0  0  0  0  0  0  0  0  0
 28 29  1  0  0  0
 29 26  1  0  0  0
 26 27  1  0  0  0
 26  1  1  0  0  0
  1  2  1  0  0  0
  2  3  1  0  0  0
  3  4  2  0  0  0
  3  5  1  0  0  0
  5 30  1  0  0  0
 30 31  1  0  0  0
 31 32  2  0  0  0
 32 33  1  0  0  0
 33 34  2  0  0  0
 34 35  1  0  0  0
 34 36  1  0  0  0
 36 37  2  0  0  0
  5  6  1  0  0  0
  6  7  1  0  0  0
  7  8  2  0  0  0
  7  9  1  0  0  0
  9 39  1  0  0  0
 39 40  1  0  0  0
 40 41  1  0  0  0
 40 42  1  0  0  0
  9 10  1  0  0  0
 10 11  1  0  0  0
 11 12  2  0  0  0
 11 13  1  0  0  0
 13 43  1  0  0  0
 43 44  1  0  0  0
 44 45  2  0  0  0
 45 46  1  0  0  0
 46 47  2  0  0  0
 47 48  1  0  0  0
 47 49  1  0  0  0
 49 50  2  0  0  0
 13 14  1  0  0  0
 14 15  1  0  0  0
 15 16  2  0  0  0
 15 17  1  0  0  0
 17 52  1  0  0  0
 52 53  1  0  0  0
 53 54  1  0  0  0
 53 55  2  0  0  0
 17 18  1  0  0  0
 18 19  1  0  0  0
 19 20  2  0  0  0
 19  1  1  0  0  0
 37 31  1  0  0  0
 50 44  1  0  0  0
  2 21  1  0  0  0
 35 38  1  0  0  0
  6 22  1  0  0  0
 10 23  1  0  0  0
 48 51  1  0  0  0
 14 24  1  0  0  0
 54 56  1  0  0  0
 18 25  1  0  0  0
M  END
> <minimizedAffinity>
-2.31087

> <CNNscore>
0.4308964014

> <CNNaffinity>
5.5172224045

> <CNN_VS>
2.3773512840

> <CNNaffinity_variance>
1.4730080366

$$$$
[H]OC(=O)C([H])([H])[C@@]1([H])C(=O)N([H])[C@@]([H])(C([H])([H])c2c([H])c([H])c(O[H])c([H])c2[H])C(=O)N([H])[C@@]([H])(C([H])([H])C([H])(C([H])([H])[H])C([H])([H])[H])C(=O)N([H])[C@@]([H])(C([H])([H])c2c([H])c([H])c(O[H])c([H])c2[H])C(=O)N([H])[C@@]([H])([C@@]([H])(C([H])([H])[H])C([H])([H])C([H])([H])[H])C(=O)N1[H]


 56 58  0  0  0  0  0  0  0  0999 V2000
   40.8390  -20.4380   40.2454 C   0  0  0  0  0  0  0  0  0  0  0  0
   39.4071  -20.6524   40.2595 N   0  0  0  0  0  0  0  0  0  0  0  0
   38.6347  -21.2892   39.2887 C   0  0  0  0  0  0  0  0  0  0  0  0
   37.6654  -22.0224   39.7186 O   0  0  0  0  0  0  0  0  0  0  0  0
   38.8575  -21.1752   37.8244 C   0  0  0  0  0  0  0  0  0  0  0  0
   37.9390  -22.0803   37.1567 N   0  0  0  0  0  0  0  0  0  0  0  0
   38.2709  -23.0637   36.2109 C   0  0  0  0  0  0  0  0  0  0  0  0
   37.2788  -23.6596   35.6638 O   0  0  0  0  0  0  0  0  0  0  0  0
   39.6238  -23.4798   35.7898 C   0  0  0  0  0  0  0  0  0  0  0  0
   39.8103  -24.8274   36.3325 N   0  0  0  0  0  0  0  0  0  0  0  0
   40.6575  -25.2108   37.3969 C   0  0  0  0  0  0  0  0  0  0  0  0
   40.0174  -25.7157   38.3909 O   0  0  0  0  0  0  0  0  0  0  0  0
   42.1181  -25.0905   37.4602 C   0  0  0  0  0  0  0  0  0  0  0  0
   42.6648  -23.9072   36.8305 N   0  0  0  0  0  0  0  0  0  0  0  0
   43.3892  -22.8177   37.2965 C   0  0  0  0  0  0  0  0  0  0  0  0
   44.6037  -22.7697   36.8268 O   0  0  0  0  0  0  0  0  0  0  0  0
   43.0546  -21.7151   38.2035 C   0  0  0  0  0  0  0  0  0  0  0  0
   42.7096  -22.0777   39.5427 N   0  0  0  0  0  0  0  0  0  0  0  0
   41.5101  -21.7495   40.1774 C   0  0  0  0  0  0  0  0  0  0  0  0
   40.8815  -22.6929   40.7959 O   0  0  0  0  0  0  0  0  0  0  0  0
   38.8887  -20.2840   41.1145 H   0  0  0  0  0  0  0  0  0  0  0  0
   36.9244  -21.9438   37.4627 H   0  0  0  0  0  0  0  0  0  0  0  0
   39.1982  -25.5477   35.8325 H   0  0  0  0  0  0  0  0  0  0  0  0
   42.4524  -23.9300   35.7511 H   0  0  0  0  0  0  0  0  0  0  0  0
   43.4076  -22.6356   40.0915 H   0  0  0  0  0  0  0  0  0  0  0  0
   41.2456  -19.6663   41.5027 C   0  0  0  0  0  0  0  0  0  0  0  0
   40.9905  -20.3701   42.7769 C   0  0  0  0  0  0  0  0  0  0  0  0
   43.6556  -19.9705   42.1130 C   0  0  0  0  0  0  0  0  0  0  0  0
   42.6368  -19.1079   41.4039 C   0  0  0  0  0  0  0  0  0  0  0  0
   38.5020  -19.7691   37.4089 C   0  0  0  0  0  0  0  0  0  0  0  0
   39.2302  -19.2419   36.2670 C   0  0  0  0  0  0  0  0  0  0  0  0
   40.5893  -18.9282   36.3787 C   0  0  0  0  0  0  0  0  0  0  0  0
   41.3334  -18.4220   35.3433 C   0  0  0  0  0  0  0  0  0  0  0  0
   40.7343  -18.2004   34.1138 C   0  0  0  0  0  0  0  0  0  0  0  0
   41.5001  -17.6872   33.0723 O   0  0  0  0  0  0  0  0  0  0  0  0
   39.3998  -18.4930   33.9538 C   0  0  0  0  0  0  0  0  0  0  0  0
   38.6841  -19.0020   35.0229 C   0  0  0  0  0  0  0  0  0  0  0  0
   41.5664  -16.6955   32.9477 H   0  0  0  0  0  0  0  0  0  0  0  0
   39.7577  -23.6048   34.3143 C   0  0  0  0  0  0  0  0  0  0  0  0
   40.9683  -23.1223   33.6429 C   0  0  0  0  0  0  0  0  0  0  0  0
   41.4352  -24.2948   32.7306 C   0  0  0  0  0  0  0  0  0  0  0  0
   40.8885  -21.9467   32.7418 C   0  0  0  0  0  0  0  0  0  0  0  0
   42.7711  -25.5175   38.7221 C   0  0  0  0  0  0  0  0  0  0  0  0
   41.9579  -25.5430   39.9460 C   0  0  0  0  0  0  0  0  0  0  0  0
   42.4735  -25.3612   41.2000 C   0  0  0  0  0  0  0  0  0  0  0  0
   41.7327  -25.3501   42.3617 C   0  0  0  0  0  0  0  0  0  0  0  0
   40.3724  -25.5371   42.2532 C   0  0  0  0  0  0  0  0  0  0  0  0
   39.5843  -25.5361   43.3716 O   0  0  0  0  0  0  0  0  0  0  0  0
   39.8285  -25.7235   41.0000 C   0  0  0  0  0  0  0  0  0  0  0  0
   40.5689  -25.7324   39.8571 C   0  0  0  0  0  0  0  0  0  0  0  0
   39.9792  -25.4002   44.2852 H   0  0  0  0  0  0  0  0  0  0  0  0
   44.1981  -20.7194   38.3411 C   0  0  0  0  0  0  0  0  0  0  0  0
   43.9511  -19.3840   37.8354 C   0  0  0  0  0  0  0  0  0  0  0  0
   44.4188  -19.1309   36.5225 O   0  0  0  0  0  0  0  0  0  0  0  0
   43.3913  -18.4139   38.3681 O   0  0  0  0  0  0  0  0  0  0  0  0
   45.3277  -18.7139   36.3637 H   0  0  0  0  0  0  0  0  0  0  0  0
 28 29  1  0  0  0
 29 26  1  0  0  0
 26 27  1  0  0  0
 26  1  1  0  0  0
  1  2  1  0  0  0
  2  3  1  0  0  0
  3  4  2  0  0  0
  3  5  1  0  0  0
  5 30  1  0  0  0
 30 31  1  0  0  0
 31 32  2  0  0  0
 32 33  1  0  0  0
 33 34  2  0  0  0
 34 35  1  0  0  0
 34 36  1  0  0  0
 36 37  2  0  0  0
  5  6  1  0  0  0
  6  7  1  0  0  0
  7  8  2  0  0  0
  7  9  1  0  0  0
  9 39  1  0  0  0
 39 40  1  0  0  0
 40 41  1  0  0  0
 40 42  1  0  0  0
  9 10  1  0  0  0
 10 11  1  0  0  0
 11 12  2  0  0  0
 11 13  1  0  0  0
 13 43  1  0  0  0
 43 44  1  0  0  0
 44 45  2  0  0  0
 45 46  1  0  0  0
 46 47  2  0  0  0
 47 48  1  0  0  0
 47 49  1  0  0  0
 49 50  2  0  0  0
 13 14  1  0  0  0
 14 15  1  0  0  0
 15 16  2  0  0  0
 15 17  1  0  0  0
 17 52  1  0  0  0
 52 53  1  0  0  0
 53 54  1  0  0  0
 53 55  2  0  0  0
 17 18  1  0  0  0
 18 19  1  0  0  0
 19 20  2  0  0  0
 19  1  1  0  0  0
 37 31  1  0  0  0
 50 44  1  0  0  0
  2 21  1  0  0  0
 35 38  1  0  0  0
  6 22  1  0  0  0
 10 23  1  0  0  0
 48 51  1  0  0  0
 14 24  1  0  0  0
 54 56  1  0  0  0
 18 25  1  0  0  0
M  END
> <minimizedAffinity>
-2.61961

> <CNNscore>
0.4252658784

> <CNNaffinity>
5.2120141983

> <CNN_VS>
2.2164916992

> <CNNaffinity_variance>
0.9863728285

$$$$
[H]OC(=O)C([H])([H])[C@@]1([H])C(=O)N([H])[C@@]([H])(C([H])([H])c2c([H])c([H])c(O[H])c([H])c2[H])C(=O)N([H])[C@@]([H])(C([H])([H])C([H])(C([H])([H])[H])C([H])([H])[H])C(=O)N([H])[C@@]([H])(C([H])([H])c2c([H])c([H])c(O[H])c([H])c2[H])C(=O)N([H])[C@@]([H])([C@@]([H])(C([H])([H])[H])C([H])([H])C([H])([H])[H])C(=O)N1[H]


 56 58  0  0  0  0  0  0  0  0999 V2000
   40.8940  -23.6711   40.6727 C   0  0  0  0  0  0  0  0  0  0  0  0
   39.9892  -24.7745   40.4263 N   0  0  0  0  0  0  0  0  0  0  0  0
   38.8823  -24.7912   39.5785 C   0  0  0  0  0  0  0  0  0  0  0  0
   38.6780  -25.8837   38.9254 O   0  0  0  0  0  0  0  0  0  0  0  0
   37.9476  -23.6524   39.3883 C   0  0  0  0  0  0  0  0  0  0  0  0
   37.0104  -24.0088   38.3380 N   0  0  0  0  0  0  0  0  0  0  0  0
   36.7167  -23.2593   37.1874 C   0  0  0  0  0  0  0  0  0  0  0  0
   35.7639  -23.7125   36.4625 O   0  0  0  0  0  0  0  0  0  0  0  0
   37.3837  -22.0238   36.7298 C   0  0  0  0  0  0  0  0  0  0  0  0
   38.1376  -22.4012   35.5321 N   0  0  0  0  0  0  0  0  0  0  0  0
   39.5408  -22.5119   35.4047 C   0  0  0  0  0  0  0  0  0  0  0  0
   39.9250  -23.7010   35.1023 O   0  0  0  0  0  0  0  0  0  0  0  0
   40.5373  -21.4492   35.5762 C   0  0  0  0  0  0  0  0  0  0  0  0
   40.2366  -20.4873   36.6155 N   0  0  0  0  0  0  0  0  0  0  0  0
   40.8662  -20.1216   37.7982 C   0  0  0  0  0  0  0  0  0  0  0  0
   41.3246  -18.9020   37.7802 O   0  0  0  0  0  0  0  0  0  0  0  0
   41.1089  -20.8334   39.0571 C   0  0  0  0  0  0  0  0  0  0  0  0
   41.9150  -22.0112   38.9746 N   0  0  0  0  0  0  0  0  0  0  0  0
   41.5205  -23.2827   39.3954 C   0  0  0  0  0  0  0  0  0  0  0  0
   41.7165  -24.2697   38.5859 O   0  0  0  0  0  0  0  0  0  0  0  0
   40.2006  -25.6772   40.9516 H   0  0  0  0  0  0  0  0  0  0  0  0
   36.5337  -24.9499   38.5075 H   0  0  0  0  0  0  0  0  0  0  0  0
   37.4936  -22.6167   34.7061 H   0  0  0  0  0  0  0  0  0  0  0  0
   39.3159  -19.9416   36.3604 H   0  0  0  0  0  0  0  0  0  0  0  0
   42.8754  -21.9166   38.5642 H   0  0  0  0  0  0  0  0  0  0  0  0
   41.9420  -24.0988   41.7024 C   0  0  0  0  0  0  0  0  0  0  0  0
   42.2752  -23.0761   42.7157 C   0  0  0  0  0  0  0  0  0  0  0  0
   40.5686  -25.3770   43.3616 C   0  0  0  0  0  0  0  0  0  0  0  0
   41.6403  -25.4447   42.2977 C   0  0  0  0  0  0  0  0  0  0  0  0
   37.1634  -23.4774   40.6653 C   0  0  0  0  0  0  0  0  0  0  0  0
   37.3832  -22.2304   41.3787 C   0  0  0  0  0  0  0  0  0  0  0  0
   36.3350  -21.3191   41.5489 C   0  0  0  0  0  0  0  0  0  0  0  0
   36.4758  -20.1228   42.2055 C   0  0  0  0  0  0  0  0  0  0  0  0
   37.7069  -19.7740   42.7369 C   0  0  0  0  0  0  0  0  0  0  0  0
   37.8359  -18.5584   43.4005 O   0  0  0  0  0  0  0  0  0  0  0  0
   38.7689  -20.6368   42.5955 C   0  0  0  0  0  0  0  0  0  0  0  0
   38.5858  -21.8338   41.9263 C   0  0  0  0  0  0  0  0  0  0  0  0
   38.0959  -17.7386   42.8872 H   0  0  0  0  0  0  0  0  0  0  0  0
   36.4235  -20.9725   36.3014 C   0  0  0  0  0  0  0  0  0  0  0  0
   35.4794  -20.4021   37.2670 C   0  0  0  0  0  0  0  0  0  0  0  0
   36.3490  -19.5875   38.2697 C   0  0  0  0  0  0  0  0  0  0  0  0
   34.4404  -19.4506   36.8029 C   0  0  0  0  0  0  0  0  0  0  0  0
   41.9624  -21.8394   35.4423 C   0  0  0  0  0  0  0  0  0  0  0  0
   42.3869  -22.4850   34.1921 C   0  0  0  0  0  0  0  0  0  0  0  0
   41.7077  -22.3646   33.0107 C   0  0  0  0  0  0  0  0  0  0  0  0
   42.0971  -22.9328   31.8175 C   0  0  0  0  0  0  0  0  0  0  0  0
   43.2551  -23.6783   31.8132 C   0  0  0  0  0  0  0  0  0  0  0  0
   43.6926  -24.2672   30.6584 O   0  0  0  0  0  0  0  0  0  0  0  0
   43.9574  -23.8156   32.9918 C   0  0  0  0  0  0  0  0  0  0  0  0
   43.5649  -23.2496   34.1666 C   0  0  0  0  0  0  0  0  0  0  0  0
   43.1820  -24.1680   29.7990 H   0  0  0  0  0  0  0  0  0  0  0  0
   41.7952  -19.9512   40.0909 C   0  0  0  0  0  0  0  0  0  0  0  0
   43.2441  -19.9799   40.0993 C   0  0  0  0  0  0  0  0  0  0  0  0
   43.8820  -18.7982   39.6487 O   0  0  0  0  0  0  0  0  0  0  0  0
   44.0278  -20.8789   40.4396 O   0  0  0  0  0  0  0  0  0  0  0  0
   44.1744  -18.6983   38.6844 H   0  0  0  0  0  0  0  0  0  0  0  0
 28 29  1  0  0  0
 29 26  1  0  0  0
 26 27  1  0  0  0
 26  1  1  0  0  0
  1  2  1  0  0  0
  2  3  1  0  0  0
  3  4  2  0  0  0
  3  5  1  0  0  0
  5 30  1  0  0  0
 30 31  1  0  0  0
 31 32  2  0  0  0
 32 33  1  0  0  0
 33 34  2  0  0  0
 34 35  1  0  0  0
 34 36  1  0  0  0
 36 37  2  0  0  0
  5  6  1  0  0  0
  6  7  1  0  0  0
  7  8  2  0  0  0
  7  9  1  0  0  0
  9 39  1  0  0  0
 39 40  1  0  0  0
 40 41  1  0  0  0
 40 42  1  0  0  0
  9 10  1  0  0  0
 10 11  1  0  0  0
 11 12  2  0  0  0
 11 13  1  0  0  0
 13 43  1  0  0  0
 43 44  1  0  0  0
 44 45  2  0  0  0
 45 46  1  0  0  0
 46 47  2  0  0  0
 47 48  1  0  0  0
 47 49  1  0  0  0
 49 50  2  0  0  0
 13 14  1  0  0  0
 14 15  1  0  0  0
 15 16  2  0  0  0
 15 17  1  0  0  0
 17 52  1  0  0  0
 52 53  1  0  0  0
 53 54  1  0  0  0
 53 55  2  0  0  0
 17 18  1  0  0  0
 18 19  1  0  0  0
 19 20  2  0  0  0
 19  1  1  0  0  0
 37 31  1  0  0  0
 50 44  1  0  0  0
  2 21  1  0  0  0
 35 38  1  0  0  0
  6 22  1  0  0  0
 10 23  1  0  0  0
 48 51  1  0  0  0
 14 24  1  0  0  0
 54 56  1  0  0  0
 18 25  1  0  0  0
M  END
> <minimizedAffinity>
-1.46046

> <CNNscore>
0.4220017195

> <CNNaffinity>
5.7602205276

> <CNN_VS>
2.4308228493

> <CNNaffinity_variance>
2.0330615044

$$$$
[H]OC(=O)C([H])([H])[C@@]1([H])C(=O)N([H])[C@@]([H])(C([H])([H])c2c([H])c([H])c(O[H])c([H])c2[H])C(=O)N([H])[C@@]([H])(C([H])([H])C([H])(C([H])([H])[H])C([H])([H])[H])C(=O)N([H])[C@@]([H])(C([H])([H])c2c([H])c([H])c(O[H])c([H])c2[H])C(=O)N([H])[C@@]([H])([C@@]([H])(C([H])([H])[H])C([H])([H])C([H])([H])[H])C(=O)N1[H]


 56 58  0  0  0  0  0  0  0  0999 V2000
   35.6273  -22.9537   40.3694 C   0  0  0  0  0  0  0  0  0  0  0  0
   34.9258  -22.9465   39.1026 N   0  0  0  0  0  0  0  0  0  0  0  0
   35.4009  -22.4947   37.8720 C   0  0  0  0  0  0  0  0  0  0  0  0
   35.0514  -23.1792   36.8371 O   0  0  0  0  0  0  0  0  0  0  0  0
   36.2647  -21.3002   37.6878 C   0  0  0  0  0  0  0  0  0  0  0  0
   36.6517  -21.2348   36.2898 N   0  0  0  0  0  0  0  0  0  0  0  0
   37.9582  -21.1297   35.7860 C   0  0  0  0  0  0  0  0  0  0  0  0
   38.0494  -20.9620   34.5203 O   0  0  0  0  0  0  0  0  0  0  0  0
   39.2200  -21.1954   36.5506 C   0  0  0  0  0  0  0  0  0  0  0  0
   39.8456  -22.4650   36.1737 N   0  0  0  0  0  0  0  0  0  0  0  0
   39.9802  -23.6224   36.9736 C   0  0  0  0  0  0  0  0  0  0  0  0
   39.3717  -24.6440   36.4847 O   0  0  0  0  0  0  0  0  0  0  0  0
   40.7127  -23.7509   38.2380 C   0  0  0  0  0  0  0  0  0  0  0  0
   40.6562  -22.5900   39.1012 N   0  0  0  0  0  0  0  0  0  0  0  0
   40.1566  -22.3643   40.3773 C   0  0  0  0  0  0  0  0  0  0  0  0
   41.0843  -22.0933   41.2514 O   0  0  0  0  0  0  0  0  0  0  0  0
   38.7976  -22.3656   40.9281 C   0  0  0  0  0  0  0  0  0  0  0  0
   38.0829  -23.6014   40.8507 N   0  0  0  0  0  0  0  0  0  0  0  0
   36.8453  -23.7730   40.2276 C   0  0  0  0  0  0  0  0  0  0  0  0
   36.7155  -24.7697   39.4167 O   0  0  0  0  0  0  0  0  0  0  0  0
   33.9345  -23.3373   39.1162 H   0  0  0  0  0  0  0  0  0  0  0  0
   35.8172  -21.2853   35.6243 H   0  0  0  0  0  0  0  0  0  0  0  0
   40.2047  -22.4500   35.1666 H   0  0  0  0  0  0  0  0  0  0  0  0
   41.1410  -21.7357   38.6055 H   0  0  0  0  0  0  0  0  0  0  0  0
   38.5208  -24.4459   41.2919 H   0  0  0  0  0  0  0  0  0  0  0  0
   34.7027  -23.5095   41.4545 C   0  0  0  0  0  0  0  0  0  0  0  0
   35.3702  -23.8540   42.7272 C   0  0  0  0  0  0  0  0  0  0  0  0
   33.3520  -22.1271   43.0476 C   0  0  0  0  0  0  0  0  0  0  0  0
   33.4723  -22.6679   41.6411 C   0  0  0  0  0  0  0  0  0  0  0  0
   35.4365  -20.0768   37.9941 C   0  0  0  0  0  0  0  0  0  0  0  0
   35.7072  -18.9066   37.1760 C   0  0  0  0  0  0  0  0  0  0  0  0
   36.4920  -17.8612   37.6753 C   0  0  0  0  0  0  0  0  0  0  0  0
   36.7805  -16.7271   36.9592 C   0  0  0  0  0  0  0  0  0  0  0  0
   36.2827  -16.5834   35.6742 C   0  0  0  0  0  0  0  0  0  0  0  0
   36.5829  -15.4289   34.9590 O   0  0  0  0  0  0  0  0  0  0  0  0
   35.5056  -17.5841   35.1386 C   0  0  0  0  0  0  0  0  0  0  0  0
   35.2374  -18.7122   35.8934 C   0  0  0  0  0  0  0  0  0  0  0  0
   35.9767  -14.6342   35.0233 H   0  0  0  0  0  0  0  0  0  0  0  0
   40.1836  -20.1291   36.1696 C   0  0  0  0  0  0  0  0  0  0  0  0
   40.9068  -19.3876   37.2070 C   0  0  0  0  0  0  0  0  0  0  0  0
   40.0838  -19.5876   38.5137 C   0  0  0  0  0  0  0  0  0  0  0  0
   42.2906  -19.7856   37.5634 C   0  0  0  0  0  0  0  0  0  0  0  0
   40.6535  -25.0696   38.9153 C   0  0  0  0  0  0  0  0  0  0  0  0
   41.5414  -25.2960   40.0644 C   0  0  0  0  0  0  0  0  0  0  0  0
   42.8954  -25.1056   40.0225 C   0  0  0  0  0  0  0  0  0  0  0  0
   43.7483  -25.2807   41.0902 C   0  0  0  0  0  0  0  0  0  0  0  0
   43.1978  -25.6778   42.2886 C   0  0  0  0  0  0  0  0  0  0  0  0
   43.9943  -25.8680   43.3847 O   0  0  0  0  0  0  0  0  0  0  0  0
   41.8352  -25.8773   42.3564 C   0  0  0  0  0  0  0  0  0  0  0  0
   40.9998  -25.7012   41.2955 C   0  0  0  0  0  0  0  0  0  0  0  0
   44.9871  -25.7229   43.3367 H   0  0  0  0  0  0  0  0  0  0  0  0
   38.7764  -21.9835   42.4018 C   0  0  0  0  0  0  0  0  0  0  0  0
   38.7243  -20.5656   42.6967 C   0  0  0  0  0  0  0  0  0  0  0  0
   39.7396  -19.7789   42.0995 O   0  0  0  0  0  0  0  0  0  0  0  0
   37.9285  -19.9188   43.3941 O   0  0  0  0  0  0  0  0  0  0  0  0
   40.5926  -19.5605   42.5995 H   0  0  0  0  0  0  0  0  0  0  0  0
 28 29  1  0  0  0
 29 26  1  0  0  0
 26 27  1  0  0  0
 26  1  1  0  0  0
  1  2  1  0  0  0
  2  3  1  0  0  0
  3  4  2  0  0  0
  3  5  1  0  0  0
  5 30  1  0  0  0
 30 31  1  0  0  0
 31 32  2  0  0  0
 32 33  1  0  0  0
 33 34  2  0  0  0
 34 35  1  0  0  0
 34 36  1  0  0  0
 36 37  2  0  0  0
  5  6  1  0  0  0
  6  7  1  0  0  0
  7  8  2  0  0  0
  7  9  1  0  0  0
  9 39  1  0  0  0
 39 40  1  0  0  0
 40 41  1  0  0  0
 40 42  1  0  0  0
  9 10  1  0  0  0
 10 11  1  0  0  0
 11 12  2  0  0  0
 11 13  1  0  0  0
 13 43  1  0  0  0
 43 44  1  0  0  0
 44 45  2  0  0  0
 45 46  1  0  0  0
 46 47  2  0  0  0
 47 48  1  0  0  0
 47 49  1  0  0  0
 49 50  2  0  0  0
 13 14  1  0  0  0
 14 15  1  0  0  0
 15 16  2  0  0  0
 15 17  1  0  0  0
 17 52  1  0  0  0
 52 53  1  0  0  0
 53 54  1  0  0  0
 53 55  2  0  0  0
 17 18  1  0  0  0
 18 19  1  0  0  0
 19 20  2  0  0  0
 19  1  1  0  0  0
 37 31  1  0  0  0
 50 44  1  0  0  0
  2 21  1  0  0  0
 35 38  1  0  0  0
  6 22  1  0  0  0
 10 23  1  0  0  0
 48 51  1  0  0  0
 14 24  1  0  0  0
 54 56  1  0  0  0
 18 25  1  0  0  0
M  END
> <minimizedAffinity>
-2.78846

> <CNNscore>
0.4155076444

> <CNNaffinity>
5.7895703316

> <CNN_VS>
2.4056107998

> <CNNaffinity_variance>
2.4516890049

$$$$
[H]N=C(N([H])[H])N([H])C([H])([H])C([H])([H])C([H])([H])[C@@]1([H])C(=O)N2C([H])([H])C([H])([H])C([H])([H])[C@@]2([H])C(=O)N([H])[C@@]([H])(C([H])([H])C([H])([H])C(=O)N([H])[H])C(=O)N2C([H])([H])C([H])([H])C([H])([H])[C@@]2([H])C(=O)N1[H]


 42 44  0  0  0  0  0  0  0  0999 V2000
   38.6532  -21.7313   37.3077 C   0  0  0  0  0  0  0  0  0  0  0  0
   38.4769  -20.5000   36.6225 N   0  0  0  0  0  0  0  0  0  0  0  0
   39.3423  -19.5185   36.1101 C   0  0  0  0  0  0  0  0  0  0  0  0
   39.3872  -18.4394   36.8592 O   0  0  0  0  0  0  0  0  0  0  0  0
   40.1981  -19.3773   34.9675 C   0  0  0  0  0  0  0  0  0  0  0  0
   39.7800  -20.0680   33.6798 C   0  0  0  0  0  0  0  0  0  0  0  0
   40.8562  -19.4823   32.7646 C   0  0  0  0  0  0  0  0  0  0  0  0
   41.9997  -19.0734   33.6641 C   0  0  0  0  0  0  0  0  0  0  0  0
   41.5801  -19.6610   34.9781 N   0  0  0  0  0  0  0  0  0  0  0  0
   42.4287  -20.2959   35.8655 C   0  0  0  0  0  0  0  0  0  0  0  0
   43.4298  -20.9415   35.3558 O   0  0  0  0  0  0  0  0  0  0  0  0
   42.4067  -20.3786   37.3219 C   0  0  0  0  0  0  0  0  0  0  0  0
   42.8052  -21.7097   37.7925 N   0  0  0  0  0  0  0  0  0  0  0  0
   42.0918  -22.4119   38.7910 C   0  0  0  0  0  0  0  0  0  0  0  0
   42.2663  -23.6559   38.8680 O   0  0  0  0  0  0  0  0  0  0  0  0
   41.1640  -21.7830   39.7396 C   0  0  0  0  0  0  0  0  0  0  0  0
   41.6551  -22.2394   41.1264 C   0  0  0  0  0  0  0  0  0  0  0  0
   40.3518  -22.5313   41.8361 C   0  0  0  0  0  0  0  0  0  0  0  0
   39.6103  -23.2006   40.6655 C   0  0  0  0  0  0  0  0  0  0  0  0
   39.7888  -22.1459   39.6336 N   0  0  0  0  0  0  0  0  0  0  0  0
   38.7818  -21.6500   38.7882 C   0  0  0  0  0  0  0  0  0  0  0  0
   37.7924  -21.0179   39.3674 O   0  0  0  0  0  0  0  0  0  0  0  0
   37.4207  -20.2486   36.4792 H   0  0  0  0  0  0  0  0  0  0  0  0
   43.6504  -22.1108   37.3452 H   0  0  0  0  0  0  0  0  0  0  0  0
   39.3524  -22.8635   36.6593 C   0  0  0  0  0  0  0  0  0  0  0  0
   38.4459  -24.0944   36.4912 C   0  0  0  0  0  0  0  0  0  0  0  0
   37.0194  -23.7526   36.8306 C   0  0  0  0  0  0  0  0  0  0  0  0
   36.6035  -24.5143   37.9864 N   0  0  0  0  0  0  0  0  0  0  0  0
   36.9684  -25.4794   38.1193 H   0  0  0  0  0  0  0  0  0  0  0  0
   35.2934  -22.6525   38.8513 N   0  0  0  0  0  0  0  0  0  0  0  0
   35.7110  -23.9930   38.9529 C   0  0  0  0  0  0  0  0  0  0  0  0
   35.3029  -24.7539   39.8974 N   0  0  0  0  0  0  0  0  0  0  0  0
   35.8475  -21.9339   38.3211 H   0  0  0  0  0  0  0  0  0  0  0  0
   34.4033  -22.3085   39.3046 H   0  0  0  0  0  0  0  0  0  0  0  0
   35.5675  -25.7345   40.0278 H   0  0  0  0  0  0  0  0  0  0  0  0
   43.4248  -19.4106   37.8890 C   0  0  0  0  0  0  0  0  0  0  0  0
   42.7590  -18.5865   38.9614 C   0  0  0  0  0  0  0  0  0  0  0  0
   43.4142  -18.8455   40.2712 C   0  0  0  0  0  0  0  0  0  0  0  0
   42.7085  -18.6795   41.4895 N   0  0  0  0  0  0  0  0  0  0  0  0
   44.6206  -19.2184   40.2527 O   0  0  0  0  0  0  0  0  0  0  0  0
   41.9186  -18.0381   41.6440 H   0  0  0  0  0  0  0  0  0  0  0  0
   43.0466  -19.2821   42.2964 H   0  0  0  0  0  0  0  0  0  0  0  0
 30 31  1  0  0  0
 31 32  2  0  0  0
 31 28  1  0  0  0
 28 27  1  0  0  0
 27 26  1  0  0  0
 26 25  1  0  0  0
 25  1  1  0  0  0
  1  2  1  0  0  0
  2  3  1  0  0  0
  3  4  2  0  0  0
  3  5  1  0  0  0
  5  6  1  0  0  0
  6  7  1  0  0  0
  7  8  1  0  0  0
  8  9  1  0  0  0
  9 10  1  0  0  0
 10 11  2  0  0  0
 10 12  1  0  0  0
 12 36  1  0  0  0
 36 37  1  0  0  0
 37 38  1  0  0  0
 38 39  1  0  0  0
 38 40  2  0  0  0
 12 13  1  0  0  0
 13 14  1  0  0  0
 14 15  2  0  0  0
 14 16  1  0  0  0
 16 17  1  0  0  0
 17 18  1  0  0  0
 18 19  1  0  0  0
 19 20  1  0  0  0
 20 21  1  0  0  0
 21 22  2  0  0  0
 21  1  1  0  0  0
  9  5  1  0  0  0
 20 16  1  0  0  0
 30 33  1  0  0  0
 30 34  1  0  0  0
 32 35  1  0  0  0
 28 29  1  0  0  0
  2 23  1  0  0  0
 39 41  1  0  0  0
 39 42  1  0  0  0
 13 24  1  0  0  0
M  END
> <minimizedAffinity>
-3.65389

> <CNNscore>
0.4448003173

> <CNNaffinity>
4.8308300972

> <CNN_VS>
2.1487548351

> <CNNaffinity_variance>
0.2867350876

$$$$
[H]N=C(N([H])[H])N([H])C([H])([H])C([H])([H])C([H])([H])[C@@]1([H])C(=O)N2C([H])([H])C([H])([H])C([H])([H])[C@@]2([H])C(=O)N([H])[C@@]([H])(C([H])([H])C([H])([H])C(=O)N([H])[H])C(=O)N2C([H])([H])C([H])([H])C([H])([H])[C@@]2([H])C(=O)N1[H]


 42 44  0  0  0  0  0  0  0  0999 V2000
   38.1374  -20.9610   36.0456 C   0  0  0  0  0  0  0  0  0  0  0  0
   37.0511  -21.7576   36.4952 N   0  0  0  0  0  0  0  0  0  0  0  0
   36.7643  -22.4676   37.6735 C   0  0  0  0  0  0  0  0  0  0  0  0
   36.9152  -23.7659   37.5339 O   0  0  0  0  0  0  0  0  0  0  0  0
   36.3393  -22.1479   39.0058 C   0  0  0  0  0  0  0  0  0  0  0  0
   35.4336  -20.9414   39.1900 C   0  0  0  0  0  0  0  0  0  0  0  0
   35.1223  -21.1332   40.6750 C   0  0  0  0  0  0  0  0  0  0  0  0
   36.2532  -21.9610   41.2406 C   0  0  0  0  0  0  0  0  0  0  0  0
   37.2202  -21.9807   40.0951 N   0  0  0  0  0  0  0  0  0  0  0  0
   38.5907  -21.8482   40.2172 C   0  0  0  0  0  0  0  0  0  0  0  0
   39.0215  -21.1063   41.1882 O   0  0  0  0  0  0  0  0  0  0  0  0
   39.6828  -22.4073   39.4277 C   0  0  0  0  0  0  0  0  0  0  0  0
   40.7729  -21.4408   39.2547 N   0  0  0  0  0  0  0  0  0  0  0  0
   41.3911  -21.2025   38.0057 C   0  0  0  0  0  0  0  0  0  0  0  0
   42.0339  -20.1294   37.8674 O   0  0  0  0  0  0  0  0  0  0  0  0
   41.3303  -22.1251   36.8649 C   0  0  0  0  0  0  0  0  0  0  0  0
   42.8010  -22.3490   36.4654 C   0  0  0  0  0  0  0  0  0  0  0  0
   42.7202  -22.3178   34.9554 C   0  0  0  0  0  0  0  0  0  0  0  0
   41.7140  -21.1621   34.8139 C   0  0  0  0  0  0  0  0  0  0  0  0
   40.6377  -21.6704   35.7039 N   0  0  0  0  0  0  0  0  0  0  0  0
   39.2655  -21.6869   35.4011 C   0  0  0  0  0  0  0  0  0  0  0  0
   38.8977  -22.4475   34.4011 O   0  0  0  0  0  0  0  0  0  0  0  0
   36.2648  -21.8575   35.7395 H   0  0  0  0  0  0  0  0  0  0  0  0
   41.0673  -20.9365   40.1115 H   0  0  0  0  0  0  0  0  0  0  0  0
   38.4914  -19.7036   36.7419 C   0  0  0  0  0  0  0  0  0  0  0  0
   38.7695  -18.5495   35.7643 C   0  0  0  0  0  0  0  0  0  0  0  0
   37.5690  -18.2918   34.8930 C   0  0  0  0  0  0  0  0  0  0  0  0
   37.9915  -18.1623   33.5169 N   0  0  0  0  0  0  0  0  0  0  0  0
   37.3762  -17.6684   32.8389 H   0  0  0  0  0  0  0  0  0  0  0  0
   40.3888  -17.9093   33.1716 N   0  0  0  0  0  0  0  0  0  0  0  0
   39.2211  -18.6863   33.0521 C   0  0  0  0  0  0  0  0  0  0  0  0
   39.2429  -19.8563   32.5344 N   0  0  0  0  0  0  0  0  0  0  0  0
   40.3561  -16.8631   33.2658 H   0  0  0  0  0  0  0  0  0  0  0  0
   41.3518  -18.3439   33.1712 H   0  0  0  0  0  0  0  0  0  0  0  0
   38.4319  -20.4709   32.4186 H   0  0  0  0  0  0  0  0  0  0  0  0
   40.2797  -23.5848   40.1708 C   0  0  0  0  0  0  0  0  0  0  0  0
   39.7157  -24.8561   39.5892 C   0  0  0  0  0  0  0  0  0  0  0  0
   40.5101  -25.2572   38.3975 C   0  0  0  0  0  0  0  0  0  0  0  0
   41.9057  -25.4883   38.4904 N   0  0  0  0  0  0  0  0  0  0  0  0
   39.8916  -25.3830   37.3037 O   0  0  0  0  0  0  0  0  0  0  0  0
   42.5426  -25.0549   39.1730 H   0  0  0  0  0  0  0  0  0  0  0  0
   42.3014  -26.1726   37.7808 H   0  0  0  0  0  0  0  0  0  0  0  0
 30 31  1  0  0  0
 31 32  2  0  0  0
 31 28  1  0  0  0
 28 27  1  0  0  0
 27 26  1  0  0  0
 26 25  1  0  0  0
 25  1  1  0  0  0
  1  2  1  0  0  0
  2  3  1  0  0  0
  3  4  2  0  0  0
  3  5  1  0  0  0
  5  6  1  0  0  0
  6  7  1  0  0  0
  7  8  1  0  0  0
  8  9  1  0  0  0
  9 10  1  0  0  0
 10 11  2  0  0  0
 10 12  1  0  0  0
 12 36  1  0  0  0
 36 37  1  0  0  0
 37 38  1  0  0  0
 38 39  1  0  0  0
 38 40  2  0  0  0
 12 13  1  0  0  0
 13 14  1  0  0  0
 14 15  2  0  0  0
 14 16  1  0  0  0
 16 17  1  0  0  0
 17 18  1  0  0  0
 18 19  1  0  0  0
 19 20  1  0  0  0
 20 21  1  0  0  0
 21 22  2  0  0  0
 21  1  1  0  0  0
  9  5  1  0  0  0
 20 16  1  0  0  0
 30 33  1  0  0  0
 30 34  1  0  0  0
 32 35  1  0  0  0
 28 29  1  0  0  0
  2 23  1  0  0  0
 39 41  1  0  0  0
 39 42  1  0  0  0
 13 24  1  0  0  0
M  END
> <minimizedAffinity>
-4.13423

> <CNNscore>
0.4276520908

> <CNNaffinity>
5.0439214706

> <CNN_VS>
2.1570434570

> <CNNaffinity_variance>
0.1581359506

$$$$
[H]N=C(N([H])[H])N([H])C([H])([H])C([H])([H])C([H])([H])[C@@]1([H])C(=O)N2C([H])([H])C([H])([H])C([H])([H])[C@@]2([H])C(=O)N([H])[C@@]([H])(C([H])([H])C([H])([H])C(=O)N([H])[H])C(=O)N2C([H])([H])C([H])([H])C([H])([H])[C@@]2([H])C(=O)N1[H]


 42 44  0  0  0  0  0  0  0  0999 V2000
   38.3974  -21.5724   37.3328 C   0  0  0  0  0  0  0  0  0  0  0  0
   38.1029  -20.5440   36.3988 N   0  0  0  0  0  0  0  0  0  0  0  0
   38.8536  -19.5460   35.7546 C   0  0  0  0  0  0  0  0  0  0  0  0
   38.6567  -18.3516   36.2670 O   0  0  0  0  0  0  0  0  0  0  0  0
   39.7872  -19.4824   34.6672 C   0  0  0  0  0  0  0  0  0  0  0  0
   39.6112  -20.4685   33.5242 C   0  0  0  0  0  0  0  0  0  0  0  0
   40.6702  -19.8941   32.5822 C   0  0  0  0  0  0  0  0  0  0  0  0
   41.6415  -19.1309   33.4529 C   0  0  0  0  0  0  0  0  0  0  0  0
   41.1883  -19.5183   34.8285 N   0  0  0  0  0  0  0  0  0  0  0  0
   42.0317  -19.8166   35.8823 C   0  0  0  0  0  0  0  0  0  0  0  0
   43.1661  -20.3672   35.5845 O   0  0  0  0  0  0  0  0  0  0  0  0
   41.8774  -19.6207   37.3198 C   0  0  0  0  0  0  0  0  0  0  0  0
   42.4271  -20.7488   38.0797 N   0  0  0  0  0  0  0  0  0  0  0  0
   41.7343  -21.3577   39.1512 C   0  0  0  0  0  0  0  0  0  0  0  0
   42.0898  -22.5153   39.4940 O   0  0  0  0  0  0  0  0  0  0  0  0
   40.6307  -20.7264   39.8859 C   0  0  0  0  0  0  0  0  0  0  0  0
   41.0452  -20.8175   41.3666 C   0  0  0  0  0  0  0  0  0  0  0  0
   39.7382  -21.1862   42.0323 C   0  0  0  0  0  0  0  0  0  0  0  0
   39.2293  -22.1844   40.9775 C   0  0  0  0  0  0  0  0  0  0  0  0
   39.3453  -21.3326   39.7650 N   0  0  0  0  0  0  0  0  0  0  0  0
   38.3634  -21.1877   38.7702 C   0  0  0  0  0  0  0  0  0  0  0  0
   37.2357  -20.6348   39.1394 O   0  0  0  0  0  0  0  0  0  0  0  0
   37.0402  -20.5091   36.1364 H   0  0  0  0  0  0  0  0  0  0  0  0
   43.3644  -21.0778   37.7821 H   0  0  0  0  0  0  0  0  0  0  0  0
   39.3239  -22.6714   36.9795 C   0  0  0  0  0  0  0  0  0  0  0  0
   38.9892  -23.3070   35.6197 C   0  0  0  0  0  0  0  0  0  0  0  0
   40.2379  -23.8185   34.9518 C   0  0  0  0  0  0  0  0  0  0  0  0
   41.3862  -23.1113   35.4714 N   0  0  0  0  0  0  0  0  0  0  0  0
   41.3643  -22.0726   35.5246 H   0  0  0  0  0  0  0  0  0  0  0  0
   42.4173  -24.9209   36.7335 N   0  0  0  0  0  0  0  0  0  0  0  0
   42.5499  -23.7835   35.9147 C   0  0  0  0  0  0  0  0  0  0  0  0
   43.6971  -23.3418   35.5594 N   0  0  0  0  0  0  0  0  0  0  0  0
   41.5529  -25.1006   37.3036 H   0  0  0  0  0  0  0  0  0  0  0  0
   43.1822  -25.6454   36.8119 H   0  0  0  0  0  0  0  0  0  0  0  0
   43.8619  -22.5227   34.9672 H   0  0  0  0  0  0  0  0  0  0  0  0
   42.6724  -18.4025   37.7425 C   0  0  0  0  0  0  0  0  0  0  0  0
   42.2953  -17.2486   36.8488 C   0  0  0  0  0  0  0  0  0  0  0  0
   43.4948  -16.7772   36.1064 C   0  0  0  0  0  0  0  0  0  0  0  0
   43.3734  -16.1402   34.8458 N   0  0  0  0  0  0  0  0  0  0  0  0
   44.6215  -16.9673   36.6442 O   0  0  0  0  0  0  0  0  0  0  0  0
   42.6108  -16.2854   34.1699 H   0  0  0  0  0  0  0  0  0  0  0  0
   44.1519  -15.4592   34.6038 H   0  0  0  0  0  0  0  0  0  0  0  0
 30 31  1  0  0  0
 31 32  2  0  0  0
 31 28  1  0  0  0
 28 27  1  0  0  0
 27 26  1  0  0  0
 26 25  1  0  0  0
 25  1  1  0  0  0
  1  2  1  0  0  0
  2  3  1  0  0  0
  3  4  2  0  0  0
  3  5  1  0  0  0
  5  6  1  0  0  0
  6  7  1  0  0  0
  7  8  1  0  0  0
  8  9  1  0  0  0
  9 10  1  0  0  0
 10 11  2  0  0  0
 10 12  1  0  0  0
 12 36  1  0  0  0
 36 37  1  0  0  0
 37 38  1  0  0  0
 38 39  1  0  0  0
 38 40  2  0  0  0
 12 13  1  0  0  0
 13 14  1  0  0  0
 14 15  2  0  0  0
 14 16  1  0  0  0
 16 17  1  0  0  0
 17 18  1  0  0  0
 18 19  1  0  0  0
 19 20  1  0  0  0
 20 21  1  0  0  0
 21 22  2  0  0  0
 21  1  1  0  0  0
  9  5  1  0  0  0
 20 16  1  0  0  0
 30 33  1  0  0  0
 30 34  1  0  0  0
 32 35  1  0  0  0
 28 29  1  0  0  0
  2 23  1  0  0  0
 39 41  1  0  0  0
 39 42  1  0  0  0
 13 24  1  0  0  0
M  END
> <minimizedAffinity>
-3.84691

> <CNNscore>
0.4194670022

> <CNNaffinity>
4.9322576523

> <CNN_VS>
2.0689194202

> <CNNaffinity_variance>
0.0911730751

$$$$
[H]N=C(N([H])[H])N([H])C([H])([H])C([H])([H])C([H])([H])[C@@]1([H])C(=O)N2C([H])([H])C([H])([H])C([H])([H])[C@@]2([H])C(=O)N([H])[C@@]([H])(C([H])([H])C([H])([H])C(=O)N([H])[H])C(=O)N2C([H])([H])C([H])([H])C([H])([H])[C@@]2([H])C(=O)N1[H]


 42 44  0  0  0  0  0  0  0  0999 V2000
   35.4625  -19.5616   37.0458 C   0  0  0  0  0  0  0  0  0  0  0  0
   36.6643  -18.8085   36.9734 N   0  0  0  0  0  0  0  0  0  0  0  0
   38.0052  -19.1086   36.6791 C   0  0  0  0  0  0  0  0  0  0  0  0
   38.7648  -19.1454   37.7513 O   0  0  0  0  0  0  0  0  0  0  0  0
   38.7776  -19.3841   35.5021 C   0  0  0  0  0  0  0  0  0  0  0  0
   38.3621  -18.7053   34.2073 C   0  0  0  0  0  0  0  0  0  0  0  0
   39.5484  -19.1427   33.3470 C   0  0  0  0  0  0  0  0  0  0  0  0
   40.1060  -20.3878   33.9972 C   0  0  0  0  0  0  0  0  0  0  0  0
   39.0643  -20.6838   35.0341 N   0  0  0  0  0  0  0  0  0  0  0  0
   38.5931  -21.9465   35.3411 C   0  0  0  0  0  0  0  0  0  0  0  0
   38.5564  -22.8074   34.3734 O   0  0  0  0  0  0  0  0  0  0  0  0
   38.1110  -22.5117   36.5967 C   0  0  0  0  0  0  0  0  0  0  0  0
   36.9671  -23.4048   36.3821 N   0  0  0  0  0  0  0  0  0  0  0  0
   35.7970  -23.3509   37.1739 C   0  0  0  0  0  0  0  0  0  0  0  0
   34.7507  -23.8711   36.7063 O   0  0  0  0  0  0  0  0  0  0  0  0
   35.7267  -22.7287   38.5021 C   0  0  0  0  0  0  0  0  0  0  0  0
   35.1354  -23.8205   39.4136 C   0  0  0  0  0  0  0  0  0  0  0  0
   34.1753  -23.0240   40.2687 C   0  0  0  0  0  0  0  0  0  0  0  0
   33.6202  -22.0992   39.1711 C   0  0  0  0  0  0  0  0  0  0  0  0
   34.9007  -21.5730   38.6301 N   0  0  0  0  0  0  0  0  0  0  0  0
   35.1765  -20.2244   38.3473 C   0  0  0  0  0  0  0  0  0  0  0  0
   35.1867  -19.4045   39.3677 O   0  0  0  0  0  0  0  0  0  0  0  0
   36.5128  -17.7537   37.2257 H   0  0  0  0  0  0  0  0  0  0  0  0
   37.0673  -24.0861   35.6068 H   0  0  0  0  0  0  0  0  0  0  0  0
   34.9187  -20.2342   35.8445 C   0  0  0  0  0  0  0  0  0  0  0  0
   33.7016  -19.4981   35.2600 C   0  0  0  0  0  0  0  0  0  0  0  0
   34.1181  -18.1857   34.6507 C   0  0  0  0  0  0  0  0  0  0  0  0
   33.4021  -17.1074   35.2936 N   0  0  0  0  0  0  0  0  0  0  0  0
   32.3704  -17.1768   35.4074 H   0  0  0  0  0  0  0  0  0  0  0  0
   35.4605  -15.9463   35.8816 N   0  0  0  0  0  0  0  0  0  0  0  0
   34.0566  -15.9502   35.7788 C   0  0  0  0  0  0  0  0  0  0  0  0
   33.3558  -14.9328   36.1121 N   0  0  0  0  0  0  0  0  0  0  0  0
   36.0181  -16.8348   35.9454 H   0  0  0  0  0  0  0  0  0  0  0  0
   36.0171  -15.0485   35.8999 H   0  0  0  0  0  0  0  0  0  0  0  0
   32.3348  -14.8711   36.0615 H   0  0  0  0  0  0  0  0  0  0  0  0
   39.2024  -23.3666   37.2073 C   0  0  0  0  0  0  0  0  0  0  0  0
   39.0466  -23.3465   38.7065 C   0  0  0  0  0  0  0  0  0  0  0  0
   39.4194  -22.0055   39.2308 C   0  0  0  0  0  0  0  0  0  0  0  0
   40.5983  -21.3497   38.7951 N   0  0  0  0  0  0  0  0  0  0  0  0
   38.6446  -21.4776   40.0768 O   0  0  0  0  0  0  0  0  0  0  0  0
   41.4517  -21.8119   38.4526 H   0  0  0  0  0  0  0  0  0  0  0  0
   40.5702  -20.2886   38.8372 H   0  0  0  0  0  0  0  0  0  0  0  0
 30 31  1  0  0  0
 31 32  2  0  0  0
 31 28  1  0  0  0
 28 27  1  0  0  0
 27 26  1  0  0  0
 26 25  1  0  0  0
 25  1  1  0  0  0
  1  2  1  0  0  0
  2  3  1  0  0  0
  3  4  2  0  0  0
  3  5  1  0  0  0
  5  6  1  0  0  0
  6  7  1  0  0  0
  7  8  1  0  0  0
  8  9  1  0  0  0
  9 10  1  0  0  0
 10 11  2  0  0  0
 10 12  1  0  0  0
 12 36  1  0  0  0
 36 37  1  0  0  0
 37 38  1  0  0  0
 38 39  1  0  0  0
 38 40  2  0  0  0
 12 13  1  0  0  0
 13 14  1  0  0  0
 14 15  2  0  0  0
 14 16  1  0  0  0
 16 17  1  0  0  0
 17 18  1  0  0  0
 18 19  1  0  0  0
 19 20  1  0  0  0
 20 21  1  0  0  0
 21 22  2  0  0  0
 21  1  1  0  0  0
  9  5  1  0  0  0
 20 16  1  0  0  0
 30 33  1  0  0  0
 30 34  1  0  0  0
 32 35  1  0  0  0
 28 29  1  0  0  0
  2 23  1  0  0  0
 39 41  1  0  0  0
 39 42  1  0  0  0
 13 24  1  0  0  0
M  END
> <minimizedAffinity>
-4.27907

> <CNNscore>
0.4074515104

> <CNNaffinity>
4.9475383759

> <CNN_VS>
2.0158820152

> <CNNaffinity_variance>
0.2382135838

$$$$
[H]N=C(N([H])[H])N([H])C([H])([H])C([H])([H])C([H])([H])[C@@]1([H])C(=O)N2C([H])([H])C([H])([H])C([H])([H])[C@@]2([H])C(=O)N([H])[C@@]([H])(C([H])([H])C([H])([H])C(=O)N([H])[H])C(=O)N2C([H])([H])C([H])([H])C([H])([H])[C@@]2([H])C(=O)N1[H]


 42 44  0  0  0  0  0  0  0  0999 V2000
   37.0063  -19.4031   33.7656 C   0  0  0  0  0  0  0  0  0  0  0  0
   38.2003  -20.0427   33.3389 N   0  0  0  0  0  0  0  0  0  0  0  0
   39.2444  -20.7251   33.9862 C   0  0  0  0  0  0  0  0  0  0  0  0
   40.3402  -20.0052   34.0808 O   0  0  0  0  0  0  0  0  0  0  0  0
   39.4367  -22.0190   34.5749 C   0  0  0  0  0  0  0  0  0  0  0  0
   38.6812  -23.1913   33.9708 C   0  0  0  0  0  0  0  0  0  0  0  0
   39.3413  -24.3095   34.7788 C   0  0  0  0  0  0  0  0  0  0  0  0
   39.8733  -23.6642   36.0376 C   0  0  0  0  0  0  0  0  0  0  0  0
   39.2804  -22.2899   35.9507 N   0  0  0  0  0  0  0  0  0  0  0  0
   38.7461  -21.5922   37.0177 C   0  0  0  0  0  0  0  0  0  0  0  0
   38.1828  -22.2931   37.9504 O   0  0  0  0  0  0  0  0  0  0  0  0
   38.6954  -20.1617   37.2998 C   0  0  0  0  0  0  0  0  0  0  0  0
   37.4173  -19.7772   37.9087 N   0  0  0  0  0  0  0  0  0  0  0  0
   36.6763  -18.6512   37.4822 C   0  0  0  0  0  0  0  0  0  0  0  0
   35.4555  -18.6065   37.7848 O   0  0  0  0  0  0  0  0  0  0  0  0
   37.2398  -17.5355   36.7116 C   0  0  0  0  0  0  0  0  0  0  0  0
   36.8622  -16.2765   37.5147 C   0  0  0  0  0  0  0  0  0  0  0  0
   36.4691  -15.3143   36.4161 C   0  0  0  0  0  0  0  0  0  0  0  0
   35.7082  -16.3059   35.5185 C   0  0  0  0  0  0  0  0  0  0  0  0
   36.7507  -17.3567   35.3838 N   0  0  0  0  0  0  0  0  0  0  0  0
   37.1332  -17.9804   34.1840 C   0  0  0  0  0  0  0  0  0  0  0  0
   37.6857  -17.2138   33.2780 O   0  0  0  0  0  0  0  0  0  0  0  0
   38.3511  -19.9681   32.2568 H   0  0  0  0  0  0  0  0  0  0  0  0
   37.0847  -20.3862   38.6793 H   0  0  0  0  0  0  0  0  0  0  0  0
   35.9279  -20.1762   34.4217 C   0  0  0  0  0  0  0  0  0  0  0  0
   34.5301  -19.6177   34.1065 C   0  0  0  0  0  0  0  0  0  0  0  0
   33.5710  -19.9271   35.2252 C   0  0  0  0  0  0  0  0  0  0  0  0
   33.7738  -21.2868   35.6713 N   0  0  0  0  0  0  0  0  0  0  0  0
   33.8273  -22.0515   34.9680 H   0  0  0  0  0  0  0  0  0  0  0  0
   32.7457  -21.7351   37.8329 N   0  0  0  0  0  0  0  0  0  0  0  0
   33.9034  -21.6209   37.0403 C   0  0  0  0  0  0  0  0  0  0  0  0
   35.0716  -21.8126   37.5260 N   0  0  0  0  0  0  0  0  0  0  0  0
   31.8411  -21.2688   37.5705 H   0  0  0  0  0  0  0  0  0  0  0  0
   32.7346  -22.2952   38.7287 H   0  0  0  0  0  0  0  0  0  0  0  0
   35.9508  -21.7454   37.0053 H   0  0  0  0  0  0  0  0  0  0  0  0
   39.7649  -19.8185   38.3163 C   0  0  0  0  0  0  0  0  0  0  0  0
   40.9548  -19.2475   37.5879 C   0  0  0  0  0  0  0  0  0  0  0  0
   41.9370  -20.3288   37.3082 C   0  0  0  0  0  0  0  0  0  0  0  0
   42.5976  -20.4135   36.0568 N   0  0  0  0  0  0  0  0  0  0  0  0
   42.1571  -21.1648   38.2288 O   0  0  0  0  0  0  0  0  0  0  0  0
   42.2307  -20.0694   35.1589 H   0  0  0  0  0  0  0  0  0  0  0  0
   43.5528  -20.8779   36.0775 H   0  0  0  0  0  0  0  0  0  0  0  0
 30 31  1  0  0  0
 31 32  2  0  0  0
 31 28  1  0  0  0
 28 27  1  0  0  0
 27 26  1  0  0  0
 26 25  1  0  0  0
 25  1  1  0  0  0
  1  2  1  0  0  0
  2  3  1  0  0  0
  3  4  2  0  0  0
  3  5  1  0  0  0
  5  6  1  0  0  0
  6  7  1  0  0  0
  7  8  1  0  0  0
  8  9  1  0  0  0
  9 10  1  0  0  0
 10 11  2  0  0  0
 10 12  1  0  0  0
 12 36  1  0  0  0
 36 37  1  0  0  0
 37 38  1  0  0  0
 38 39  1  0  0  0
 38 40  2  0  0  0
 12 13  1  0  0  0
 13 14  1  0  0  0
 14 15  2  0  0  0
 14 16  1  0  0  0
 16 17  1  0  0  0
 17 18  1  0  0  0
 18 19  1  0  0  0
 19 20  1  0  0  0
 20 21  1  0  0  0
 21 22  2  0  0  0
 21  1  1  0  0  0
  9  5  1  0  0  0
 20 16  1  0  0  0
 30 33  1  0  0  0
 30 34  1  0  0  0
 32 35  1  0  0  0
 28 29  1  0  0  0
  2 23  1  0  0  0
 39 41  1  0  0  0
 39 42  1  0  0  0
 13 24  1  0  0  0
M  END
> <minimizedAffinity>
-3.63306

> <CNNscore>
0.4007501304

> <CNNaffinity>
5.4330549240

> <CNN_VS>
2.1772973537

> <CNNaffinity_variance>
0.2337362766

$$$$
[H]N=C(N([H])[H])N([H])C([H])([H])C([H])([H])C([H])([H])[C@@]1([H])C(=O)N2C([H])([H])C([H])([H])C([H])([H])[C@@]2([H])C(=O)N([H])[C@@]([H])(C([H])([H])C([H])([H])C(=O)N([H])[H])C(=O)N2C([H])([H])C([H])([H])C([H])([H])[C@@]2([H])C(=O)N1[H]


 42 44  0  0  0  0  0  0  0  0999 V2000
   35.6500  -19.4584   38.1150 C   0  0  0  0  0  0  0  0  0  0  0  0
   36.1766  -20.7154   38.5143 N   0  0  0  0  0  0  0  0  0  0  0  0
   37.2748  -21.4994   38.1218 C   0  0  0  0  0  0  0  0  0  0  0  0
   36.9268  -22.5245   37.3762 O   0  0  0  0  0  0  0  0  0  0  0  0
   38.6946  -21.4810   38.3260 C   0  0  0  0  0  0  0  0  0  0  0  0
   39.2136  -20.9289   39.6435 C   0  0  0  0  0  0  0  0  0  0  0  0
   40.6881  -21.2912   39.4604 C   0  0  0  0  0  0  0  0  0  0  0  0
   40.9098  -21.4212   37.9711 C   0  0  0  0  0  0  0  0  0  0  0  0
   39.6132  -20.9055   37.4229 N   0  0  0  0  0  0  0  0  0  0  0  0
   39.4952  -20.0806   36.3200 C   0  0  0  0  0  0  0  0  0  0  0  0
   40.4642  -19.2470   36.1080 O   0  0  0  0  0  0  0  0  0  0  0  0
   38.4449  -19.9685   35.3136 C   0  0  0  0  0  0  0  0  0  0  0  0
   38.2107  -18.5714   34.9321 N   0  0  0  0  0  0  0  0  0  0  0  0
   36.9150  -18.0151   34.8280 C   0  0  0  0  0  0  0  0  0  0  0  0
   36.8130  -16.7613   34.8643 O   0  0  0  0  0  0  0  0  0  0  0  0
   35.6864  -18.8057   34.6807 C   0  0  0  0  0  0  0  0  0  0  0  0
   34.9922  -18.2198   33.4368 C   0  0  0  0  0  0  0  0  0  0  0  0
   33.5437  -18.1984   33.8714 C   0  0  0  0  0  0  0  0  0  0  0  0
   33.7575  -17.7342   35.3229 C   0  0  0  0  0  0  0  0  0  0  0  0
   34.7513  -18.7509   35.7563 N   0  0  0  0  0  0  0  0  0  0  0  0
   34.7102  -19.4732   36.9610 C   0  0  0  0  0  0  0  0  0  0  0  0
   33.6987  -20.2893   37.1179 O   0  0  0  0  0  0  0  0  0  0  0  0
   35.5743  -21.1923   39.2948 H   0  0  0  0  0  0  0  0  0  0  0  0
   39.0604  -18.0086   34.7408 H   0  0  0  0  0  0  0  0  0  0  0  0
   36.4394  -18.2185   38.2899 C   0  0  0  0  0  0  0  0  0  0  0  0
   35.6237  -16.9538   37.9733 C   0  0  0  0  0  0  0  0  0  0  0  0
   36.5229  -15.7487   37.8954 C   0  0  0  0  0  0  0  0  0  0  0  0
   35.7187  -14.5556   37.7585 N   0  0  0  0  0  0  0  0  0  0  0  0
   35.4457  -14.0242   38.6101 H   0  0  0  0  0  0  0  0  0  0  0  0
   33.9067  -13.9096   36.2653 N   0  0  0  0  0  0  0  0  0  0  0  0
   35.2845  -14.0782   36.4991 C   0  0  0  0  0  0  0  0  0  0  0  0
   36.1559  -13.8094   35.6014 N   0  0  0  0  0  0  0  0  0  0  0  0
   33.1788  -14.4219   36.8241 H   0  0  0  0  0  0  0  0  0  0  0  0
   33.5423  -13.2599   35.5160 H   0  0  0  0  0  0  0  0  0  0  0  0
   37.1696  -13.9096   35.7073 H   0  0  0  0  0  0  0  0  0  0  0  0
   38.8891  -20.6795   34.0519 C   0  0  0  0  0  0  0  0  0  0  0  0
   39.2076  -19.6442   33.0035 C   0  0  0  0  0  0  0  0  0  0  0  0
   40.6231  -19.7889   32.5706 C   0  0  0  0  0  0  0  0  0  0  0  0
   40.9844  -20.6835   31.5319 N   0  0  0  0  0  0  0  0  0  0  0  0
   41.4862  -19.0838   33.1645 O   0  0  0  0  0  0  0  0  0  0  0  0
   40.4780  -21.5417   31.2745 H   0  0  0  0  0  0  0  0  0  0  0  0
   41.8586  -20.4202   30.9888 H   0  0  0  0  0  0  0  0  0  0  0  0
 30 31  1  0  0  0
 31 32  2  0  0  0
 31 28  1  0  0  0
 28 27  1  0  0  0
 27 26  1  0  0  0
 26 25  1  0  0  0
 25  1  1  0  0  0
  1  2  1  0  0  0
  2  3  1  0  0  0
  3  4  2  0  0  0
  3  5  1  0  0  0
  5  6  1  0  0  0
  6  7  1  0  0  0
  7  8  1  0  0  0
  8  9  1  0  0  0
  9 10  1  0  0  0
 10 11  2  0  0  0
 10 12  1  0  0  0
 12 36  1  0  0  0
 36 37  1  0  0  0
 37 38  1  0  0  0
 38 39  1  0  0  0
 38 40  2  0  0  0
 12 13  1  0  0  0
 13 14  1  0  0  0
 14 15  2  0  0  0
 14 16  1  0  0  0
 16 17  1  0  0  0
 17 18  1  0  0  0
 18 19  1  0  0  0
 19 20  1  0  0  0
 20 21  1  0  0  0
 21 22  2  0  0  0
 21  1  1  0  0  0
  9  5  1  0  0  0
 20 16  1  0  0  0
 30 33  1  0  0  0
 30 34  1  0  0  0
 32 35  1  0  0  0
 28 29  1  0  0  0
  2 23  1  0  0  0
 39 41  1  0  0  0
 39 42  1  0  0  0
 13 24  1  0  0  0
M  END
> <minimizedAffinity>
-4.90231

> <CNNscore>
0.3880406618

> <CNNaffinity>
5.3306155205

> <CNN_VS>
2.0684955120

> <CNNaffinity_variance>
0.4254128933

$$$$
[H]N=C(N([H])[H])N([H])C([H])([H])C([H])([H])C([H])([H])[C@@]1([H])C(=O)N2C([H])([H])C([H])([H])C([H])([H])[C@@]2([H])C(=O)N([H])[C@@]([H])(C([H])([H])C([H])([H])C(=O)N([H])[H])C(=O)N2C([H])([H])C([H])([H])C([H])([H])[C@@]2([H])C(=O)N1[H]


 42 44  0  0  0  0  0  0  0  0999 V2000
   37.6632  -19.5691   36.3561 C   0  0  0  0  0  0  0  0  0  0  0  0
   38.0995  -20.1723   37.5655 N   0  0  0  0  0  0  0  0  0  0  0  0
   37.5864  -21.1630   38.4199 C   0  0  0  0  0  0  0  0  0  0  0  0
   37.0699  -20.6661   39.5217 O   0  0  0  0  0  0  0  0  0  0  0  0
   37.4797  -22.5935   38.4114 C   0  0  0  0  0  0  0  0  0  0  0  0
   38.5745  -23.3812   37.7108 C   0  0  0  0  0  0  0  0  0  0  0  0
   38.1300  -24.7832   38.1300 C   0  0  0  0  0  0  0  0  0  0  0  0
   36.6570  -24.6811   38.4521 C   0  0  0  0  0  0  0  0  0  0  0  0
   36.3356  -23.2958   37.9775 N   0  0  0  0  0  0  0  0  0  0  0  0
   35.1864  -22.9422   37.2955 C   0  0  0  0  0  0  0  0  0  0  0  0
   34.6678  -23.8411   36.5197 O   0  0  0  0  0  0  0  0  0  0  0  0
   34.4207  -21.7004   37.2849 C   0  0  0  0  0  0  0  0  0  0  0  0
   33.9215  -21.3862   35.9416 N   0  0  0  0  0  0  0  0  0  0  0  0
   34.0249  -20.0969   35.3707 C   0  0  0  0  0  0  0  0  0  0  0  0
   33.9207  -20.0017   34.1201 O   0  0  0  0  0  0  0  0  0  0  0  0
   34.2452  -18.8673   36.1426 C   0  0  0  0  0  0  0  0  0  0  0  0
   33.1127  -17.9212   35.7009 C   0  0  0  0  0  0  0  0  0  0  0  0
   33.8391  -16.5994   35.5888 C   0  0  0  0  0  0  0  0  0  0  0  0
   35.1399  -17.1180   34.9508 C   0  0  0  0  0  0  0  0  0  0  0  0
   35.4789  -18.1842   35.9293 N   0  0  0  0  0  0  0  0  0  0  0  0
   36.7473  -18.4040   36.4928 C   0  0  0  0  0  0  0  0  0  0  0  0
   37.2193  -17.4517   37.2571 O   0  0  0  0  0  0  0  0  0  0  0  0
   39.0449  -19.7524   37.9250 H   0  0  0  0  0  0  0  0  0  0  0  0
   33.4831  -22.1737   35.4288 H   0  0  0  0  0  0  0  0  0  0  0  0
   37.5055  -20.3744   35.1241 C   0  0  0  0  0  0  0  0  0  0  0  0
   38.7928  -20.4205   34.2841 C   0  0  0  0  0  0  0  0  0  0  0  0
   39.5294  -21.7135   34.5134 C   0  0  0  0  0  0  0  0  0  0  0  0
   38.7625  -22.8086   33.9643 N   0  0  0  0  0  0  0  0  0  0  0  0
   37.7716  -22.6501   33.6900 H   0  0  0  0  0  0  0  0  0  0  0  0
   40.2787  -24.5692   34.6939 N   0  0  0  0  0  0  0  0  0  0  0  0
   39.3127  -24.0998   33.7838 C   0  0  0  0  0  0  0  0  0  0  0  0
   38.9177  -24.8120   32.7968 N   0  0  0  0  0  0  0  0  0  0  0  0
   40.8545  -23.9164   35.2828 H   0  0  0  0  0  0  0  0  0  0  0  0
   40.4685  -25.6001   34.8253 H   0  0  0  0  0  0  0  0  0  0  0  0
   38.2207  -24.5307   32.1013 H   0  0  0  0  0  0  0  0  0  0  0  0
   33.1954  -21.8658   38.1601 C   0  0  0  0  0  0  0  0  0  0  0  0
   33.6155  -21.7460   39.6029 C   0  0  0  0  0  0  0  0  0  0  0  0
   33.2062  -22.9671   40.3468 C   0  0  0  0  0  0  0  0  0  0  0  0
   31.8387  -23.3058   40.5043 N   0  0  0  0  0  0  0  0  0  0  0  0
   34.1244  -23.6870   40.8300 O   0  0  0  0  0  0  0  0  0  0  0  0
   31.0523  -22.6418   40.5146 H   0  0  0  0  0  0  0  0  0  0  0  0
   31.6375  -24.3424   40.6204 H   0  0  0  0  0  0  0  0  0  0  0  0
 30 31  1  0  0  0
 31 32  2  0  0  0
 31 28  1  0  0  0
 28 27  1  0  0  0
 27 26  1  0  0  0
 26 25  1  0  0  0
 25  1  1  0  0  0
  1  2  1  0  0  0
  2  3  1  0  0  0
  3  4  2  0  0  0
  3  5  1  0  0  0
  5  6  1  0  0  0
  6  7  1  0  0  0
  7  8  1  0  0  0
  8  9  1  0  0  0
  9 10  1  0  0  0
 10 11  2  0  0  0
 10 12  1  0  0  0
 12 36  1  0  0  0
 36 37  1  0  0  0
 37 38  1  0  0  0
 38 39  1  0  0  0
 38 40  2  0  0  0
 12 13  1  0  0  0
 13 14  1  0  0  0
 14 15  2  0  0  0
 14 16  1  0  0  0
 16 17  1  0  0  0
 17 18  1  0  0  0
 18 19  1  0  0  0
 19 20  1  0  0  0
 20 21  1  0  0  0
 21 22  2  0  0  0
 21  1  1  0  0  0
  9  5  1  0  0  0
 20 16  1  0  0  0
 30 33  1  0  0  0
 30 34  1  0  0  0
 32 35  1  0  0  0
 28 29  1  0  0  0
  2 23  1  0  0  0
 39 41  1  0  0  0
 39 42  1  0  0  0
 13 24  1  0  0  0
M  END
> <minimizedAffinity>
-4.13894

> <CNNscore>
0.3856978118

> <CNNaffinity>
4.8464770317

> <CNN_VS>
1.8692755699

> <CNNaffinity_variance>
0.0864905268

$$$$
[H]N=C(N([H])[H])N([H])C([H])([H])C([H])([H])C([H])([H])[C@@]1([H])C(=O)N2C([H])([H])C([H])([H])C([H])([H])[C@@]2([H])C(=O)N([H])[C@@]([H])(C([H])([H])C([H])([H])C(=O)N([H])[H])C(=O)N2C([H])([H])C([H])([H])C([H])([H])[C@@]2([H])C(=O)N1[H]


 42 44  0  0  0  0  0  0  0  0999 V2000
   34.3140  -20.3474   37.0954 C   0  0  0  0  0  0  0  0  0  0  0  0
   34.8961  -19.0557   36.9984 N   0  0  0  0  0  0  0  0  0  0  0  0
   36.1663  -18.5649   36.6514 C   0  0  0  0  0  0  0  0  0  0  0  0
   36.8632  -18.1753   37.6957 O   0  0  0  0  0  0  0  0  0  0  0  0
   36.9134  -18.3684   35.4427 C   0  0  0  0  0  0  0  0  0  0  0  0
   36.1394  -18.0329   34.1784 C   0  0  0  0  0  0  0  0  0  0  0  0
   37.3335  -17.7423   33.2681 C   0  0  0  0  0  0  0  0  0  0  0  0
   38.5120  -18.4717   33.8708 C   0  0  0  0  0  0  0  0  0  0  0  0
   37.8505  -19.2934   34.9362 N   0  0  0  0  0  0  0  0  0  0  0  0
   38.1679  -20.6061   35.2311 C   0  0  0  0  0  0  0  0  0  0  0  0
   38.5729  -21.3443   34.2464 O   0  0  0  0  0  0  0  0  0  0  0  0
   38.1299  -21.3429   36.4898 C   0  0  0  0  0  0  0  0  0  0  0  0
   37.6617  -22.7194   36.2949 N   0  0  0  0  0  0  0  0  0  0  0  0
   36.6901  -23.3207   37.1276 C   0  0  0  0  0  0  0  0  0  0  0  0
   36.0868  -24.3326   36.6849 O   0  0  0  0  0  0  0  0  0  0  0  0
   36.3425  -22.8403   38.4709 C   0  0  0  0  0  0  0  0  0  0  0  0
   36.4903  -24.0765   39.3778 C   0  0  0  0  0  0  0  0  0  0  0  0
   35.2860  -23.9427   40.2829 C   0  0  0  0  0  0  0  0  0  0  0  0
   34.2682  -23.4793   39.2259 C   0  0  0  0  0  0  0  0  0  0  0  0
   35.0218  -22.3334   38.6530 N   0  0  0  0  0  0  0  0  0  0  0  0
   34.4952  -21.0572   38.3909 C   0  0  0  0  0  0  0  0  0  0  0  0
   34.0929  -20.3676   39.4284 O   0  0  0  0  0  0  0  0  0  0  0  0
   34.1978  -18.2601   37.2791 H   0  0  0  0  0  0  0  0  0  0  0  0
   38.0895  -23.2322   35.5016 H   0  0  0  0  0  0  0  0  0  0  0  0
   34.1833  -21.2091   35.8989 C   0  0  0  0  0  0  0  0  0  0  0  0
   32.8172  -21.9118   35.8280 C   0  0  0  0  0  0  0  0  0  0  0  0
   32.0693  -21.4931   34.5902 C   0  0  0  0  0  0  0  0  0  0  0  0
   30.9090  -20.7183   34.9673 N   0  0  0  0  0  0  0  0  0  0  0  0
   30.0265  -21.2098   35.2159 H   0  0  0  0  0  0  0  0  0  0  0  0
   32.0647  -18.6161   34.5481 N   0  0  0  0  0  0  0  0  0  0  0  0
   30.9275  -19.3040   35.0120 C   0  0  0  0  0  0  0  0  0  0  0  0
   29.9082  -18.6827   35.4727 N   0  0  0  0  0  0  0  0  0  0  0  0
   33.0090  -19.0737   34.4902 H   0  0  0  0  0  0  0  0  0  0  0  0
   32.0196  -17.6073   34.2373 H   0  0  0  0  0  0  0  0  0  0  0  0
   29.0526  -19.1219   35.8246 H   0  0  0  0  0  0  0  0  0  0  0  0
   39.5359  -21.4520   37.0431 C   0  0  0  0  0  0  0  0  0  0  0  0
   39.6091  -20.6668   38.3279 C   0  0  0  0  0  0  0  0  0  0  0  0
   39.4939  -21.5914   39.4871 C   0  0  0  0  0  0  0  0  0  0  0  0
   40.1344  -22.8561   39.4829 N   0  0  0  0  0  0  0  0  0  0  0  0
   38.8044  -21.2040   40.4718 O   0  0  0  0  0  0  0  0  0  0  0  0
   40.3617  -23.4119   38.6469 H   0  0  0  0  0  0  0  0  0  0  0  0
   40.3902  -23.2394   40.4400 H   0  0  0  0  0  0  0  0  0  0  0  0
 30 31  1  0  0  0
 31 32  2  0  0  0
 31 28  1  0  0  0
 28 27  1  0  0  0
 27 26  1  0  0  0
 26 25  1  0  0  0
 25  1  1  0  0  0
  1  2  1  0  0  0
  2  3  1  0  0  0
  3  4  2  0  0  0
  3  5  1  0  0  0
  5  6  1  0  0  0
  6  7  1  0  0  0
  7  8  1  0  0  0
  8  9  1  0  0  0
  9 10  1  0  0  0
 10 11  2  0  0  0
 10 12  1  0  0  0
 12 36  1  0  0  0
 36 37  1  0  0  0
 37 38  1  0  0  0
 38 39  1  0  0  0
 38 40  2  0  0  0
 12 13  1  0  0  0
 13 14  1  0  0  0
 14 15  2  0  0  0
 14 16  1  0  0  0
 16 17  1  0  0  0
 17 18  1  0  0  0
 18 19  1  0  0  0
 19 20  1  0  0  0
 20 21  1  0  0  0
 21 22  2  0  0  0
 21  1  1  0  0  0
  9  5  1  0  0  0
 20 16  1  0  0  0
 30 33  1  0  0  0
 30 34  1  0  0  0
 32 35  1  0  0  0
 28 29  1  0  0  0
  2 23  1  0  0  0
 39 41  1  0  0  0
 39 42  1  0  0  0
 13 24  1  0  0  0
M  END
> <minimizedAffinity>
-4.63000

> <CNNscore>
0.3820537329

> <CNNaffinity>
4.9661369324

> <CNN_VS>
1.8973311186

> <CNNaffinity_variance>
0.1421931237

$$$$
[H]N=C(N([H])[H])N([H])C([H])([H])C([H])([H])C([H])([H])[C@@]1([H])C(=O)N2C([H])([H])C([H])([H])C([H])([H])[C@@]2([H])C(=O)N([H])[C@@]([H])(C([H])([H])C([H])([H])C(=O)N([H])[H])C(=O)N2C([H])([H])C([H])([H])C([H])([H])[C@@]2([H])C(=O)N1[H]


 42 44  0  0  0  0  0  0  0  0999 V2000
   36.0820  -20.1452   37.1504 C   0  0  0  0  0  0  0  0  0  0  0  0
   35.4883  -21.0865   38.0326 N   0  0  0  0  0  0  0  0  0  0  0  0
   34.2868  -21.8151   38.0414 C   0  0  0  0  0  0  0  0  0  0  0  0
   33.4026  -21.3270   38.8827 O   0  0  0  0  0  0  0  0  0  0  0  0
   33.7631  -22.9699   37.3704 C   0  0  0  0  0  0  0  0  0  0  0  0
   34.7408  -24.0656   36.9788 C   0  0  0  0  0  0  0  0  0  0  0  0
   33.7212  -25.1006   36.5015 C   0  0  0  0  0  0  0  0  0  0  0  0
   32.4761  -24.3282   36.1313 C   0  0  0  0  0  0  0  0  0  0  0  0
   32.9601  -22.9114   36.2119 N   0  0  0  0  0  0  0  0  0  0  0  0
   32.6344  -21.9140   35.3120 C   0  0  0  0  0  0  0  0  0  0  0  0
   32.4348  -22.2775   34.0844 O   0  0  0  0  0  0  0  0  0  0  0  0
   32.4681  -20.4759   35.4924 C   0  0  0  0  0  0  0  0  0  0  0  0
   33.0047  -19.7239   34.3528 N   0  0  0  0  0  0  0  0  0  0  0  0
   33.8288  -18.5857   34.5088 C   0  0  0  0  0  0  0  0  0  0  0  0
   34.5317  -18.2342   33.5258 O   0  0  0  0  0  0  0  0  0  0  0  0
   33.9153  -17.7915   35.7409 C   0  0  0  0  0  0  0  0  0  0  0  0
   33.6443  -16.3433   35.2915 C   0  0  0  0  0  0  0  0  0  0  0  0
   34.6623  -15.5718   36.1015 C   0  0  0  0  0  0  0  0  0  0  0  0
   35.8388  -16.5546   35.9678 C   0  0  0  0  0  0  0  0  0  0  0  0
   35.1662  -17.7983   36.4261 N   0  0  0  0  0  0  0  0  0  0  0  0
   35.6927  -18.7219   37.3450 C   0  0  0  0  0  0  0  0  0  0  0  0
   35.8817  -18.2878   38.5655 O   0  0  0  0  0  0  0  0  0  0  0  0
   36.1008  -21.2706   38.9216 H   0  0  0  0  0  0  0  0  0  0  0  0
   32.7416  -20.0795   33.4149 H   0  0  0  0  0  0  0  0  0  0  0  0
   36.4509  -20.5316   35.7700 C   0  0  0  0  0  0  0  0  0  0  0  0
   37.6285  -19.7066   35.2243 C   0  0  0  0  0  0  0  0  0  0  0  0
   38.4891  -20.5462   34.3181 C   0  0  0  0  0  0  0  0  0  0  0  0
   38.7830  -19.8066   33.1116 N   0  0  0  0  0  0  0  0  0  0  0  0
   38.0104  -19.5754   32.4544 H   0  0  0  0  0  0  0  0  0  0  0  0
   40.5322  -18.1157   33.2207 N   0  0  0  0  0  0  0  0  0  0  0  0
   40.0930  -19.3809   32.7871 C   0  0  0  0  0  0  0  0  0  0  0  0
   40.8490  -20.1577   32.1072 N   0  0  0  0  0  0  0  0  0  0  0  0
   39.8606  -17.3460   33.4677 H   0  0  0  0  0  0  0  0  0  0  0  0
   41.5582  -17.8830   33.3169 H   0  0  0  0  0  0  0  0  0  0  0  0
   40.5914  -21.0870   31.7626 H   0  0  0  0  0  0  0  0  0  0  0  0
   30.9896  -20.1511   35.5510 C   0  0  0  0  0  0  0  0  0  0  0  0
   30.3414  -21.0449   36.5773 C   0  0  0  0  0  0  0  0  0  0  0  0
   28.8905  -21.1795   36.2794 C   0  0  0  0  0  0  0  0  0  0  0  0
   28.4178  -22.1488   35.3593 N   0  0  0  0  0  0  0  0  0  0  0  0
   28.1004  -20.3974   36.8785 O   0  0  0  0  0  0  0  0  0  0  0  0
   28.9482  -22.5327   34.5651 H   0  0  0  0  0  0  0  0  0  0  0  0
   27.4261  -22.4902   35.5281 H   0  0  0  0  0  0  0  0  0  0  0  0
 30 31  1  0  0  0
 31 32  2  0  0  0
 31 28  1  0  0  0
 28 27  1  0  0  0
 27 26  1  0  0  0
 26 25  1  0  0  0
 25  1  1  0  0  0
  1  2  1  0  0  0
  2  3  1  0  0  0
  3  4  2  0  0  0
  3  5  1  0  0  0
  5  6  1  0  0  0
  6  7  1  0  0  0
  7  8  1  0  0  0
  8  9  1  0  0  0
  9 10  1  0  0  0
 10 11  2  0  0  0
 10 12  1  0  0  0
 12 36  1  0  0  0
 36 37  1  0  0  0
 37 38  1  0  0  0
 38 39  1  0  0  0
 38 40  2  0  0  0
 12 13  1  0  0  0
 13 14  1  0  0  0
 14 15  2  0  0  0
 14 16  1  0  0  0
 16 17  1  0  0  0
 17 18  1  0  0  0
 18 19  1  0  0  0
 19 20  1  0  0  0
 20 21  1  0  0  0
 21 22  2  0  0  0
 21  1  1  0  0  0
  9  5  1  0  0  0
 20 16  1  0  0  0
 30 33  1  0  0  0
 30 34  1  0  0  0
 32 35  1  0  0  0
 28 29  1  0  0  0
  2 23  1  0  0  0
 39 41  1  0  0  0
 39 42  1  0  0  0
 13 24  1  0  0  0
M  END
> <minimizedAffinity>
-6.12641

> <CNNscore>
0.3752677143

> <CNNaffinity>
5.4824533463

> <CNN_VS>
2.0573878288

> <CNNaffinity_variance>
0.2597295344

$$$$
[H]Oc1c([H])c(C([H])([H])C([H])([H])[H])c(-c2c([H])c([H])c3c(-c4nc5c(n4[H])C([H])([H])C([H])([H])N(C4([H])C([H])([H])C([H])([H])N(C([H])([H])[H])C([H])([H])C4([H])[H])C5([H])[H])nn([H])c3c2[H])c([H])c1F


 38 43  0  0  0  0  0  0  0  0999 V2000
   31.0497  -20.9324   35.5998 C   0  0  0  0  0  0  0  0  0  0  0  0
   32.2682  -21.6260   35.5841 C   0  0  0  0  0  0  0  0  0  0  0  0
   33.4630  -21.0050   35.2907 C   0  0  0  0  0  0  0  0  0  0  0  0
   33.5017  -19.6556   34.9953 C   0  0  0  0  0  0  0  0  0  0  0  0
   34.5018  -18.7738   34.6933 C   0  0  0  0  0  0  0  0  0  0  0  0
   33.8833  -17.5664   34.5270 N   0  0  0  0  0  0  0  0  0  0  0  0
   32.5928  -17.6583   34.7061 N   0  0  0  0  0  0  0  0  0  0  0  0
   32.2970  -18.9398   35.0021 C   0  0  0  0  0  0  0  0  0  0  0  0
   31.1106  -19.5966   35.3026 C   0  0  0  0  0  0  0  0  0  0  0  0
   31.9141  -16.8804   34.6311 H   0  0  0  0  0  0  0  0  0  0  0  0
   35.9215  -18.9471   34.6027 C   0  0  0  0  0  0  0  0  0  0  0  0
   36.6223  -19.8345   35.3851 N   0  0  0  0  0  0  0  0  0  0  0  0
   37.9041  -19.8337   35.0589 C   0  0  0  0  0  0  0  0  0  0  0  0
   39.1423  -20.5427   35.4937 C   0  0  0  0  0  0  0  0  0  0  0  0
   40.2916  -19.7212   35.4892 N   0  0  0  0  0  0  0  0  0  0  0  0
   40.5131  -18.9373   34.3353 C   0  0  0  0  0  0  0  0  0  0  0  0
   39.3508  -18.6792   33.4440 C   0  0  0  0  0  0  0  0  0  0  0  0
   38.0203  -18.9205   34.0442 C   0  0  0  0  0  0  0  0  0  0  0  0
   36.7883  -18.3863   33.7786 N   0  0  0  0  0  0  0  0  0  0  0  0
   36.7041  -17.6709   33.0426 H   0  0  0  0  0  0  0  0  0  0  0  0
   40.6599  -19.0708   36.6905 C   0  0  0  0  0  0  0  0  0  0  0  0
   41.8206  -18.1335   36.4403 C   0  0  0  0  0  0  0  0  0  0  0  0
   43.1130  -18.7454   36.9240 C   0  0  0  0  0  0  0  0  0  0  0  0
   43.1725  -18.9351   38.3436 N   0  0  0  0  0  0  0  0  0  0  0  0
   43.9441  -20.1291   38.6172 C   0  0  0  0  0  0  0  0  0  0  0  0
   41.8236  -19.1857   38.8343 C   0  0  0  0  0  0  0  0  0  0  0  0
   41.1106  -20.0315   37.7754 C   0  0  0  0  0  0  0  0  0  0  0  0
   29.5856  -22.9131   35.5504 C   0  0  0  0  0  0  0  0  0  0  0  0
   28.3881  -23.5420   35.9530 C   0  0  0  0  0  0  0  0  0  0  0  0
   27.4900  -22.9503   36.7935 C   0  0  0  0  0  0  0  0  0  0  0  0
   26.3052  -23.5377   37.2087 O   0  0  0  0  0  0  0  0  0  0  0  0
   27.7986  -21.6797   37.2507 C   0  0  0  0  0  0  0  0  0  0  0  0
   26.8967  -21.0839   38.1013 F   0  0  0  0  0  0  0  0  0  0  0  0
   28.9528  -21.0429   36.8764 C   0  0  0  0  0  0  0  0  0  0  0  0
   29.8716  -21.6730   36.0038 C   0  0  0  0  0  0  0  0  0  0  0  0
   25.6768  -23.0501   37.8380 H   0  0  0  0  0  0  0  0  0  0  0  0
   29.9164  -25.1003   34.5480 C   0  0  0  0  0  0  0  0  0  0  0  0
   30.4830  -23.6930   34.6835 C   0  0  0  0  0  0  0  0  0  0  0  0
 37 38  1  0  0  0
 38 28  1  0  0  0
 28 29  2  0  0  0
 29 30  1  0  0  0
 30 31  1  0  0  0
 30 32  2  0  0  0
 32 33  1  0  0  0
 32 34  1  0  0  0
 34 35  2  0  0  0
 35  1  1  0  0  0
  1  2  2  0  0  0
  2  3  1  0  0  0
  3  4  2  0  0  0
  4  5  1  0  0  0
  5  6  2  0  0  0
  6  7  1  0  0  0
  7  8  1  0  0  0
  8  9  2  0  0  0
  5 11  1  0  0  0
 11 12  2  0  0  0
 12 13  1  0  0  0
 13 14  1  0  0  0
 14 15  1  0  0  0
 15 16  1  0  0  0
 16 17  1  0  0  0
 17 18  1  0  0  0
 18 19  1  0  0  0
 15 21  1  0  0  0
 21 22  1  0  0  0
 22 23  1  0  0  0
 23 24  1  0  0  0
 24 25  1  0  0  0
 24 26  1  0  0  0
 26 27  1  0  0  0
 35 28  1  0  0  0
  9  1  1  0  0  0
 19 11  1  0  0  0
 27 21  1  0  0  0
  8  4  1  0  0  0
 18 13  2  0  0  0
 31 36  1  0  0  0
  7 10  1  0  0  0
 19 20  1  0  0  0
M  END
> <minimizedAffinity>
-7.54617

> <CNNscore>
0.5451565981

> <CNNaffinity>
6.1609849930

> <CNN_VS>
3.3587017059

> <CNNaffinity_variance>
0.1256026328

$$$$
[H]Oc1c([H])c(C([H])([H])C([H])([H])[H])c(-c2c([H])c([H])c3c(-c4nc5c(n4[H])C([H])([H])C([H])([H])N(C4([H])C([H])([H])C([H])([H])N(C([H])([H])[H])C([H])([H])C4([H])[H])C5([H])[H])nn([H])c3c2[H])c([H])c1F


 38 43  0  0  0  0  0  0  0  0999 V2000
   34.5722  -19.3360   36.2206 C   0  0  0  0  0  0  0  0  0  0  0  0
   34.0316  -20.3767   36.9891 C   0  0  0  0  0  0  0  0  0  0  0  0
   32.7090  -20.7516   36.8912 C   0  0  0  0  0  0  0  0  0  0  0  0
   31.8558  -20.1029   36.0189 C   0  0  0  0  0  0  0  0  0  0  0  0
   30.5377  -20.2510   35.6873 C   0  0  0  0  0  0  0  0  0  0  0  0
   30.2951  -19.3039   34.7322 N   0  0  0  0  0  0  0  0  0  0  0  0
   31.3646  -18.6025   34.4676 N   0  0  0  0  0  0  0  0  0  0  0  0
   32.3709  -19.0576   35.2407 C   0  0  0  0  0  0  0  0  0  0  0  0
   33.7088  -18.7057   35.3640 C   0  0  0  0  0  0  0  0  0  0  0  0
   31.4271  -17.8285   33.7832 H   0  0  0  0  0  0  0  0  0  0  0  0
   29.5499  -21.1904   36.1296 C   0  0  0  0  0  0  0  0  0  0  0  0
   28.8959  -21.0828   37.3343 N   0  0  0  0  0  0  0  0  0  0  0  0
   27.9996  -22.0464   37.4670 C   0  0  0  0  0  0  0  0  0  0  0  0
   26.9944  -22.4708   38.4841 C   0  0  0  0  0  0  0  0  0  0  0  0
   26.8740  -23.8733   38.6043 N   0  0  0  0  0  0  0  0  0  0  0  0
   26.7513  -24.6100   37.4055 C   0  0  0  0  0  0  0  0  0  0  0  0
   27.2019  -23.9582   36.1469 C   0  0  0  0  0  0  0  0  0  0  0  0
   28.0885  -22.7862   36.3172 C   0  0  0  0  0  0  0  0  0  0  0  0
   29.0486  -22.2422   35.5073 N   0  0  0  0  0  0  0  0  0  0  0  0
   29.2473  -22.6894   34.6011 H   0  0  0  0  0  0  0  0  0  0  0  0
   27.6398  -24.5330   39.5944 C   0  0  0  0  0  0  0  0  0  0  0  0
   26.8548  -25.6881   40.1757 C   0  0  0  0  0  0  0  0  0  0  0  0
   26.2872  -25.3206   41.5253 C   0  0  0  0  0  0  0  0  0  0  0  0
   27.2811  -25.0880   42.5316 N   0  0  0  0  0  0  0  0  0  0  0  0
   26.7988  -24.0571   43.4264 C   0  0  0  0  0  0  0  0  0  0  0  0
   28.4768  -24.5592   41.8883 C   0  0  0  0  0  0  0  0  0  0  0  0
   28.0084  -23.6349   40.7608 C   0  0  0  0  0  0  0  0  0  0  0  0
   36.5134  -17.8613   36.5760 C   0  0  0  0  0  0  0  0  0  0  0  0
   37.9140  -17.6990   36.6336 C   0  0  0  0  0  0  0  0  0  0  0  0
   38.7849  -18.7372   36.4704 C   0  0  0  0  0  0  0  0  0  0  0  0
   40.1646  -18.6140   36.5200 O   0  0  0  0  0  0  0  0  0  0  0  0
   38.2366  -19.9882   36.2402 C   0  0  0  0  0  0  0  0  0  0  0  0
   39.1128  -21.0363   36.0799 F   0  0  0  0  0  0  0  0  0  0  0  0
   36.8808  -20.1770   36.1775 C   0  0  0  0  0  0  0  0  0  0  0  0
   35.9940  -19.0877   36.3491 C   0  0  0  0  0  0  0  0  0  0  0  0
   40.7628  -19.4233   36.3943 H   0  0  0  0  0  0  0  0  0  0  0  0
   36.5622  -15.6330   37.5403 C   0  0  0  0  0  0  0  0  0  0  0  0
   35.6979  -16.6618   36.8231 C   0  0  0  0  0  0  0  0  0  0  0  0
 37 38  1  0  0  0
 38 28  1  0  0  0
 28 29  2  0  0  0
 29 30  1  0  0  0
 30 31  1  0  0  0
 30 32  2  0  0  0
 32 33  1  0  0  0
 32 34  1  0  0  0
 34 35  2  0  0  0
 35  1  1  0  0  0
  1  2  2  0  0  0
  2  3  1  0  0  0
  3  4  2  0  0  0
  4  5  1  0  0  0
  5  6  2  0  0  0
  6  7  1  0  0  0
  7  8  1  0  0  0
  8  9  2  0  0  0
  5 11  1  0  0  0
 11 12  2  0  0  0
 12 13  1  0  0  0
 13 14  1  0  0  0
 14 15  1  0  0  0
 15 16  1  0  0  0
 16 17  1  0  0  0
 17 18  1  0  0  0
 18 19  1  0  0  0
 15 21  1  0  0  0
 21 22  1  0  0  0
 22 23  1  0  0  0
 23 24  1  0  0  0
 24 25  1  0  0  0
 24 26  1  0  0  0
 26 27  1  0  0  0
 35 28  1  0  0  0
  9  1  1  0  0  0
 19 11  1  0  0  0
 27 21  1  0  0  0
  8  4  1  0  0  0
 18 13  2  0  0  0
 31 36  1  0  0  0
  7 10  1  0  0  0
 19 20  1  0  0  0
M  END
> <minimizedAffinity>
-6.53759

> <CNNscore>
0.4757826924

> <CNNaffinity>
5.6223945618

> <CNN_VS>
2.6750380993

> <CNNaffinity_variance>
0.3603146970

$$$$
[H]Oc1c([H])c(C([H])([H])C([H])([H])[H])c(-c2c([H])c([H])c3c(-c4nc5c(n4[H])C([H])([H])C([H])([H])N(C4([H])C([H])([H])C([H])([H])N(C([H])([H])[H])C([H])([H])C4([H])[H])C5([H])[H])nn([H])c3c2[H])c([H])c1F


 38 43  0  0  0  0  0  0  0  0999 V2000
   30.4160  -21.7833   35.5648 C   0  0  0  0  0  0  0  0  0  0  0  0
   31.7169  -22.2497   35.8018 C   0  0  0  0  0  0  0  0  0  0  0  0
   32.8278  -21.4572   35.6092 C   0  0  0  0  0  0  0  0  0  0  0  0
   32.6958  -20.1546   35.1671 C   0  0  0  0  0  0  0  0  0  0  0  0
   33.5765  -19.1415   34.9083 C   0  0  0  0  0  0  0  0  0  0  0  0
   32.8065  -18.0822   34.5171 N   0  0  0  0  0  0  0  0  0  0  0  0
   31.5356  -18.3834   34.5221 N   0  0  0  0  0  0  0  0  0  0  0  0
   31.4062  -19.6647   34.9207 C   0  0  0  0  0  0  0  0  0  0  0  0
   30.3082  -20.4903   35.1256 C   0  0  0  0  0  0  0  0  0  0  0  0
   30.7615  -17.7474   34.2621 H   0  0  0  0  0  0  0  0  0  0  0  0
   35.0018  -19.0694   35.0393 C   0  0  0  0  0  0  0  0  0  0  0  0
   35.8400  -18.7804   33.9883 N   0  0  0  0  0  0  0  0  0  0  0  0
   37.0970  -18.7226   34.3956 C   0  0  0  0  0  0  0  0  0  0  0  0
   38.4313  -18.4515   33.7863 C   0  0  0  0  0  0  0  0  0  0  0  0
   39.4672  -19.2472   34.3244 N   0  0  0  0  0  0  0  0  0  0  0  0
   39.5409  -19.3351   35.7321 C   0  0  0  0  0  0  0  0  0  0  0  0
   38.3197  -18.9924   36.5089 C   0  0  0  0  0  0  0  0  0  0  0  0
   37.0559  -18.9836   35.7399 C   0  0  0  0  0  0  0  0  0  0  0  0
   35.7567  -19.1941   36.1161 N   0  0  0  0  0  0  0  0  0  0  0  0
   35.5531  -19.4140   37.1014 H   0  0  0  0  0  0  0  0  0  0  0  0
   39.8000  -20.4550   33.6669 C   0  0  0  0  0  0  0  0  0  0  0  0
   39.3943  -21.6391   34.5166 C   0  0  0  0  0  0  0  0  0  0  0  0
   40.5957  -22.2321   35.2119 C   0  0  0  0  0  0  0  0  0  0  0  0
   41.5584  -22.8097   34.3207 N   0  0  0  0  0  0  0  0  0  0  0  0
   42.8795  -22.6145   34.8798 C   0  0  0  0  0  0  0  0  0  0  0  0
   41.5231  -22.0763   33.0622 C   0  0  0  0  0  0  0  0  0  0  0  0
   41.2879  -20.6031   33.4076 C   0  0  0  0  0  0  0  0  0  0  0  0
   28.3123  -22.3488   36.7153 C   0  0  0  0  0  0  0  0  0  0  0  0
   27.3155  -23.3023   37.0131 C   0  0  0  0  0  0  0  0  0  0  0  0
   27.3209  -24.5635   36.4911 C   0  0  0  0  0  0  0  0  0  0  0  0
   26.3595  -25.5245   36.7621 O   0  0  0  0  0  0  0  0  0  0  0  0
   28.3628  -24.8869   35.6377 C   0  0  0  0  0  0  0  0  0  0  0  0
   28.3672  -26.1560   35.1073 F   0  0  0  0  0  0  0  0  0  0  0  0
   29.3459  -23.9830   35.3307 C   0  0  0  0  0  0  0  0  0  0  0  0
   29.3231  -22.6801   35.8823 C   0  0  0  0  0  0  0  0  0  0  0  0
   26.4139  -26.4460   36.3418 H   0  0  0  0  0  0  0  0  0  0  0  0
   27.0483  -21.0866   38.3607 C   0  0  0  0  0  0  0  0  0  0  0  0
   28.1479  -21.0127   37.3092 C   0  0  0  0  0  0  0  0  0  0  0  0
 37 38  1  0  0  0
 38 28  1  0  0  0
 28 29  2  0  0  0
 29 30  1  0  0  0
 30 31  1  0  0  0
 30 32  2  0  0  0
 32 33  1  0  0  0
 32 34  1  0  0  0
 34 35  2  0  0  0
 35  1  1  0  0  0
  1  2  2  0  0  0
  2  3  1  0  0  0
  3  4  2  0  0  0
  4  5  1  0  0  0
  5  6  2  0  0  0
  6  7  1  0  0  0
  7  8  1  0  0  0
  8  9  2  0  0  0
  5 11  1  0  0  0
 11 12  2  0  0  0
 12 13  1  0  0  0
 13 14  1  0  0  0
 14 15  1  0  0  0
 15 16  1  0  0  0
 16 17  1  0  0  0
 17 18  1  0  0  0
 18 19  1  0  0  0
 15 21  1  0  0  0
 21 22  1  0  0  0
 22 23  1  0  0  0
 23 24  1  0  0  0
 24 25  1  0  0  0
 24 26  1  0  0  0
 26 27  1  0  0  0
 35 28  1  0  0  0
  9  1  1  0  0  0
 19 11  1  0  0  0
 27 21  1  0  0  0
  8  4  1  0  0  0
 18 13  2  0  0  0
 31 36  1  0  0  0
  7 10  1  0  0  0
 19 20  1  0  0  0
M  END
> <minimizedAffinity>
-7.33675

> <CNNscore>
0.4562626779

> <CNNaffinity>
6.1021022797

> <CNN_VS>
2.7841615677

> <CNNaffinity_variance>
0.0898221359

$$$$
[H]Oc1c([H])c(C([H])([H])C([H])([H])[H])c(-c2c([H])c([H])c3c(-c4nc5c(n4[H])C([H])([H])C([H])([H])N(C4([H])C([H])([H])C([H])([H])N(C([H])([H])[H])C([H])([H])C4([H])[H])C5([H])[H])nn([H])c3c2[H])c([H])c1F


 38 43  0  0  0  0  0  0  0  0999 V2000
   34.5480  -19.4019   35.5460 C   0  0  0  0  0  0  0  0  0  0  0  0
   34.1444  -20.5352   36.2662 C   0  0  0  0  0  0  0  0  0  0  0  0
   32.8191  -20.8906   36.3943 C   0  0  0  0  0  0  0  0  0  0  0  0
   31.8258  -20.1286   35.8090 C   0  0  0  0  0  0  0  0  0  0  0  0
   30.4640  -20.2278   35.7393 C   0  0  0  0  0  0  0  0  0  0  0  0
   30.0603  -19.1604   34.9872 N   0  0  0  0  0  0  0  0  0  0  0  0
   31.0740  -18.4321   34.6024 N   0  0  0  0  0  0  0  0  0  0  0  0
   32.2026  -18.9893   35.0854 C   0  0  0  0  0  0  0  0  0  0  0  0
   33.5475  -18.6602   34.9757 C   0  0  0  0  0  0  0  0  0  0  0  0
   31.0189  -17.5733   34.0274 H   0  0  0  0  0  0  0  0  0  0  0  0
   29.5594  -21.2159   36.2483 C   0  0  0  0  0  0  0  0  0  0  0  0
   29.2775  -21.3592   37.5865 N   0  0  0  0  0  0  0  0  0  0  0  0
   28.3724  -22.3053   37.7745 C   0  0  0  0  0  0  0  0  0  0  0  0
   27.6558  -22.9171   38.9308 C   0  0  0  0  0  0  0  0  0  0  0  0
   27.4511  -24.3081   38.7931 N   0  0  0  0  0  0  0  0  0  0  0  0
   26.9364  -24.7598   37.5578 C   0  0  0  0  0  0  0  0  0  0  0  0
   27.0753  -23.8590   36.3826 C   0  0  0  0  0  0  0  0  0  0  0  0
   28.0735  -22.7761   36.5231 C   0  0  0  0  0  0  0  0  0  0  0  0
   28.8149  -22.0920   35.5978 N   0  0  0  0  0  0  0  0  0  0  0  0
   28.7143  -22.3339   34.6019 H   0  0  0  0  0  0  0  0  0  0  0  0
   28.4007  -25.1887   39.3629 C   0  0  0  0  0  0  0  0  0  0  0  0
   29.1150  -24.5116   40.5117 C   0  0  0  0  0  0  0  0  0  0  0  0
   30.4890  -24.0523   40.0879 C   0  0  0  0  0  0  0  0  0  0  0  0
   31.3847  -25.1217   39.7576 N   0  0  0  0  0  0  0  0  0  0  0  0
   32.2622  -24.6767   38.6955 C   0  0  0  0  0  0  0  0  0  0  0  0
   30.6052  -26.2297   39.2210 C   0  0  0  0  0  0  0  0  0  0  0  0
   29.4767  -25.6208   38.3838 C   0  0  0  0  0  0  0  0  0  0  0  0
   36.6946  -18.4517   36.2935 C   0  0  0  0  0  0  0  0  0  0  0  0
   38.0689  -18.2353   36.0570 C   0  0  0  0  0  0  0  0  0  0  0  0
   38.7168  -18.7317   34.9629 C   0  0  0  0  0  0  0  0  0  0  0  0
   40.0637  -18.5384   34.6991 O   0  0  0  0  0  0  0  0  0  0  0  0
   37.9634  -19.4737   34.0683 C   0  0  0  0  0  0  0  0  0  0  0  0
   38.6158  -19.9784   32.9676 F   0  0  0  0  0  0  0  0  0  0  0  0
   36.6270  -19.6996   34.2701 C   0  0  0  0  0  0  0  0  0  0  0  0
   35.9729  -19.1763   35.4106 C   0  0  0  0  0  0  0  0  0  0  0  0
   40.4922  -18.9350   33.8697 H   0  0  0  0  0  0  0  0  0  0  0  0
   36.2181  -16.3810   37.4696 C   0  0  0  0  0  0  0  0  0  0  0  0
   36.1435  -17.9006   37.5416 C   0  0  0  0  0  0  0  0  0  0  0  0
 37 38  1  0  0  0
 38 28  1  0  0  0
 28 29  2  0  0  0
 29 30  1  0  0  0
 30 31  1  0  0  0
 30 32  2  0  0  0
 32 33  1  0  0  0
 32 34  1  0  0  0
 34 35  2  0  0  0
 35  1  1  0  0  0
  1  2  2  0  0  0
  2  3  1  0  0  0
  3  4  2  0  0  0
  4  5  1  0  0  0
  5  6  2  0  0  0
  6  7  1  0  0  0
  7  8  1  0  0  0
  8  9  2  0  0  0
  5 11  1  0  0  0
 11 12  2  0  0  0
 12 13  1  0  0  0
 13 14  1  0  0  0
 14 15  1  0  0  0
 15 16  1  0  0  0
 16 17  1  0  0  0
 17 18  1  0  0  0
 18 19  1  0  0  0
 15 21  1  0  0  0
 21 22  1  0  0  0
 22 23  1  0  0  0
 23 24  1  0  0  0
 24 25  1  0  0  0
 24 26  1  0  0  0
 26 27  1  0  0  0
 35 28  1  0  0  0
  9  1  1  0  0  0
 19 11  1  0  0  0
 27 21  1  0  0  0
  8  4  1  0  0  0
 18 13  2  0  0  0
 31 36  1  0  0  0
  7 10  1  0  0  0
 19 20  1  0  0  0
M  END
> <minimizedAffinity>
-6.59475

> <CNNscore>
0.4114712179

> <CNNaffinity>
5.7099599838

> <CNN_VS>
2.3494842052

> <CNNaffinity_variance>
0.4361287951

$$$$
[H]Oc1c([H])c(C([H])([H])C([H])([H])[H])c(-c2c([H])c([H])c3c(-c4nc5c(n4[H])C([H])([H])C([H])([H])N(C4([H])C([H])([H])C([H])([H])N(C([H])([H])[H])C([H])([H])C4([H])[H])C5([H])[H])nn([H])c3c2[H])c([H])c1F


 38 43  0  0  0  0  0  0  0  0999 V2000
   35.1419  -20.9087   39.3512 C   0  0  0  0  0  0  0  0  0  0  0  0
   36.3936  -21.5405   39.3596 C   0  0  0  0  0  0  0  0  0  0  0  0
   37.4430  -21.1018   38.5815 C   0  0  0  0  0  0  0  0  0  0  0  0
   37.2948  -20.0070   37.7513 C   0  0  0  0  0  0  0  0  0  0  0  0
   38.1279  -19.3362   36.8997 C   0  0  0  0  0  0  0  0  0  0  0  0
   37.3772  -18.3161   36.3862 N   0  0  0  0  0  0  0  0  0  0  0  0
   36.1618  -18.3252   36.8643 N   0  0  0  0  0  0  0  0  0  0  0  0
   36.0527  -19.3588   37.7229 C   0  0  0  0  0  0  0  0  0  0  0  0
   35.0164  -19.8270   38.5203 C   0  0  0  0  0  0  0  0  0  0  0  0
   35.4111  -17.6548   36.6229 H   0  0  0  0  0  0  0  0  0  0  0  0
   39.5119  -19.5291   36.5817 C   0  0  0  0  0  0  0  0  0  0  0  0
   40.4950  -19.6375   37.5369 N   0  0  0  0  0  0  0  0  0  0  0  0
   41.6700  -19.8655   36.9741 C   0  0  0  0  0  0  0  0  0  0  0  0
   43.0741  -20.0853   37.4273 C   0  0  0  0  0  0  0  0  0  0  0  0
   44.0375  -19.4958   36.5788 N   0  0  0  0  0  0  0  0  0  0  0  0
   43.8921  -19.7210   35.1920 C   0  0  0  0  0  0  0  0  0  0  0  0
   42.5538  -20.1428   34.6990 C   0  0  0  0  0  0  0  0  0  0  0  0
   41.4267  -19.9007   35.6263 C   0  0  0  0  0  0  0  0  0  0  0  0
   40.0919  -19.6915   35.4061 N   0  0  0  0  0  0  0  0  0  0  0  0
   39.7434  -19.6781   34.4371 H   0  0  0  0  0  0  0  0  0  0  0  0
   44.5079  -18.1986   36.8920 C   0  0  0  0  0  0  0  0  0  0  0  0
   43.3438  -17.2428   37.0329 C   0  0  0  0  0  0  0  0  0  0  0  0
   43.2054  -16.3864   35.7977 C   0  0  0  0  0  0  0  0  0  0  0  0
   44.3078  -15.4967   35.5790 N   0  0  0  0  0  0  0  0  0  0  0  0
   44.5061  -15.3504   34.1523 C   0  0  0  0  0  0  0  0  0  0  0  0
   45.5154  -16.1166   36.1087 C   0  0  0  0  0  0  0  0  0  0  0  0
   45.4128  -17.6173   35.8214 C   0  0  0  0  0  0  0  0  0  0  0  0
   33.9287  -20.8733   41.4951 C   0  0  0  0  0  0  0  0  0  0  0  0
   32.9710  -21.4561   42.3523 C   0  0  0  0  0  0  0  0  0  0  0  0
   32.2356  -22.5512   42.0015 C   0  0  0  0  0  0  0  0  0  0  0  0
   31.2883  -23.1493   42.8175 O   0  0  0  0  0  0  0  0  0  0  0  0
   32.4649  -23.0869   40.7449 C   0  0  0  0  0  0  0  0  0  0  0  0
   31.7214  -24.1878   40.3881 F   0  0  0  0  0  0  0  0  0  0  0  0
   33.3889  -22.5441   39.8909 C   0  0  0  0  0  0  0  0  0  0  0  0
   34.1419  -21.4085   40.2730 C   0  0  0  0  0  0  0  0  0  0  0  0
   30.7691  -23.9612   42.5012 H   0  0  0  0  0  0  0  0  0  0  0  0
   35.7383  -20.0919   42.9138 C   0  0  0  0  0  0  0  0  0  0  0  0
   34.6077  -19.6642   41.9870 C   0  0  0  0  0  0  0  0  0  0  0  0
 37 38  1  0  0  0
 38 28  1  0  0  0
 28 29  2  0  0  0
 29 30  1  0  0  0
 30 31  1  0  0  0
 30 32  2  0  0  0
 32 33  1  0  0  0
 32 34  1  0  0  0
 34 35  2  0  0  0
 35  1  1  0  0  0
  1  2  2  0  0  0
  2  3  1  0  0  0
  3  4  2  0  0  0
  4  5  1  0  0  0
  5  6  2  0  0  0
  6  7  1  0  0  0
  7  8  1  0  0  0
  8  9  2  0  0  0
  5 11  1  0  0  0
 11 12  2  0  0  0
 12 13  1  0  0  0
 13 14  1  0  0  0
 14 15  1  0  0  0
 15 16  1  0  0  0
 16 17  1  0  0  0
 17 18  1  0  0  0
 18 19  1  0  0  0
 15 21  1  0  0  0
 21 22  1  0  0  0
 22 23  1  0  0  0
 23 24  1  0  0  0
 24 25  1  0  0  0
 24 26  1  0  0  0
 26 27  1  0  0  0
 35 28  1  0  0  0
  9  1  1  0  0  0
 19 11  1  0  0  0
 27 21  1  0  0  0
  8  4  1  0  0  0
 18 13  2  0  0  0
 31 36  1  0  0  0
  7 10  1  0  0  0
 19 20  1  0  0  0
M  END
> <minimizedAffinity>
-5.65012

> <CNNscore>
0.3362014592

> <CNNaffinity>
5.7690024376

> <CNN_VS>
1.9395470619

> <CNNaffinity_variance>
0.0845753625

$$$$
[H]Oc1c([H])c(C([H])([H])C([H])([H])[H])c(-c2c([H])c([H])c3c(-c4nc5c(n4[H])C([H])([H])C([H])([H])N(C4([H])C([H])([H])C([H])([H])N(C([H])([H])[H])C([H])([H])C4([H])[H])C5([H])[H])nn([H])c3c2[H])c([H])c1F


 38 43  0  0  0  0  0  0  0  0999 V2000
   30.7429  -21.3630   35.7358 C   0  0  0  0  0  0  0  0  0  0  0  0
   31.9967  -21.8340   36.1506 C   0  0  0  0  0  0  0  0  0  0  0  0
   33.1581  -21.1272   35.9251 C   0  0  0  0  0  0  0  0  0  0  0  0
   33.1266  -19.9108   35.2701 C   0  0  0  0  0  0  0  0  0  0  0  0
   34.0751  -18.9886   34.9252 C   0  0  0  0  0  0  0  0  0  0  0  0
   33.3919  -17.9790   34.3070 N   0  0  0  0  0  0  0  0  0  0  0  0
   32.1104  -18.2262   34.2560 N   0  0  0  0  0  0  0  0  0  0  0  0
   31.8859  -19.4187   34.8432 C   0  0  0  0  0  0  0  0  0  0  0  0
   30.7347  -20.1565   35.0872 C   0  0  0  0  0  0  0  0  0  0  0  0
   31.3916  -17.6121   33.8346 H   0  0  0  0  0  0  0  0  0  0  0  0
   35.4884  -18.9509   35.1594 C   0  0  0  0  0  0  0  0  0  0  0  0
   36.4176  -19.3094   34.2115 N   0  0  0  0  0  0  0  0  0  0  0  0
   37.6454  -19.1285   34.6690 C   0  0  0  0  0  0  0  0  0  0  0  0
   39.0371  -19.3032   34.1614 C   0  0  0  0  0  0  0  0  0  0  0  0
   39.9404  -19.7648   35.1446 N   0  0  0  0  0  0  0  0  0  0  0  0
   39.9160  -19.1077   36.3947 C   0  0  0  0  0  0  0  0  0  0  0  0
   38.6958  -18.3312   36.7414 C   0  0  0  0  0  0  0  0  0  0  0  0
   37.4914  -18.6442   35.9413 C   0  0  0  0  0  0  0  0  0  0  0  0
   36.1558  -18.5423   36.2236 N   0  0  0  0  0  0  0  0  0  0  0  0
   35.8678  -18.2005   37.1514 H   0  0  0  0  0  0  0  0  0  0  0  0
   40.1739  -21.1566   35.2450 C   0  0  0  0  0  0  0  0  0  0  0  0
   41.6159  -21.4167   35.6211 C   0  0  0  0  0  0  0  0  0  0  0  0
   42.4129  -21.8436   34.4123 C   0  0  0  0  0  0  0  0  0  0  0  0
   42.0074  -23.1037   33.8624 N   0  0  0  0  0  0  0  0  0  0  0  0
   42.1874  -23.0594   32.4265 C   0  0  0  0  0  0  0  0  0  0  0  0
   40.5803  -23.2755   34.1010 C   0  0  0  0  0  0  0  0  0  0  0  0
   39.9298  -21.8981   33.9436 C   0  0  0  0  0  0  0  0  0  0  0  0
   29.3685  -23.4056   35.6453 C   0  0  0  0  0  0  0  0  0  0  0  0
   28.1861  -24.0845   36.0094 C   0  0  0  0  0  0  0  0  0  0  0  0
   27.2347  -23.5296   36.8156 C   0  0  0  0  0  0  0  0  0  0  0  0
   26.0627  -24.1666   37.1925 O   0  0  0  0  0  0  0  0  0  0  0  0
   27.4719  -22.2454   37.2772 C   0  0  0  0  0  0  0  0  0  0  0  0
   26.5162  -21.6865   38.0933 F   0  0  0  0  0  0  0  0  0  0  0  0
   28.6098  -21.5604   36.9398 C   0  0  0  0  0  0  0  0  0  0  0  0
   29.5846  -22.1527   36.1024 C   0  0  0  0  0  0  0  0  0  0  0  0
   25.3924  -23.7047   37.7975 H   0  0  0  0  0  0  0  0  0  0  0  0
   29.6229  -25.3721   34.2432 C   0  0  0  0  0  0  0  0  0  0  0  0
   30.3283  -24.1485   34.8136 C   0  0  0  0  0  0  0  0  0  0  0  0
 37 38  1  0  0  0
 38 28  1  0  0  0
 28 29  2  0  0  0
 29 30  1  0  0  0
 30 31  1  0  0  0
 30 32  2  0  0  0
 32 33  1  0  0  0
 32 34  1  0  0  0
 34 35  2  0  0  0
 35  1  1  0  0  0
  1  2  2  0  0  0
  2  3  1  0  0  0
  3  4  2  0  0  0
  4  5  1  0  0  0
  5  6  2  0  0  0
  6  7  1  0  0  0
  7  8  1  0  0  0
  8  9  2  0  0  0
  5 11  1  0  0  0
 11 12  2  0  0  0
 12 13  1  0  0  0
 13 14  1  0  0  0
 14 15  1  0  0  0
 15 16  1  0  0  0
 16 17  1  0  0  0
 17 18  1  0  0  0
 18 19  1  0  0  0
 15 21  1  0  0  0
 21 22  1  0  0  0
 22 23  1  0  0  0
 23 24  1  0  0  0
 24 25  1  0  0  0
 24 26  1  0  0  0
 26 27  1  0  0  0
 35 28  1  0  0  0
  9  1  1  0  0  0
 19 11  1  0  0  0
 27 21  1  0  0  0
  8  4  1  0  0  0
 18 13  2  0  0  0
 31 36  1  0  0  0
  7 10  1  0  0  0
 19 20  1  0  0  0
M  END
> <minimizedAffinity>
-6.70028

> <CNNscore>
0.3273535073

> <CNNaffinity>
5.8915452957

> <CNN_VS>
1.9286180735

> <CNNaffinity_variance>
0.1496045887

$$$$
[H]Oc1c([H])c(C([H])([H])C([H])([H])[H])c(-c2c([H])c([H])c3c(-c4nc5c(n4[H])C([H])([H])C([H])([H])N(C4([H])C([H])([H])C([H])([H])N(C([H])([H])[H])C([H])([H])C4([H])[H])C5([H])[H])nn([H])c3c2[H])c([H])c1F


 38 43  0  0  0  0  0  0  0  0999 V2000
   34.5769  -21.3592   38.0219 C   0  0  0  0  0  0  0  0  0  0  0  0
   35.7815  -22.0449   37.8105 C   0  0  0  0  0  0  0  0  0  0  0  0
   36.9277  -21.4043   37.3922 C   0  0  0  0  0  0  0  0  0  0  0  0
   36.9287  -20.0418   37.1612 C   0  0  0  0  0  0  0  0  0  0  0  0
   37.8812  -19.1411   36.7730 C   0  0  0  0  0  0  0  0  0  0  0  0
   37.2478  -17.9302   36.7500 N   0  0  0  0  0  0  0  0  0  0  0  0
   35.9924  -18.0373   37.0940 N   0  0  0  0  0  0  0  0  0  0  0  0
   35.7366  -19.3333   37.3630 C   0  0  0  0  0  0  0  0  0  0  0  0
   34.5997  -20.0101   37.7855 C   0  0  0  0  0  0  0  0  0  0  0  0
   35.3109  -17.2602   37.1481 H   0  0  0  0  0  0  0  0  0  0  0  0
   39.2761  -19.3025   36.4864 C   0  0  0  0  0  0  0  0  0  0  0  0
   40.2471  -19.3174   37.4598 N   0  0  0  0  0  0  0  0  0  0  0  0
   41.4382  -19.5362   36.9281 C   0  0  0  0  0  0  0  0  0  0  0  0
   42.8418  -19.6772   37.4132 C   0  0  0  0  0  0  0  0  0  0  0  0
   43.7972  -19.1055   36.5437 N   0  0  0  0  0  0  0  0  0  0  0  0
   43.6819  -19.4192   35.1713 C   0  0  0  0  0  0  0  0  0  0  0  0
   42.3673  -19.9182   34.6866 C   0  0  0  0  0  0  0  0  0  0  0  0
   41.2178  -19.6616   35.5818 C   0  0  0  0  0  0  0  0  0  0  0  0
   39.8801  -19.5146   35.3310 N   0  0  0  0  0  0  0  0  0  0  0  0
   39.5468  -19.5723   34.3583 H   0  0  0  0  0  0  0  0  0  0  0  0
   44.2164  -17.7757   36.7837 C   0  0  0  0  0  0  0  0  0  0  0  0
   43.1197  -16.8069   36.3997 C   0  0  0  0  0  0  0  0  0  0  0  0
   43.4187  -16.1651   35.0666 C   0  0  0  0  0  0  0  0  0  0  0  0
   44.5811  -15.3262   35.0715 N   0  0  0  0  0  0  0  0  0  0  0  0
   45.2206  -15.4171   33.7759 C   0  0  0  0  0  0  0  0  0  0  0  0
   45.5286  -15.8533   36.0449 C   0  0  0  0  0  0  0  0  0  0  0  0
   45.4394  -17.3805   35.9768 C   0  0  0  0  0  0  0  0  0  0  0  0
   32.4277  -22.5382   37.7767 C   0  0  0  0  0  0  0  0  0  0  0  0
   31.3546  -23.2330   38.3744 C   0  0  0  0  0  0  0  0  0  0  0  0
   31.3095  -23.5144   39.7093 C   0  0  0  0  0  0  0  0  0  0  0  0
   30.2723  -24.1933   40.3293 O   0  0  0  0  0  0  0  0  0  0  0  0
   32.3778  -23.0852   40.4793 C   0  0  0  0  0  0  0  0  0  0  0  0
   32.3360  -23.3719   41.8239 F   0  0  0  0  0  0  0  0  0  0  0  0
   33.4333  -22.4072   39.9279 C   0  0  0  0  0  0  0  0  0  0  0  0
   33.4617  -22.1247   38.5416 C   0  0  0  0  0  0  0  0  0  0  0  0
   30.2949  -24.3768   41.3265 H   0  0  0  0  0  0  0  0  0  0  0  0
   32.1118  -23.7091   35.6726 C   0  0  0  0  0  0  0  0  0  0  0  0
   32.3652  -22.3531   36.3183 C   0  0  0  0  0  0  0  0  0  0  0  0
 37 38  1  0  0  0
 38 28  1  0  0  0
 28 29  2  0  0  0
 29 30  1  0  0  0
 30 31  1  0  0  0
 30 32  2  0  0  0
 32 33  1  0  0  0
 32 34  1  0  0  0
 34 35  2  0  0  0
 35  1  1  0  0  0
  1  2  2  0  0  0
  2  3  1  0  0  0
  3  4  2  0  0  0
  4  5  1  0  0  0
  5  6  2  0  0  0
  6  7  1  0  0  0
  7  8  1  0  0  0
  8  9  2  0  0  0
  5 11  1  0  0  0
 11 12  2  0  0  0
 12 13  1  0  0  0
 13 14  1  0  0  0
 14 15  1  0  0  0
 15 16  1  0  0  0
 16 17  1  0  0  0
 17 18  1  0  0  0
 18 19  1  0  0  0
 15 21  1  0  0  0
 21 22  1  0  0  0
 22 23  1  0  0  0
 23 24  1  0  0  0
 24 25  1  0  0  0
 24 26  1  0  0  0
 26 27  1  0  0  0
 35 28  1  0  0  0
  9  1  1  0  0  0
 19 11  1  0  0  0
 27 21  1  0  0  0
  8  4  1  0  0  0
 18 13  2  0  0  0
 31 36  1  0  0  0
  7 10  1  0  0  0
 19 20  1  0  0  0
M  END
> <minimizedAffinity>
-5.43666

> <CNNscore>
0.3009041548

> <CNNaffinity>
5.6112790108

> <CNN_VS>
1.6884571314

> <CNNaffinity_variance>
0.0397332832

$$$$
[H]Oc1c([H])c(C([H])([H])C([H])([H])[H])c(-c2c([H])c([H])c3c(-c4nc5c(n4[H])C([H])([H])C([H])([H])N(C4([H])C([H])([H])C([H])([H])N(C([H])([H])[H])C([H])([H])C4([H])[H])C5([H])[H])nn([H])c3c2[H])c([H])c1F


 38 43  0  0  0  0  0  0  0  0999 V2000
   35.2031  -20.7875   39.4107 C   0  0  0  0  0  0  0  0  0  0  0  0
   36.5321  -21.2065   39.5669 C   0  0  0  0  0  0  0  0  0  0  0  0
   37.5395  -20.7819   38.7278 C   0  0  0  0  0  0  0  0  0  0  0  0
   37.2698  -19.9156   37.6855 C   0  0  0  0  0  0  0  0  0  0  0  0
   38.0327  -19.3145   36.7233 C   0  0  0  0  0  0  0  0  0  0  0  0
   37.1646  -18.5472   35.9984 N   0  0  0  0  0  0  0  0  0  0  0  0
   35.9436  -18.6430   36.4523 N   0  0  0  0  0  0  0  0  0  0  0  0
   35.9489  -19.4834   37.5064 C   0  0  0  0  0  0  0  0  0  0  0  0
   34.9578  -19.9305   38.3707 C   0  0  0  0  0  0  0  0  0  0  0  0
   35.1144  -18.1581   36.0667 H   0  0  0  0  0  0  0  0  0  0  0  0
   39.4427  -19.3557   36.4703 C   0  0  0  0  0  0  0  0  0  0  0  0
   40.2280  -20.4455   36.7642 N   0  0  0  0  0  0  0  0  0  0  0  0
   41.4764  -20.2392   36.3792 C   0  0  0  0  0  0  0  0  0  0  0  0
   42.7630  -20.9939   36.3939 C   0  0  0  0  0  0  0  0  0  0  0  0
   43.8892  -20.1802   36.6499 N   0  0  0  0  0  0  0  0  0  0  0  0
   43.9926  -18.9805   35.9118 C   0  0  0  0  0  0  0  0  0  0  0  0
   42.7521  -18.4443   35.2907 C   0  0  0  0  0  0  0  0  0  0  0  0
   41.4842  -18.9848   35.8283 C   0  0  0  0  0  0  0  0  0  0  0  0
   40.2223  -18.4584   35.8942 N   0  0  0  0  0  0  0  0  0  0  0  0
   40.0590  -17.5097   35.5283 H   0  0  0  0  0  0  0  0  0  0  0  0
   44.3455  -20.0614   37.9838 C   0  0  0  0  0  0  0  0  0  0  0  0
   44.0213  -21.3195   38.7589 C   0  0  0  0  0  0  0  0  0  0  0  0
   42.8186  -21.1038   39.6452 C   0  0  0  0  0  0  0  0  0  0  0  0
   43.0292  -20.1456   40.6902 N   0  0  0  0  0  0  0  0  0  0  0  0
   41.7854  -19.4448   40.9306 C   0  0  0  0  0  0  0  0  0  0  0  0
   43.9865  -19.1520   40.2216 C   0  0  0  0  0  0  0  0  0  0  0  0
   43.6966  -18.9147   38.7368 C   0  0  0  0  0  0  0  0  0  0  0  0
   34.0414  -20.5920   41.5744 C   0  0  0  0  0  0  0  0  0  0  0  0
   33.1296  -21.1259   42.5098 C   0  0  0  0  0  0  0  0  0  0  0  0
   32.4319  -22.2776   42.2861 C   0  0  0  0  0  0  0  0  0  0  0  0
   31.5300  -22.8303   43.1818 O   0  0  0  0  0  0  0  0  0  0  0  0
   32.6528  -22.9230   41.0807 C   0  0  0  0  0  0  0  0  0  0  0  0
   31.9471  -24.0813   40.8518 F   0  0  0  0  0  0  0  0  0  0  0  0
   33.5328  -22.4299   40.1532 C   0  0  0  0  0  0  0  0  0  0  0  0
   34.2471  -21.2343   40.4037 C   0  0  0  0  0  0  0  0  0  0  0  0
   31.0373  -23.6885   42.9593 H   0  0  0  0  0  0  0  0  0  0  0  0
   34.1174  -18.8507   43.2655 C   0  0  0  0  0  0  0  0  0  0  0  0
   34.6814  -19.3155   41.9292 C   0  0  0  0  0  0  0  0  0  0  0  0
 37 38  1  0  0  0
 38 28  1  0  0  0
 28 29  2  0  0  0
 29 30  1  0  0  0
 30 31  1  0  0  0
 30 32  2  0  0  0
 32 33  1  0  0  0
 32 34  1  0  0  0
 34 35  2  0  0  0
 35  1  1  0  0  0
  1  2  2  0  0  0
  2  3  1  0  0  0
  3  4  2  0  0  0
  4  5  1  0  0  0
  5  6  2  0  0  0
  6  7  1  0  0  0
  7  8  1  0  0  0
  8  9  2  0  0  0
  5 11  1  0  0  0
 11 12  2  0  0  0
 12 13  1  0  0  0
 13 14  1  0  0  0
 14 15  1  0  0  0
 15 16  1  0  0  0
 16 17  1  0  0  0
 17 18  1  0  0  0
 18 19  1  0  0  0
 15 21  1  0  0  0
 21 22  1  0  0  0
 22 23  1  0  0  0
 23 24  1  0  0  0
 24 25  1  0  0  0
 24 26  1  0  0  0
 26 27  1  0  0  0
 35 28  1  0  0  0
  9  1  1  0  0  0
 19 11  1  0  0  0
 27 21  1  0  0  0
  8  4  1  0  0  0
 18 13  2  0  0  0
 31 36  1  0  0  0
  7 10  1  0  0  0
 19 20  1  0  0  0
M  END
> <minimizedAffinity>
-5.70241

> <CNNscore>
0.2631163597

> <CNNaffinity>
5.6712045670

> <CNN_VS>
1.4921866655

> <CNNaffinity_variance>
0.1147707850

$$$$
[H]Oc1c([H])c(C([H])([H])C([H])([H])[H])c(-c2c([H])c([H])c3c(-c4nc5c(n4[H])C([H])([H])C([H])([H])N(C4([H])C([H])([H])C([H])([H])N(C([H])([H])[H])C([H])([H])C4([H])[H])C5([H])[H])nn([H])c3c2[H])c([H])c1F


 38 43  0  0  0  0  0  0  0  0999 V2000
   41.4903  -19.2395   37.0690 C   0  0  0  0  0  0  0  0  0  0  0  0
   40.1316  -19.2271   36.7229 C   0  0  0  0  0  0  0  0  0  0  0  0
   39.1965  -19.9875   37.3911 C   0  0  0  0  0  0  0  0  0  0  0  0
   39.5721  -20.8030   38.4415 C   0  0  0  0  0  0  0  0  0  0  0  0
   38.8979  -21.6358   39.2906 C   0  0  0  0  0  0  0  0  0  0  0  0
   39.8479  -22.1424   40.1326 N   0  0  0  0  0  0  0  0  0  0  0  0
   41.0360  -21.6774   39.8528 N   0  0  0  0  0  0  0  0  0  0  0  0
   40.9249  -20.8353   38.8060 C   0  0  0  0  0  0  0  0  0  0  0  0
   41.8411  -20.0559   38.1116 C   0  0  0  0  0  0  0  0  0  0  0  0
   41.9122  -21.9170   40.3489 H   0  0  0  0  0  0  0  0  0  0  0  0
   37.5027  -21.9418   39.4071 C   0  0  0  0  0  0  0  0  0  0  0  0
   36.8470  -22.7984   38.5544 N   0  0  0  0  0  0  0  0  0  0  0  0
   35.5842  -22.9450   38.9196 C   0  0  0  0  0  0  0  0  0  0  0  0
   34.3928  -23.7094   38.4491 C   0  0  0  0  0  0  0  0  0  0  0  0
   33.1799  -22.9971   38.5811 N   0  0  0  0  0  0  0  0  0  0  0  0
   32.9415  -22.3638   39.8208 C   0  0  0  0  0  0  0  0  0  0  0  0
   34.1140  -22.1017   40.6975 C   0  0  0  0  0  0  0  0  0  0  0  0
   35.4340  -22.1595   40.0320 C   0  0  0  0  0  0  0  0  0  0  0  0
   36.6269  -21.5508   40.3153 N   0  0  0  0  0  0  0  0  0  0  0  0
   36.6812  -20.9137   41.1226 H   0  0  0  0  0  0  0  0  0  0  0  0
   32.7090  -22.2567   37.4712 C   0  0  0  0  0  0  0  0  0  0  0  0
   31.1964  -22.2396   37.4607 C   0  0  0  0  0  0  0  0  0  0  0  0
   30.6598  -23.2166   36.4429 C   0  0  0  0  0  0  0  0  0  0  0  0
   30.9796  -22.8797   35.0868 N   0  0  0  0  0  0  0  0  0  0  0  0
   31.1640  -24.1053   34.3385 C   0  0  0  0  0  0  0  0  0  0  0  0
   32.2592  -22.1828   35.0721 C   0  0  0  0  0  0  0  0  0  0  0  0
   33.1405  -22.8399   36.1382 C   0  0  0  0  0  0  0  0  0  0  0  0
   42.7458  -18.5376   35.0689 C   0  0  0  0  0  0  0  0  0  0  0  0
   43.6445  -17.6357   34.4602 C   0  0  0  0  0  0  0  0  0  0  0  0
   44.1556  -16.5504   35.1112 C   0  0  0  0  0  0  0  0  0  0  0  0
   45.0398  -15.6455   34.5451 O   0  0  0  0  0  0  0  0  0  0  0  0
   43.7543  -16.3568   36.4227 C   0  0  0  0  0  0  0  0  0  0  0  0
   44.2650  -15.2610   37.0788 F   0  0  0  0  0  0  0  0  0  0  0  0
   42.8841  -17.2158   37.0412 C   0  0  0  0  0  0  0  0  0  0  0  0
   42.3651  -18.3359   36.3494 C   0  0  0  0  0  0  0  0  0  0  0  0
   45.3846  -14.8542   35.0777 H   0  0  0  0  0  0  0  0  0  0  0  0
   41.3194  -19.0366   33.1678 C   0  0  0  0  0  0  0  0  0  0  0  0
   42.2364  -19.6323   34.2281 C   0  0  0  0  0  0  0  0  0  0  0  0
 37 38  1  0  0  0
 38 28  1  0  0  0
 28 29  2  0  0  0
 29 30  1  0  0  0
 30 31  1  0  0  0
 30 32  2  0  0  0
 32 33  1  0  0  0
 32 34  1  0  0  0
 34 35  2  0  0  0
 35  1  1  0  0  0
  1  2  2  0  0  0
  2  3  1  0  0  0
  3  4  2  0  0  0
  4  5  1  0  0  0
  5  6  2  0  0  0
  6  7  1  0  0  0
  7  8  1  0  0  0
  8  9  2  0  0  0
  5 11  1  0  0  0
 11 12  2  0  0  0
 12 13  1  0  0  0
 13 14  1  0  0  0
 14 15  1  0  0  0
 15 16  1  0  0  0
 16 17  1  0  0  0
 17 18  1  0  0  0
 18 19  1  0  0  0
 15 21  1  0  0  0
 21 22  1  0  0  0
 22 23  1  0  0  0
 23 24  1  0  0  0
 24 25  1  0  0  0
 24 26  1  0  0  0
 26 27  1  0  0  0
 35 28  1  0  0  0
  9  1  1  0  0  0
 19 11  1  0  0  0
 27 21  1  0  0  0
  8  4  1  0  0  0
 18 13  2  0  0  0
 31 36  1  0  0  0
  7 10  1  0  0  0
 19 20  1  0  0  0
M  END
> <minimizedAffinity>
-5.54776

> <CNNscore>
0.2511326373

> <CNNaffinity>
5.3839936256

> <CNN_VS>
1.3520965576

> <CNNaffinity_variance>
0.0837768540

$$$$
[H]c1nc(N([H])c2c([H])c(N3C([H])([H])C([H])([H])OC([H])([H])C3([H])[H])c([H])c(N3C([H])([H])C([H])([H])OC([H])([H])C3([H])[H])c2[H])nc(N(C([H])([H])[H])S(=O)(=O)C([H])([H])[H])c1[H]


 32 35  0  0  0  0  0  0  0  0999 V2000
   34.0695  -17.1641   35.6212 C   0  0  0  0  0  0  0  0  0  0  0  0
   35.3638  -17.5334   35.4216 C   0  0  0  0  0  0  0  0  0  0  0  0
   35.7138  -18.8904   35.4635 C   0  0  0  0  0  0  0  0  0  0  0  0
   34.7445  -19.8338   35.7072 C   0  0  0  0  0  0  0  0  0  0  0  0
   33.4228  -19.5059   35.9159 C   0  0  0  0  0  0  0  0  0  0  0  0
   33.1197  -18.1677   35.8666 C   0  0  0  0  0  0  0  0  0  0  0  0
   32.4137  -20.4810   36.1711 N   0  0  0  0  0  0  0  0  0  0  0  0
   31.1744  -20.5341   35.4358 C   0  0  0  0  0  0  0  0  0  0  0  0
   30.7730  -21.9996   35.3650 C   0  0  0  0  0  0  0  0  0  0  0  0
   30.5504  -22.5703   36.5848 O   0  0  0  0  0  0  0  0  0  0  0  0
   31.3646  -22.1755   37.6048 C   0  0  0  0  0  0  0  0  0  0  0  0
   32.6184  -21.4649   37.2045 C   0  0  0  0  0  0  0  0  0  0  0  0
   37.0741  -19.2224   35.2483 N   0  0  0  0  0  0  0  0  0  0  0  0
   37.9051  -19.4184   36.4297 C   0  0  0  0  0  0  0  0  0  0  0  0
   39.3565  -19.5758   36.1270 C   0  0  0  0  0  0  0  0  0  0  0  0
   39.7384  -19.2021   34.8617 O   0  0  0  0  0  0  0  0  0  0  0  0
   39.0011  -19.8667   33.8859 C   0  0  0  0  0  0  0  0  0  0  0  0
   37.5983  -19.3570   33.9080 C   0  0  0  0  0  0  0  0  0  0  0  0
   33.6063  -15.8295   35.5672 N   0  0  0  0  0  0  0  0  0  0  0  0
   32.6561  -15.7174   35.0686 H   0  0  0  0  0  0  0  0  0  0  0  0
   34.0621  -12.5489   37.0017 C   0  0  0  0  0  0  0  0  0  0  0  0
   35.4315  -12.5058   37.1376 C   0  0  0  0  0  0  0  0  0  0  0  0
   36.2153  -13.5950   36.7418 C   0  0  0  0  0  0  0  0  0  0  0  0
   35.5705  -14.6370   36.2432 N   0  0  0  0  0  0  0  0  0  0  0  0
   34.2644  -14.7244   36.0938 C   0  0  0  0  0  0  0  0  0  0  0  0
   33.5037  -13.6577   36.4820 N   0  0  0  0  0  0  0  0  0  0  0  0
   33.8720  -10.1450   37.5725 C   0  0  0  0  0  0  0  0  0  0  0  0
   33.2537  -11.4538   37.4019 N   0  0  0  0  0  0  0  0  0  0  0  0
   31.5816  -11.6152   37.6909 S   0  0  0  0  0  0  0  0  0  0  0  0
   30.8381   -9.9927   37.8115 C   0  0  0  0  0  0  0  0  0  0  0  0
   30.9267  -12.3852   36.5669 O   0  0  0  0  0  0  0  0  0  0  0  0
   31.3182  -12.3699   38.9456 O   0  0  0  0  0  0  0  0  0  0  0  0
 27 28  1  0  0  0
 28 21  1  0  0  0
 21 22  2  0  0  0
 22 23  1  0  0  0
 23 24  2  0  0  0
 24 25  1  0  0  0
 25 19  1  0  0  0
 19  1  1  0  0  0
  1  2  2  0  0  0
  2  3  1  0  0  0
  3  4  2  0  0  0
  4  5  1  0  0  0
  5  6  2  0  0  0
  5  7  1  0  0  0
  7  8  1  0  0  0
  8  9  1  0  0  0
  9 10  1  0  0  0
 10 11  1  0  0  0
 11 12  1  0  0  0
  3 13  1  0  0  0
 13 14  1  0  0  0
 14 15  1  0  0  0
 15 16  1  0  0  0
 16 17  1  0  0  0
 17 18  1  0  0  0
 25 26  2  0  0  0
 28 29  1  0  0  0
 29 30  1  0  0  0
 29 31  2  0  0  0
 29 32  2  0  0  0
 26 21  1  0  0  0
  6  1  1  0  0  0
 12  7  1  0  0  0
 18 13  1  0  0  0
 19 20  1  0  0  0
M  END
> <minimizedAffinity>
-6.87587

> <CNNscore>
0.5358338356

> <CNNaffinity>
6.2373151779

> <CNN_VS>
3.3421645164

> <CNNaffinity_variance>
0.1040817648

$$$$
[H]c1nc(N([H])c2c([H])c(N3C([H])([H])C([H])([H])OC([H])([H])C3([H])[H])c([H])c(N3C([H])([H])C([H])([H])OC([H])([H])C3([H])[H])c2[H])nc(N(C([H])([H])[H])S(=O)(=O)C([H])([H])[H])c1[H]


 32 35  0  0  0  0  0  0  0  0999 V2000
   33.6405  -17.5825   35.2431 C   0  0  0  0  0  0  0  0  0  0  0  0
   34.8454  -18.1990   35.1032 C   0  0  0  0  0  0  0  0  0  0  0  0
   36.0215  -17.5081   35.4273 C   0  0  0  0  0  0  0  0  0  0  0  0
   35.9444  -16.2135   35.8822 C   0  0  0  0  0  0  0  0  0  0  0  0
   34.7472  -15.5498   36.0382 C   0  0  0  0  0  0  0  0  0  0  0  0
   33.6184  -16.2597   35.7111 C   0  0  0  0  0  0  0  0  0  0  0  0
   34.6621  -14.2058   36.5080 N   0  0  0  0  0  0  0  0  0  0  0  0
   35.7989  -13.3198   36.5523 C   0  0  0  0  0  0  0  0  0  0  0  0
   35.2665  -11.9163   36.3061 C   0  0  0  0  0  0  0  0  0  0  0  0
   34.3778  -11.4899   37.2503 O   0  0  0  0  0  0  0  0  0  0  0  0
   33.5203  -12.4238   37.7521 C   0  0  0  0  0  0  0  0  0  0  0  0
   33.3962  -13.6892   36.9646 C   0  0  0  0  0  0  0  0  0  0  0  0
   37.2499  -18.1949   35.2651 N   0  0  0  0  0  0  0  0  0  0  0  0
   37.9081  -18.6735   36.4744 C   0  0  0  0  0  0  0  0  0  0  0  0
   39.2781  -19.2139   36.2420 C   0  0  0  0  0  0  0  0  0  0  0  0
   39.8377  -18.8988   35.0279 O   0  0  0  0  0  0  0  0  0  0  0  0
   39.0180  -19.2819   33.9701 C   0  0  0  0  0  0  0  0  0  0  0  0
   37.8115  -18.4033   33.9497 C   0  0  0  0  0  0  0  0  0  0  0  0
   32.3965  -18.1989   34.9764 N   0  0  0  0  0  0  0  0  0  0  0  0
   31.6013  -17.5019   34.7624 H   0  0  0  0  0  0  0  0  0  0  0  0
   31.1969  -21.4146   36.0935 C   0  0  0  0  0  0  0  0  0  0  0  0
   31.6308  -22.2298   35.0724 C   0  0  0  0  0  0  0  0  0  0  0  0
   32.3373  -21.6925   33.9911 C   0  0  0  0  0  0  0  0  0  0  0  0
   32.5535  -20.3875   34.0161 N   0  0  0  0  0  0  0  0  0  0  0  0
   32.1588  -19.5683   34.9694 C   0  0  0  0  0  0  0  0  0  0  0  0
   31.4691  -20.0984   36.0232 N   0  0  0  0  0  0  0  0  0  0  0  0
   31.1879  -22.7391   38.1879 C   0  0  0  0  0  0  0  0  0  0  0  0
   30.4762  -21.9443   37.1948 N   0  0  0  0  0  0  0  0  0  0  0  0
   28.8039  -21.6834   37.3978 S   0  0  0  0  0  0  0  0  0  0  0  0
   27.8921  -22.9253   36.4890 C   0  0  0  0  0  0  0  0  0  0  0  0
   28.4347  -21.7606   38.8617 O   0  0  0  0  0  0  0  0  0  0  0  0
   28.4036  -20.3328   36.9195 O   0  0  0  0  0  0  0  0  0  0  0  0
 27 28  1  0  0  0
 28 21  1  0  0  0
 21 22  2  0  0  0
 22 23  1  0  0  0
 23 24  2  0  0  0
 24 25  1  0  0  0
 25 19  1  0  0  0
 19  1  1  0  0  0
  1  2  2  0  0  0
  2  3  1  0  0  0
  3  4  2  0  0  0
  4  5  1  0  0  0
  5  6  2  0  0  0
  5  7  1  0  0  0
  7  8  1  0  0  0
  8  9  1  0  0  0
  9 10  1  0  0  0
 10 11  1  0  0  0
 11 12  1  0  0  0
  3 13  1  0  0  0
 13 14  1  0  0  0
 14 15  1  0  0  0
 15 16  1  0  0  0
 16 17  1  0  0  0
 17 18  1  0  0  0
 25 26  2  0  0  0
 28 29  1  0  0  0
 29 30  1  0  0  0
 29 31  2  0  0  0
 29 32  2  0  0  0
 26 21  1  0  0  0
  6  1  1  0  0  0
 12  7  1  0  0  0
 18 13  1  0  0  0
 19 20  1  0  0  0
M  END
> <minimizedAffinity>
-7.83089

> <CNNscore>
0.5015169382

> <CNNaffinity>
5.9499368668

> <CNN_VS>
2.9839940071

> <CNNaffinity_variance>
0.4017203450

$$$$
[H]c1nc(N([H])c2c([H])c(N3C([H])([H])C([H])([H])OC([H])([H])C3([H])[H])c([H])c(N3C([H])([H])C([H])([H])OC([H])([H])C3([H])[H])c2[H])nc(N(C([H])([H])[H])S(=O)(=O)C([H])([H])[H])c1[H]


 32 35  0  0  0  0  0  0  0  0999 V2000
   33.4901  -18.3965   35.1563 C   0  0  0  0  0  0  0  0  0  0  0  0
   33.6166  -17.0933   35.5263 C   0  0  0  0  0  0  0  0  0  0  0  0
   34.8893  -16.5638   35.7824 C   0  0  0  0  0  0  0  0  0  0  0  0
   35.9965  -17.3685   35.6576 C   0  0  0  0  0  0  0  0  0  0  0  0
   35.9158  -18.6929   35.2869 C   0  0  0  0  0  0  0  0  0  0  0  0
   34.6529  -19.1741   35.0444 C   0  0  0  0  0  0  0  0  0  0  0  0
   37.0615  -19.5325   35.1580 N   0  0  0  0  0  0  0  0  0  0  0  0
   37.8257  -19.6303   33.9390 C   0  0  0  0  0  0  0  0  0  0  0  0
   39.2675  -19.8885   34.3490 C   0  0  0  0  0  0  0  0  0  0  0  0
   39.4450  -21.0532   35.0384 O   0  0  0  0  0  0  0  0  0  0  0  0
   38.4562  -21.4088   35.9073 C   0  0  0  0  0  0  0  0  0  0  0  0
   37.4922  -20.3279   36.2804 C   0  0  0  0  0  0  0  0  0  0  0  0
   34.9670  -15.2016   36.1633 N   0  0  0  0  0  0  0  0  0  0  0  0
   36.2979  -14.6449   36.3719 C   0  0  0  0  0  0  0  0  0  0  0  0
   36.2932  -13.2713   36.9517 C   0  0  0  0  0  0  0  0  0  0  0  0
   35.0985  -12.8643   37.4933 O   0  0  0  0  0  0  0  0  0  0  0  0
   34.0571  -12.9684   36.5756 C   0  0  0  0  0  0  0  0  0  0  0  0
   33.7678  -14.4127   36.3331 C   0  0  0  0  0  0  0  0  0  0  0  0
   32.2594  -19.0182   34.8439 N   0  0  0  0  0  0  0  0  0  0  0  0
   31.5228  -18.3455   34.4330 H   0  0  0  0  0  0  0  0  0  0  0  0
   31.0788  -22.0254   36.4535 C   0  0  0  0  0  0  0  0  0  0  0  0
   31.3491  -22.9681   35.4872 C   0  0  0  0  0  0  0  0  0  0  0  0
   31.9370  -22.5893   34.2755 C   0  0  0  0  0  0  0  0  0  0  0  0
   32.2072  -21.3028   34.1264 N   0  0  0  0  0  0  0  0  0  0  0  0
   31.9675  -20.3655   35.0207 C   0  0  0  0  0  0  0  0  0  0  0  0
   31.3931  -20.7411   36.2024 N   0  0  0  0  0  0  0  0  0  0  0  0
   31.2992  -23.0367   38.7050 C   0  0  0  0  0  0  0  0  0  0  0  0
   30.4796  -22.3937   37.6857 N   0  0  0  0  0  0  0  0  0  0  0  0
   28.8316  -22.1101   38.0165 S   0  0  0  0  0  0  0  0  0  0  0  0
   27.8257  -23.1763   36.9913 C   0  0  0  0  0  0  0  0  0  0  0  0
   28.5336  -22.3867   39.4725 O   0  0  0  0  0  0  0  0  0  0  0  0
   28.4629  -20.6920   37.7594 O   0  0  0  0  0  0  0  0  0  0  0  0
 27 28  1  0  0  0
 28 21  1  0  0  0
 21 22  2  0  0  0
 22 23  1  0  0  0
 23 24  2  0  0  0
 24 25  1  0  0  0
 25 19  1  0  0  0
 19  1  1  0  0  0
  1  2  2  0  0  0
  2  3  1  0  0  0
  3  4  2  0  0  0
  4  5  1  0  0  0
  5  6  2  0  0  0
  5  7  1  0  0  0
  7  8  1  0  0  0
  8  9  1  0  0  0
  9 10  1  0  0  0
 10 11  1  0  0  0
 11 12  1  0  0  0
  3 13  1  0  0  0
 13 14  1  0  0  0
 14 15  1  0  0  0
 15 16  1  0  0  0
 16 17  1  0  0  0
 17 18  1  0  0  0
 25 26  2  0  0  0
 28 29  1  0  0  0
 29 30  1  0  0  0
 29 31  2  0  0  0
 29 32  2  0  0  0
 26 21  1  0  0  0
  6  1  1  0  0  0
 12  7  1  0  0  0
 18 13  1  0  0  0
 19 20  1  0  0  0
M  END
> <minimizedAffinity>
-6.78822

> <CNNscore>
0.4935755134

> <CNNaffinity>
5.8123178482

> <CNN_VS>
2.8688178062

> <CNNaffinity_variance>
0.3724839091

$$$$
[H]c1nc(N([H])c2c([H])c(N3C([H])([H])C([H])([H])OC([H])([H])C3([H])[H])c([H])c(N3C([H])([H])C([H])([H])OC([H])([H])C3([H])[H])c2[H])nc(N(C([H])([H])[H])S(=O)(=O)C([H])([H])[H])c1[H]


 32 35  0  0  0  0  0  0  0  0999 V2000
   33.9504  -18.1886   34.5778 C   0  0  0  0  0  0  0  0  0  0  0  0
   35.1599  -18.8109   34.5401 C   0  0  0  0  0  0  0  0  0  0  0  0
   36.2747  -18.2001   35.1315 C   0  0  0  0  0  0  0  0  0  0  0  0
   36.1336  -16.9773   35.7428 C   0  0  0  0  0  0  0  0  0  0  0  0
   34.9295  -16.3105   35.8040 C   0  0  0  0  0  0  0  0  0  0  0  0
   33.8618  -16.9410   35.2142 C   0  0  0  0  0  0  0  0  0  0  0  0
   34.7784  -15.0406   36.4353 N   0  0  0  0  0  0  0  0  0  0  0  0
   35.7793  -14.4771   37.3072 C   0  0  0  0  0  0  0  0  0  0  0  0
   35.7099  -12.9679   37.1310 C   0  0  0  0  0  0  0  0  0  0  0  0
   34.5077  -12.4259   37.4832 O   0  0  0  0  0  0  0  0  0  0  0  0
   33.3953  -13.1588   37.1922 C   0  0  0  0  0  0  0  0  0  0  0  0
   33.5817  -14.2696   36.2082 C   0  0  0  0  0  0  0  0  0  0  0  0
   37.5104  -18.8896   35.0659 N   0  0  0  0  0  0  0  0  0  0  0  0
   38.3700  -18.8259   36.2413 C   0  0  0  0  0  0  0  0  0  0  0  0
   39.7252  -19.4106   36.0301 C   0  0  0  0  0  0  0  0  0  0  0  0
   40.0780  -19.6222   34.7197 O   0  0  0  0  0  0  0  0  0  0  0  0
   39.1406  -20.4092   34.0566 C   0  0  0  0  0  0  0  0  0  0  0  0
   37.8864  -19.6200   33.8765 C   0  0  0  0  0  0  0  0  0  0  0  0
   32.7601  -18.7316   34.0424 N   0  0  0  0  0  0  0  0  0  0  0  0
   32.5770  -18.4540   33.0161 H   0  0  0  0  0  0  0  0  0  0  0  0
   31.5944  -21.4910   36.0561 C   0  0  0  0  0  0  0  0  0  0  0  0
   30.2400  -21.2452   36.0858 C   0  0  0  0  0  0  0  0  0  0  0  0
   29.7086  -20.1357   35.4197 C   0  0  0  0  0  0  0  0  0  0  0  0
   30.5699  -19.3626   34.7787 N   0  0  0  0  0  0  0  0  0  0  0  0
   31.8718  -19.5568   34.7220 C   0  0  0  0  0  0  0  0  0  0  0  0
   32.3855  -20.6420   35.3744 N   0  0  0  0  0  0  0  0  0  0  0  0
   32.3162  -23.8609   36.0010 C   0  0  0  0  0  0  0  0  0  0  0  0
   32.1485  -22.6099   36.7299 N   0  0  0  0  0  0  0  0  0  0  0  0
   32.6259  -22.5425   38.3648 S   0  0  0  0  0  0  0  0  0  0  0  0
   33.8336  -23.8223   38.6865 C   0  0  0  0  0  0  0  0  0  0  0  0
   33.2289  -21.1926   38.6802 O   0  0  0  0  0  0  0  0  0  0  0  0
   31.4648  -22.7234   39.2770 O   0  0  0  0  0  0  0  0  0  0  0  0
 27 28  1  0  0  0
 28 21  1  0  0  0
 21 22  2  0  0  0
 22 23  1  0  0  0
 23 24  2  0  0  0
 24 25  1  0  0  0
 25 19  1  0  0  0
 19  1  1  0  0  0
  1  2  2  0  0  0
  2  3  1  0  0  0
  3  4  2  0  0  0
  4  5  1  0  0  0
  5  6  2  0  0  0
  5  7  1  0  0  0
  7  8  1  0  0  0
  8  9  1  0  0  0
  9 10  1  0  0  0
 10 11  1  0  0  0
 11 12  1  0  0  0
  3 13  1  0  0  0
 13 14  1  0  0  0
 14 15  1  0  0  0
 15 16  1  0  0  0
 16 17  1  0  0  0
 17 18  1  0  0  0
 25 26  2  0  0  0
 28 29  1  0  0  0
 29 30  1  0  0  0
 29 31  2  0  0  0
 29 32  2  0  0  0
 26 21  1  0  0  0
  6  1  1  0  0  0
 12  7  1  0  0  0
 18 13  1  0  0  0
 19 20  1  0  0  0
M  END
> <minimizedAffinity>
-7.28431

> <CNNscore>
0.4043213725

> <CNNaffinity>
5.8283929825

> <CNN_VS>
2.3565437794

> <CNNaffinity_variance>
0.5981338620

$$$$
[H]c1nc(N([H])c2c([H])c(N3C([H])([H])C([H])([H])OC([H])([H])C3([H])[H])c([H])c(N3C([H])([H])C([H])([H])OC([H])([H])C3([H])[H])c2[H])nc(N(C([H])([H])[H])S(=O)(=O)C([H])([H])[H])c1[H]


 32 35  0  0  0  0  0  0  0  0999 V2000
   36.5030  -18.1893   34.6537 C   0  0  0  0  0  0  0  0  0  0  0  0
   36.3755  -16.9280   35.1480 C   0  0  0  0  0  0  0  0  0  0  0  0
   35.1159  -16.4643   35.5532 C   0  0  0  0  0  0  0  0  0  0  0  0
   34.0222  -17.2897   35.4456 C   0  0  0  0  0  0  0  0  0  0  0  0
   34.1042  -18.5727   34.9504 C   0  0  0  0  0  0  0  0  0  0  0  0
   35.3541  -18.9903   34.5648 C   0  0  0  0  0  0  0  0  0  0  0  0
   32.9720  -19.4324   34.8349 N   0  0  0  0  0  0  0  0  0  0  0  0
   32.9456  -20.5764   33.9575 C   0  0  0  0  0  0  0  0  0  0  0  0
   32.0650  -21.6193   34.6289 C   0  0  0  0  0  0  0  0  0  0  0  0
   30.7745  -21.2151   34.8141 O   0  0  0  0  0  0  0  0  0  0  0  0
   30.5825  -19.9053   35.1407 C   0  0  0  0  0  0  0  0  0  0  0  0
   31.7915  -19.1652   35.6177 C   0  0  0  0  0  0  0  0  0  0  0  0
   35.0369  -15.1444   36.0616 N   0  0  0  0  0  0  0  0  0  0  0  0
   36.2951  -14.4514   36.3094 C   0  0  0  0  0  0  0  0  0  0  0  0
   36.1371  -13.1489   37.0176 C   0  0  0  0  0  0  0  0  0  0  0  0
   34.9138  -12.9433   37.6071 O   0  0  0  0  0  0  0  0  0  0  0  0
   33.8732  -13.0874   36.6939 C   0  0  0  0  0  0  0  0  0  0  0  0
   33.7552  -14.5271   36.3175 C   0  0  0  0  0  0  0  0  0  0  0  0
   37.7295  -18.7642   34.2491 N   0  0  0  0  0  0  0  0  0  0  0  0
   38.2335  -18.2134   33.4702 H   0  0  0  0  0  0  0  0  0  0  0  0
   38.9588  -21.0956   36.7151 C   0  0  0  0  0  0  0  0  0  0  0  0
   39.3678  -22.1385   35.9147 C   0  0  0  0  0  0  0  0  0  0  0  0
   39.2290  -22.0589   34.5249 C   0  0  0  0  0  0  0  0  0  0  0  0
   38.6945  -20.9471   34.0469 N   0  0  0  0  0  0  0  0  0  0  0  0
   38.2890  -19.9242   34.7716 C   0  0  0  0  0  0  0  0  0  0  0  0
   38.4268  -20.0073   36.1286 N   0  0  0  0  0  0  0  0  0  0  0  0
   40.3135  -20.6710   38.7461 C   0  0  0  0  0  0  0  0  0  0  0  0
   39.0896  -21.1632   38.1262 N   0  0  0  0  0  0  0  0  0  0  0  0
   37.8635  -21.8009   39.1240 S   0  0  0  0  0  0  0  0  0  0  0  0
   37.9428  -23.5877   39.0980 C   0  0  0  0  0  0  0  0  0  0  0  0
   38.0350  -21.3115   40.5440 O   0  0  0  0  0  0  0  0  0  0  0  0
   36.5150  -21.3631   38.6736 O   0  0  0  0  0  0  0  0  0  0  0  0
 27 28  1  0  0  0
 28 21  1  0  0  0
 21 22  2  0  0  0
 22 23  1  0  0  0
 23 24  2  0  0  0
 24 25  1  0  0  0
 25 19  1  0  0  0
 19  1  1  0  0  0
  1  2  2  0  0  0
  2  3  1  0  0  0
  3  4  2  0  0  0
  4  5  1  0  0  0
  5  6  2  0  0  0
  5  7  1  0  0  0
  7  8  1  0  0  0
  8  9  1  0  0  0
  9 10  1  0  0  0
 10 11  1  0  0  0
 11 12  1  0  0  0
  3 13  1  0  0  0
 13 14  1  0  0  0
 14 15  1  0  0  0
 15 16  1  0  0  0
 16 17  1  0  0  0
 17 18  1  0  0  0
 25 26  2  0  0  0
 28 29  1  0  0  0
 29 30  1  0  0  0
 29 31  2  0  0  0
 29 32  2  0  0  0
 26 21  1  0  0  0
  6  1  1  0  0  0
 12  7  1  0  0  0
 18 13  1  0  0  0
 19 20  1  0  0  0
M  END
> <minimizedAffinity>
-6.30686

> <CNNscore>
0.3644027412

> <CNNaffinity>
5.7274637222

> <CNN_VS>
2.0871033669

> <CNNaffinity_variance>
0.3499850333

$$$$
[H]c1nc(N([H])c2c([H])c(N3C([H])([H])C([H])([H])OC([H])([H])C3([H])[H])c([H])c(N3C([H])([H])C([H])([H])OC([H])([H])C3([H])[H])c2[H])nc(N(C([H])([H])[H])S(=O)(=O)C([H])([H])[H])c1[H]


 32 35  0  0  0  0  0  0  0  0999 V2000
   34.6387  -18.6117   35.0120 C   0  0  0  0  0  0  0  0  0  0  0  0
   34.5051  -17.2880   35.2972 C   0  0  0  0  0  0  0  0  0  0  0  0
   35.4830  -16.6403   36.0651 C   0  0  0  0  0  0  0  0  0  0  0  0
   36.5668  -17.3508   36.5228 C   0  0  0  0  0  0  0  0  0  0  0  0
   36.7425  -18.6916   36.2595 C   0  0  0  0  0  0  0  0  0  0  0  0
   35.7643  -19.2899   35.5044 C   0  0  0  0  0  0  0  0  0  0  0  0
   37.8644  -19.4338   36.7339 N   0  0  0  0  0  0  0  0  0  0  0  0
   39.1570  -19.3894   36.0963 C   0  0  0  0  0  0  0  0  0  0  0  0
   40.1913  -19.5692   37.1969 C   0  0  0  0  0  0  0  0  0  0  0  0
   40.0983  -20.7632   37.8518 O   0  0  0  0  0  0  0  0  0  0  0  0
   38.8427  -21.2505   38.0641 C   0  0  0  0  0  0  0  0  0  0  0  0
   37.7237  -20.2721   37.8981 C   0  0  0  0  0  0  0  0  0  0  0  0
   35.2978  -15.2616   36.3331 N   0  0  0  0  0  0  0  0  0  0  0  0
   33.9260  -14.7699   36.3674 C   0  0  0  0  0  0  0  0  0  0  0  0
   33.8193  -13.2859   36.4646 C   0  0  0  0  0  0  0  0  0  0  0  0
   34.9725  -12.5929   36.1884 O   0  0  0  0  0  0  0  0  0  0  0  0
   36.0313  -13.0204   36.9844 C   0  0  0  0  0  0  0  0  0  0  0  0
   36.4317  -14.3946   36.5605 C   0  0  0  0  0  0  0  0  0  0  0  0
   33.7292  -19.3500   34.2205 N   0  0  0  0  0  0  0  0  0  0  0  0
   34.1170  -19.6246   33.2519 H   0  0  0  0  0  0  0  0  0  0  0  0
   31.0377  -21.4608   35.3731 C   0  0  0  0  0  0  0  0  0  0  0  0
   29.9838  -20.5750   35.3673 C   0  0  0  0  0  0  0  0  0  0  0  0
   30.1786  -19.2477   34.9705 C   0  0  0  0  0  0  0  0  0  0  0  0
   31.4071  -18.9122   34.6120 N   0  0  0  0  0  0  0  0  0  0  0  0
   32.4455  -19.7230   34.6010 C   0  0  0  0  0  0  0  0  0  0  0  0
   32.2496  -21.0183   34.9896 N   0  0  0  0  0  0  0  0  0  0  0  0
   30.8796  -23.8577   34.7647 C   0  0  0  0  0  0  0  0  0  0  0  0
   30.8565  -22.8088   35.7765 N   0  0  0  0  0  0  0  0  0  0  0  0
   30.6122  -23.2459   37.4059 S   0  0  0  0  0  0  0  0  0  0  0  0
   28.8624  -23.2143   37.7757 C   0  0  0  0  0  0  0  0  0  0  0  0
   31.1549  -24.6330   37.6642 O   0  0  0  0  0  0  0  0  0  0  0  0
   31.3253  -22.3218   38.3282 O   0  0  0  0  0  0  0  0  0  0  0  0
 27 28  1  0  0  0
 28 21  1  0  0  0
 21 22  2  0  0  0
 22 23  1  0  0  0
 23 24  2  0  0  0
 24 25  1  0  0  0
 25 19  1  0  0  0
 19  1  1  0  0  0
  1  2  2  0  0  0
  2  3  1  0  0  0
  3  4  2  0  0  0
  4  5  1  0  0  0
  5  6  2  0  0  0
  5  7  1  0  0  0
  7  8  1  0  0  0
  8  9  1  0  0  0
  9 10  1  0  0  0
 10 11  1  0  0  0
 11 12  1  0  0  0
  3 13  1  0  0  0
 13 14  1  0  0  0
 14 15  1  0  0  0
 15 16  1  0  0  0
 16 17  1  0  0  0
 17 18  1  0  0  0
 25 26  2  0  0  0
 28 29  1  0  0  0
 29 30  1  0  0  0
 29 31  2  0  0  0
 29 32  2  0  0  0
 26 21  1  0  0  0
  6  1  1  0  0  0
 12  7  1  0  0  0
 18 13  1  0  0  0
 19 20  1  0  0  0
M  END
> <minimizedAffinity>
-6.59863

> <CNNscore>
0.3535023332

> <CNNaffinity>
5.5057554245

> <CNN_VS>
1.9462974072

> <CNNaffinity_variance>
0.9681512713

$$$$
[H]c1nc(N([H])c2c([H])c(N3C([H])([H])C([H])([H])OC([H])([H])C3([H])[H])c([H])c(N3C([H])([H])C([H])([H])OC([H])([H])C3([H])[H])c2[H])nc(N(C([H])([H])[H])S(=O)(=O)C([H])([H])[H])c1[H]


 32 35  0  0  0  0  0  0  0  0999 V2000
   33.7906  -18.2798   34.3976 C   0  0  0  0  0  0  0  0  0  0  0  0
   34.9760  -18.9429   34.3154 C   0  0  0  0  0  0  0  0  0  0  0  0
   36.1363  -18.3605   34.8447 C   0  0  0  0  0  0  0  0  0  0  0  0
   36.0637  -17.1241   35.4406 C   0  0  0  0  0  0  0  0  0  0  0  0
   34.8863  -16.4166   35.5451 C   0  0  0  0  0  0  0  0  0  0  0  0
   33.7724  -17.0200   35.0157 C   0  0  0  0  0  0  0  0  0  0  0  0
   34.8061  -15.1324   36.1607 N   0  0  0  0  0  0  0  0  0  0  0  0
   33.5836  -14.3703   36.2226 C   0  0  0  0  0  0  0  0  0  0  0  0
   33.6326  -13.5739   37.5176 C   0  0  0  0  0  0  0  0  0  0  0  0
   34.6703  -12.6896   37.5826 O   0  0  0  0  0  0  0  0  0  0  0  0
   35.8506  -13.0867   37.0273 C   0  0  0  0  0  0  0  0  0  0  0  0
   35.9851  -14.5506   36.7518 C   0  0  0  0  0  0  0  0  0  0  0  0
   37.3445  -19.0920   34.7346 N   0  0  0  0  0  0  0  0  0  0  0  0
   38.2688  -18.6934   33.6804 C   0  0  0  0  0  0  0  0  0  0  0  0
   39.4215  -19.6228   33.5055 C   0  0  0  0  0  0  0  0  0  0  0  0
   39.2873  -20.8484   34.1107 O   0  0  0  0  0  0  0  0  0  0  0  0
   39.0138  -20.7224   35.4697 C   0  0  0  0  0  0  0  0  0  0  0  0
   37.6318  -20.1835   35.6375 C   0  0  0  0  0  0  0  0  0  0  0  0
   32.5596  -18.7910   33.9265 N   0  0  0  0  0  0  0  0  0  0  0  0
   32.2606  -18.3947   32.9687 H   0  0  0  0  0  0  0  0  0  0  0  0
   31.6372  -21.8763   35.5569 C   0  0  0  0  0  0  0  0  0  0  0  0
   30.3219  -21.6252   35.8769 C   0  0  0  0  0  0  0  0  0  0  0  0
   29.7343  -20.4009   35.5407 C   0  0  0  0  0  0  0  0  0  0  0  0
   30.5052  -19.5278   34.9132 N   0  0  0  0  0  0  0  0  0  0  0  0
   31.7665  -19.7224   34.5863 C   0  0  0  0  0  0  0  0  0  0  0  0
   32.3354  -20.9200   34.9171 N   0  0  0  0  0  0  0  0  0  0  0  0
   33.4748  -23.1008   36.6812 C   0  0  0  0  0  0  0  0  0  0  0  0
   32.2479  -23.1116   35.8945 N   0  0  0  0  0  0  0  0  0  0  0  0
   31.5961  -24.6108   35.4116 S   0  0  0  0  0  0  0  0  0  0  0  0
   31.1077  -24.5227   33.6930 C   0  0  0  0  0  0  0  0  0  0  0  0
   32.6199  -25.7091   35.5869 O   0  0  0  0  0  0  0  0  0  0  0  0
   30.4161  -24.9809   36.2385 O   0  0  0  0  0  0  0  0  0  0  0  0
 27 28  1  0  0  0
 28 21  1  0  0  0
 21 22  2  0  0  0
 22 23  1  0  0  0
 23 24  2  0  0  0
 24 25  1  0  0  0
 25 19  1  0  0  0
 19  1  1  0  0  0
  1  2  2  0  0  0
  2  3  1  0  0  0
  3  4  2  0  0  0
  4  5  1  0  0  0
  5  6  2  0  0  0
  5  7  1  0  0  0
  7  8  1  0  0  0
  8  9  1  0  0  0
  9 10  1  0  0  0
 10 11  1  0  0  0
 11 12  1  0  0  0
  3 13  1  0  0  0
 13 14  1  0  0  0
 14 15  1  0  0  0
 15 16  1  0  0  0
 16 17  1  0  0  0
 17 18  1  0  0  0
 25 26  2  0  0  0
 28 29  1  0  0  0
 29 30  1  0  0  0
 29 31  2  0  0  0
 29 32  2  0  0  0
 26 21  1  0  0  0
  6  1  1  0  0  0
 12  7  1  0  0  0
 18 13  1  0  0  0
 19 20  1  0  0  0
M  END
> <minimizedAffinity>
-6.98392

> <CNNscore>
0.3493916988

> <CNNaffinity>
5.8238372803

> <CNN_VS>
2.0348002911

> <CNNaffinity_variance>
0.4794908464

$$$$
[H]c1nc(N([H])c2c([H])c(N3C([H])([H])C([H])([H])OC([H])([H])C3([H])[H])c([H])c(N3C([H])([H])C([H])([H])OC([H])([H])C3([H])[H])c2[H])nc(N(C([H])([H])[H])S(=O)(=O)C([H])([H])[H])c1[H]


 32 35  0  0  0  0  0  0  0  0999 V2000
   34.8437  -18.8940   34.3743 C   0  0  0  0  0  0  0  0  0  0  0  0
   34.5296  -17.7058   34.9583 C   0  0  0  0  0  0  0  0  0  0  0  0
   35.5520  -16.8774   35.4421 C   0  0  0  0  0  0  0  0  0  0  0  0
   36.8619  -17.2756   35.3220 C   0  0  0  0  0  0  0  0  0  0  0  0
   37.2261  -18.4698   34.7394 C   0  0  0  0  0  0  0  0  0  0  0  0
   36.1970  -19.2527   34.2775 C   0  0  0  0  0  0  0  0  0  0  0  0
   38.5838  -18.8884   34.6142 N   0  0  0  0  0  0  0  0  0  0  0  0
   39.2409  -19.0387   33.3394 C   0  0  0  0  0  0  0  0  0  0  0  0
   40.7055  -18.6932   33.5617 C   0  0  0  0  0  0  0  0  0  0  0  0
   41.3381  -19.5159   34.4483 O   0  0  0  0  0  0  0  0  0  0  0  0
   40.6086  -19.9414   35.5187 C   0  0  0  0  0  0  0  0  0  0  0  0
   39.3515  -19.1809   35.7986 C   0  0  0  0  0  0  0  0  0  0  0  0
   35.1724  -15.6506   36.0404 N   0  0  0  0  0  0  0  0  0  0  0  0
   36.2298  -14.8531   36.6491 C   0  0  0  0  0  0  0  0  0  0  0  0
   35.7315  -13.6779   37.4196 C   0  0  0  0  0  0  0  0  0  0  0  0
   34.3900  -13.6922   37.7141 O   0  0  0  0  0  0  0  0  0  0  0  0
   33.6145  -13.8396   36.5676 C   0  0  0  0  0  0  0  0  0  0  0  0
   33.7914  -15.2239   36.0380 C   0  0  0  0  0  0  0  0  0  0  0  0
   33.8937  -19.7856   33.8255 N   0  0  0  0  0  0  0  0  0  0  0  0
   34.2335  -20.2913   32.9352 H   0  0  0  0  0  0  0  0  0  0  0  0
   31.2336  -21.5389   35.5220 C   0  0  0  0  0  0  0  0  0  0  0  0
   30.1990  -20.6395   35.3953 C   0  0  0  0  0  0  0  0  0  0  0  0
   30.3964  -19.4247   34.7302 C   0  0  0  0  0  0  0  0  0  0  0  0
   31.6080  -19.2060   34.2459 N   0  0  0  0  0  0  0  0  0  0  0  0
   32.6276  -20.0348   34.3419 C   0  0  0  0  0  0  0  0  0  0  0  0
   32.4292  -21.2199   34.9926 N   0  0  0  0  0  0  0  0  0  0  0  0
   30.8301  -23.9814   35.4118 C   0  0  0  0  0  0  0  0  0  0  0  0
   31.0498  -22.7732   36.1969 N   0  0  0  0  0  0  0  0  0  0  0  0
   31.0770  -22.8932   37.8971 S   0  0  0  0  0  0  0  0  0  0  0  0
   31.3103  -24.6024   38.3704 C   0  0  0  0  0  0  0  0  0  0  0  0
   32.2016  -22.0572   38.4643 O   0  0  0  0  0  0  0  0  0  0  0  0
   29.8136  -22.3862   38.4969 O   0  0  0  0  0  0  0  0  0  0  0  0
 27 28  1  0  0  0
 28 21  1  0  0  0
 21 22  2  0  0  0
 22 23  1  0  0  0
 23 24  2  0  0  0
 24 25  1  0  0  0
 25 19  1  0  0  0
 19  1  1  0  0  0
  1  2  2  0  0  0
  2  3  1  0  0  0
  3  4  2  0  0  0
  4  5  1  0  0  0
  5  6  2  0  0  0
  5  7  1  0  0  0
  7  8  1  0  0  0
  8  9  1  0  0  0
  9 10  1  0  0  0
 10 11  1  0  0  0
 11 12  1  0  0  0
  3 13  1  0  0  0
 13 14  1  0  0  0
 14 15  1  0  0  0
 15 16  1  0  0  0
 16 17  1  0  0  0
 17 18  1  0  0  0
 25 26  2  0  0  0
 28 29  1  0  0  0
 29 30  1  0  0  0
 29 31  2  0  0  0
 29 32  2  0  0  0
 26 21  1  0  0  0
  6  1  1  0  0  0
 12  7  1  0  0  0
 18 13  1  0  0  0
 19 20  1  0  0  0
M  END
> <minimizedAffinity>
-7.42558

> <CNNscore>
0.3332514167

> <CNNaffinity>
5.7502617836

> <CNN_VS>
1.9162828922

> <CNNaffinity_variance>
0.4154203534

$$$$
[H]c1nc(N([H])c2c([H])c(N3C([H])([H])C([H])([H])OC([H])([H])C3([H])[H])c([H])c(N3C([H])([H])C([H])([H])OC([H])([H])C3([H])[H])c2[H])nc(N(C([H])([H])[H])S(=O)(=O)C([H])([H])[H])c1[H]


 32 35  0  0  0  0  0  0  0  0999 V2000
   36.1948  -18.1500   34.2073 C   0  0  0  0  0  0  0  0  0  0  0  0
   35.1219  -18.9869   34.2143 C   0  0  0  0  0  0  0  0  0  0  0  0
   33.9700  -18.6343   34.9316 C   0  0  0  0  0  0  0  0  0  0  0  0
   33.9376  -17.4461   35.6215 C   0  0  0  0  0  0  0  0  0  0  0  0
   34.9999  -16.5691   35.6434 C   0  0  0  0  0  0  0  0  0  0  0  0
   36.1090  -16.9494   34.9289 C   0  0  0  0  0  0  0  0  0  0  0  0
   34.9719  -15.3359   36.3594 N   0  0  0  0  0  0  0  0  0  0  0  0
   36.1045  -14.8353   37.0983 C   0  0  0  0  0  0  0  0  0  0  0  0
   36.0397  -13.3177   37.0181 C   0  0  0  0  0  0  0  0  0  0  0  0
   34.9160  -12.7830   37.5788 O   0  0  0  0  0  0  0  0  0  0  0  0
   33.7578  -13.4848   37.4207 C   0  0  0  0  0  0  0  0  0  0  0  0
   33.7705  -14.5393   36.3601 C   0  0  0  0  0  0  0  0  0  0  0  0
   32.8805  -19.5394   34.9061 N   0  0  0  0  0  0  0  0  0  0  0  0
   31.5406  -18.9657   34.8881 C   0  0  0  0  0  0  0  0  0  0  0  0
   30.4518  -19.9708   35.0534 C   0  0  0  0  0  0  0  0  0  0  0  0
   30.8516  -21.2029   35.5102 O   0  0  0  0  0  0  0  0  0  0  0  0
   31.8491  -21.7488   34.7075 C   0  0  0  0  0  0  0  0  0  0  0  0
   33.1063  -20.9670   34.8984 C   0  0  0  0  0  0  0  0  0  0  0  0
   37.3890  -18.3946   33.4914 N   0  0  0  0  0  0  0  0  0  0  0  0
   37.4214  -17.9213   32.5224 H   0  0  0  0  0  0  0  0  0  0  0  0
   39.6192  -20.0286   35.8117 C   0  0  0  0  0  0  0  0  0  0  0  0
   40.5091  -20.6275   34.9486 C   0  0  0  0  0  0  0  0  0  0  0  0
   40.3589  -20.4813   33.5654 C   0  0  0  0  0  0  0  0  0  0  0  0
   39.3349  -19.7504   33.1560 N   0  0  0  0  0  0  0  0  0  0  0  0
   38.4588  -19.1588   33.9423 C   0  0  0  0  0  0  0  0  0  0  0  0
   38.6102  -19.3050   35.2925 N   0  0  0  0  0  0  0  0  0  0  0  0
   40.9334  -19.6137   37.8712 C   0  0  0  0  0  0  0  0  0  0  0  0
   39.7563  -20.1709   37.2167 N   0  0  0  0  0  0  0  0  0  0  0  0
   38.5906  -20.9720   38.1680 S   0  0  0  0  0  0  0  0  0  0  0  0
   38.2866  -22.6003   37.4925 C   0  0  0  0  0  0  0  0  0  0  0  0
   39.0764  -21.1027   39.5935 O   0  0  0  0  0  0  0  0  0  0  0  0
   37.3120  -20.2129   38.2126 O   0  0  0  0  0  0  0  0  0  0  0  0
 27 28  1  0  0  0
 28 21  1  0  0  0
 21 22  2  0  0  0
 22 23  1  0  0  0
 23 24  2  0  0  0
 24 25  1  0  0  0
 25 19  1  0  0  0
 19  1  1  0  0  0
  1  2  2  0  0  0
  2  3  1  0  0  0
  3  4  2  0  0  0
  4  5  1  0  0  0
  5  6  2  0  0  0
  5  7  1  0  0  0
  7  8  1  0  0  0
  8  9  1  0  0  0
  9 10  1  0  0  0
 10 11  1  0  0  0
 11 12  1  0  0  0
  3 13  1  0  0  0
 13 14  1  0  0  0
 14 15  1  0  0  0
 15 16  1  0  0  0
 16 17  1  0  0  0
 17 18  1  0  0  0
 25 26  2  0  0  0
 28 29  1  0  0  0
 29 30  1  0  0  0
 29 31  2  0  0  0
 29 32  2  0  0  0
 26 21  1  0  0  0
  6  1  1  0  0  0
 12  7  1  0  0  0
 18 13  1  0  0  0
 19 20  1  0  0  0
M  END
> <minimizedAffinity>
-6.86988

> <CNNscore>
0.2920022011

> <CNNaffinity>
5.6863532066

> <CNN_VS>
1.6604276896

> <CNNaffinity_variance>
0.4541521966

$$$$
[H]OC([H])([H])[C@@]1(O[H])C([H])([H])[C@@]2([H])O[C@]1(C([H])([H])[H])n1c3c([H])c([H])c([H])c([H])c3c3c4c(c5c6c([H])c([H])c([H])c([H])c6n2c5c31)C(=O)N([H])C4([H])[H]


 36 43  0  0  0  0  0  0  0  0999 V2000
   40.9077  -20.5785   34.2737 C   0  0  0  0  0  0  0  0  0  0  0  0
   40.2038  -20.5813   35.5874 C   0  0  0  0  0  0  0  0  0  0  0  0
   38.9550  -21.1446   35.2051 O   0  0  0  0  0  0  0  0  0  0  0  0
   37.9733  -20.6693   36.0053 C   0  0  0  0  0  0  0  0  0  0  0  0
   38.3335  -19.2951   36.3785 C   0  0  0  0  0  0  0  0  0  0  0  0
   39.8144  -19.2189   36.0800 C   0  0  0  0  0  0  0  0  0  0  0  0
   40.4411  -18.8690   37.2667 O   0  0  0  0  0  0  0  0  0  0  0  0
   37.7518  -21.5687   37.1452 N   0  0  0  0  0  0  0  0  0  0  0  0
   36.6171  -21.9167   37.7273 C   0  0  0  0  0  0  0  0  0  0  0  0
   35.3412  -21.5223   37.4182 C   0  0  0  0  0  0  0  0  0  0  0  0
   34.2927  -22.0255   38.1785 C   0  0  0  0  0  0  0  0  0  0  0  0
   34.5296  -22.8950   39.2121 C   0  0  0  0  0  0  0  0  0  0  0  0
   35.8317  -23.2996   39.5301 C   0  0  0  0  0  0  0  0  0  0  0  0
   36.8538  -22.7993   38.7769 C   0  0  0  0  0  0  0  0  0  0  0  0
   38.2181  -22.9781   38.8104 C   0  0  0  0  0  0  0  0  0  0  0  0
   39.0674  -23.7130   39.6175 C   0  0  0  0  0  0  0  0  0  0  0  0
   38.8847  -24.6110   40.7436 C   0  0  0  0  0  0  0  0  0  0  0  0
   37.8605  -24.9804   41.3203 O   0  0  0  0  0  0  0  0  0  0  0  0
   40.1815  -25.0637   41.1451 N   0  0  0  0  0  0  0  0  0  0  0  0
   41.2053  -24.4776   40.3145 C   0  0  0  0  0  0  0  0  0  0  0  0
   40.4255  -23.6425   39.3686 C   0  0  0  0  0  0  0  0  0  0  0  0
   40.9523  -22.8647   38.3433 C   0  0  0  0  0  0  0  0  0  0  0  0
   42.2029  -22.5913   37.8862 C   0  0  0  0  0  0  0  0  0  0  0  0
   43.4277  -23.0355   38.3282 C   0  0  0  0  0  0  0  0  0  0  0  0
   44.5850  -22.5818   37.6883 C   0  0  0  0  0  0  0  0  0  0  0  0
   44.4565  -21.6994   36.6307 C   0  0  0  0  0  0  0  0  0  0  0  0
   43.2126  -21.2671   36.2048 C   0  0  0  0  0  0  0  0  0  0  0  0
   42.0622  -21.7012   36.8183 C   0  0  0  0  0  0  0  0  0  0  0  0
   40.7462  -21.4281   36.6111 N   0  0  0  0  0  0  0  0  0  0  0  0
   40.0895  -22.1604   37.5729 C   0  0  0  0  0  0  0  0  0  0  0  0
   38.7300  -22.2045   37.7911 C   0  0  0  0  0  0  0  0  0  0  0  0
   40.4939  -17.8839   37.3089 H   0  0  0  0  0  0  0  0  0  0  0  0
   40.4023  -25.7317   41.9324 H   0  0  0  0  0  0  0  0  0  0  0  0
   40.0338  -18.1296   35.0856 C   0  0  0  0  0  0  0  0  0  0  0  0
   41.4068  -17.9961   34.8763 O   0  0  0  0  0  0  0  0  0  0  0  0
   41.7712  -17.1571   35.2573 H   0  0  0  0  0  0  0  0  0  0  0  0
  2  1  1  0  0  0
  2  3  1  0  0  0
  3  4  1  0  0  0
  4  5  1  0  0  0
  5  6  1  0  0  0
  6  7  1  0  0  0
  6 34  1  0  0  0
 34 35  1  0  0  0
  4  8  1  0  0  0
  8  9  1  0  0  0
  9 10  2  0  0  0
 10 11  1  0  0  0
 11 12  2  0  0  0
 12 13  1  0  0  0
 13 14  2  0  0  0
 14 15  1  0  0  0
 15 16  2  0  0  0
 16 17  1  0  0  0
 17 18  2  0  0  0
 17 19  1  0  0  0
 19 20  1  0  0  0
 20 21  1  0  0  0
 21 22  2  0  0  0
 22 23  1  0  0  0
 23 24  2  0  0  0
 24 25  1  0  0  0
 25 26  2  0  0  0
 26 27  1  0  0  0
 27 28  2  0  0  0
 28 29  1  0  0  0
 29 30  1  0  0  0
 30 31  2  0  0  0
  6  2  1  0  0  0
 31  8  1  0  0  0
 29  2  1  0  0  0
 14  9  1  0  0  0
 31 15  1  0  0  0
 21 16  1  0  0  0
 30 22  1  0  0  0
 28 23  1  0  0  0
  7 32  1  0  0  0
 35 36  1  0  0  0
 19 33  1  0  0  0
M  END
> <minimizedAffinity>
-2.50162

> <CNNscore>
0.5190642476

> <CNNaffinity>
5.1964340210

> <CNN_VS>
2.6972830296

> <CNNaffinity_variance>
0.4939349294

$$$$
[H]OC([H])([H])[C@@]1(O[H])C([H])([H])[C@@]2([H])O[C@]1(C([H])([H])[H])n1c3c([H])c([H])c([H])c([H])c3c3c4c(c5c6c([H])c([H])c([H])c([H])c6n2c5c31)C(=O)N([H])C4([H])[H]


 36 43  0  0  0  0  0  0  0  0999 V2000
   38.6043  -20.6176   33.4727 C   0  0  0  0  0  0  0  0  0  0  0  0
   38.7738  -20.4526   34.9442 C   0  0  0  0  0  0  0  0  0  0  0  0
   37.4662  -20.7911   35.3900 O   0  0  0  0  0  0  0  0  0  0  0  0
   37.1829  -20.1213   36.5307 C   0  0  0  0  0  0  0  0  0  0  0  0
   37.8697  -18.8246   36.4643 C   0  0  0  0  0  0  0  0  0  0  0  0
   38.9164  -19.0277   35.3914 C   0  0  0  0  0  0  0  0  0  0  0  0
   40.1441  -18.7615   35.9791 O   0  0  0  0  0  0  0  0  0  0  0  0
   37.5277  -20.9304   37.7070 N   0  0  0  0  0  0  0  0  0  0  0  0
   36.8870  -21.0487   38.8572 C   0  0  0  0  0  0  0  0  0  0  0  0
   35.7261  -20.4387   39.2562 C   0  0  0  0  0  0  0  0  0  0  0  0
   35.2357  -20.7198   40.5255 C   0  0  0  0  0  0  0  0  0  0  0  0
   35.8975  -21.5860   41.3576 C   0  0  0  0  0  0  0  0  0  0  0  0
   37.0835  -22.2104   40.9527 C   0  0  0  0  0  0  0  0  0  0  0  0
   37.5560  -21.9272   39.7042 C   0  0  0  0  0  0  0  0  0  0  0  0
   38.6617  -22.3497   39.0018 C   0  0  0  0  0  0  0  0  0  0  0  0
   39.7118  -23.2017   39.2920 C   0  0  0  0  0  0  0  0  0  0  0  0
   40.0805  -24.0169   40.4354 C   0  0  0  0  0  0  0  0  0  0  0  0
   39.5238  -24.1764   41.5229 O   0  0  0  0  0  0  0  0  0  0  0  0
   41.3030  -24.6851   40.1084 N   0  0  0  0  0  0  0  0  0  0  0  0
   41.7445  -24.3202   38.7842 C   0  0  0  0  0  0  0  0  0  0  0  0
   40.6858  -23.3865   38.3285 C   0  0  0  0  0  0  0  0  0  0  0  0
   40.6382  -22.7489   37.0936 C   0  0  0  0  0  0  0  0  0  0  0  0
   41.4339  -22.7212   35.9919 C   0  0  0  0  0  0  0  0  0  0  0  0
   42.6218  -23.3668   35.7370 C   0  0  0  0  0  0  0  0  0  0  0  0
   43.2622  -23.1504   34.5133 C   0  0  0  0  0  0  0  0  0  0  0  0
   42.6769  -22.2920   33.6000 C   0  0  0  0  0  0  0  0  0  0  0  0
   41.4809  -21.6542   33.8803 C   0  0  0  0  0  0  0  0  0  0  0  0
   40.8338  -21.8533   35.0760 C   0  0  0  0  0  0  0  0  0  0  0  0
   39.6817  -21.3522   35.5966 N   0  0  0  0  0  0  0  0  0  0  0  0
   39.5938  -21.9235   36.8450 C   0  0  0  0  0  0  0  0  0  0  0  0
   38.6047  -21.7133   37.7806 C   0  0  0  0  0  0  0  0  0  0  0  0
   40.3419  -17.8015   35.8591 H   0  0  0  0  0  0  0  0  0  0  0  0
   41.8392  -25.3578   40.7206 H   0  0  0  0  0  0  0  0  0  0  0  0
   38.6774  -18.0271   34.3120 C   0  0  0  0  0  0  0  0  0  0  0  0
   37.4101  -17.4740   34.4987 O   0  0  0  0  0  0  0  0  0  0  0  0
   36.7624  -17.7614   33.8060 H   0  0  0  0  0  0  0  0  0  0  0  0
  2  1  1  0  0  0
  2  3  1  0  0  0
  3  4  1  0  0  0
  4  5  1  0  0  0
  5  6  1  0  0  0
  6  7  1  0  0  0
  6 34  1  0  0  0
 34 35  1  0  0  0
  4  8  1  0  0  0
  8  9  1  0  0  0
  9 10  2  0  0  0
 10 11  1  0  0  0
 11 12  2  0  0  0
 12 13  1  0  0  0
 13 14  2  0  0  0
 14 15  1  0  0  0
 15 16  2  0  0  0
 16 17  1  0  0  0
 17 18  2  0  0  0
 17 19  1  0  0  0
 19 20  1  0  0  0
 20 21  1  0  0  0
 21 22  2  0  0  0
 22 23  1  0  0  0
 23 24  2  0  0  0
 24 25  1  0  0  0
 25 26  2  0  0  0
 26 27  1  0  0  0
 27 28  2  0  0  0
 28 29  1  0  0  0
 29 30  1  0  0  0
 30 31  2  0  0  0
  6  2  1  0  0  0
 31  8  1  0  0  0
 29  2  1  0  0  0
 14  9  1  0  0  0
 31 15  1  0  0  0
 21 16  1  0  0  0
 30 22  1  0  0  0
 28 23  1  0  0  0
  7 32  1  0  0  0
 35 36  1  0  0  0
 19 33  1  0  0  0
M  END
> <minimizedAffinity>
-3.46072

> <CNNscore>
0.4768095613

> <CNNaffinity>
5.0164899826

> <CNN_VS>
2.3919103146

> <CNNaffinity_variance>
0.1995955408

$$$$
[H]OC([H])([H])[C@@]1(O[H])C([H])([H])[C@@]2([H])O[C@]1(C([H])([H])[H])n1c3c([H])c([H])c([H])c([H])c3c3c4c(c5c6c([H])c([H])c([H])c([H])c6n2c5c31)C(=O)N([H])C4([H])[H]


 36 43  0  0  0  0  0  0  0  0999 V2000
   37.2010  -21.3350   36.9298 C   0  0  0  0  0  0  0  0  0  0  0  0
   35.8250  -21.0457   37.4239 C   0  0  0  0  0  0  0  0  0  0  0  0
   35.0856  -21.1952   36.2181 O   0  0  0  0  0  0  0  0  0  0  0  0
   33.9988  -20.3900   36.2436 C   0  0  0  0  0  0  0  0  0  0  0  0
   34.3570  -19.1881   37.0083 C   0  0  0  0  0  0  0  0  0  0  0  0
   35.5885  -19.6077   37.7798 C   0  0  0  0  0  0  0  0  0  0  0  0
   35.2987  -19.4195   39.1229 O   0  0  0  0  0  0  0  0  0  0  0  0
   32.8297  -21.1123   36.7620 N   0  0  0  0  0  0  0  0  0  0  0  0
   31.5675  -21.0471   36.3748 C   0  0  0  0  0  0  0  0  0  0  0  0
   31.0160  -20.2789   35.3825 C   0  0  0  0  0  0  0  0  0  0  0  0
   29.6492  -20.3792   35.1532 C   0  0  0  0  0  0  0  0  0  0  0  0
   28.8724  -21.2261   35.9015 C   0  0  0  0  0  0  0  0  0  0  0  0
   29.4330  -22.0120   36.9156 C   0  0  0  0  0  0  0  0  0  0  0  0
   30.7762  -21.9055   37.1322 C   0  0  0  0  0  0  0  0  0  0  0  0
   31.6337  -22.5121   38.0218 C   0  0  0  0  0  0  0  0  0  0  0  0
   31.4641  -23.4401   39.0331 C   0  0  0  0  0  0  0  0  0  0  0  0
   30.3311  -24.1742   39.5673 C   0  0  0  0  0  0  0  0  0  0  0  0
   29.1421  -24.1651   39.2448 O   0  0  0  0  0  0  0  0  0  0  0  0
   30.8184  -24.9997   40.6299 N   0  0  0  0  0  0  0  0  0  0  0  0
   32.2384  -24.8165   40.8071 C   0  0  0  0  0  0  0  0  0  0  0  0
   32.5768  -23.8230   39.7588 C   0  0  0  0  0  0  0  0  0  0  0  0
   33.8428  -23.3082   39.5025 C   0  0  0  0  0  0  0  0  0  0  0  0
   35.0787  -23.4751   40.0433 C   0  0  0  0  0  0  0  0  0  0  0  0
   35.4915  -24.2673   41.0896 C   0  0  0  0  0  0  0  0  0  0  0  0
   36.8368  -24.2427   41.4692 C   0  0  0  0  0  0  0  0  0  0  0  0
   37.7072  -23.4197   40.7773 C   0  0  0  0  0  0  0  0  0  0  0  0
   37.2672  -22.6318   39.7279 C   0  0  0  0  0  0  0  0  0  0  0  0
   35.9498  -22.6414   39.3372 C   0  0  0  0  0  0  0  0  0  0  0  0
   35.2689  -21.9699   38.3703 N   0  0  0  0  0  0  0  0  0  0  0  0
   33.9700  -22.4030   38.5033 C   0  0  0  0  0  0  0  0  0  0  0  0
   32.8844  -21.9961   37.7591 C   0  0  0  0  0  0  0  0  0  0  0  0
   35.5695  -18.5030   39.3716 H   0  0  0  0  0  0  0  0  0  0  0  0
   30.2526  -25.6631   41.2253 H   0  0  0  0  0  0  0  0  0  0  0  0
   36.7077  -18.6979   37.4014 C   0  0  0  0  0  0  0  0  0  0  0  0
   36.2227  -17.3897   37.3817 O   0  0  0  0  0  0  0  0  0  0  0  0
   36.1611  -17.0193   36.4648 H   0  0  0  0  0  0  0  0  0  0  0  0
  2  1  1  0  0  0
  2  3  1  0  0  0
  3  4  1  0  0  0
  4  5  1  0  0  0
  5  6  1  0  0  0
  6  7  1  0  0  0
  6 34  1  0  0  0
 34 35  1  0  0  0
  4  8  1  0  0  0
  8  9  1  0  0  0
  9 10  2  0  0  0
 10 11  1  0  0  0
 11 12  2  0  0  0
 12 13  1  0  0  0
 13 14  2  0  0  0
 14 15  1  0  0  0
 15 16  2  0  0  0
 16 17  1  0  0  0
 17 18  2  0  0  0
 17 19  1  0  0  0
 19 20  1  0  0  0
 20 21  1  0  0  0
 21 22  2  0  0  0
 22 23  1  0  0  0
 23 24  2  0  0  0
 24 25  1  0  0  0
 25 26  2  0  0  0
 26 27  1  0  0  0
 27 28  2  0  0  0
 28 29  1  0  0  0
 29 30  1  0  0  0
 30 31  2  0  0  0
  6  2  1  0  0  0
 31  8  1  0  0  0
 29  2  1  0  0  0
 14  9  1  0  0  0
 31 15  1  0  0  0
 21 16  1  0  0  0
 30 22  1  0  0  0
 28 23  1  0  0  0
  7 32  1  0  0  0
 35 36  1  0  0  0
 19 33  1  0  0  0
M  END
> <minimizedAffinity>
-4.41859

> <CNNscore>
0.4702917635

> <CNNaffinity>
4.6526031494

> <CNN_VS>
2.1880810261

> <CNNaffinity_variance>
0.1913258135

$$$$
[H]OC([H])([H])[C@@]1(O[H])C([H])([H])[C@@]2([H])O[C@]1(C([H])([H])[H])n1c3c([H])c([H])c([H])c([H])c3c3c4c(c5c6c([H])c([H])c([H])c([H])c6n2c5c31)C(=O)N([H])C4([H])[H]


 36 43  0  0  0  0  0  0  0  0999 V2000
   36.9920  -20.2377   34.4550 C   0  0  0  0  0  0  0  0  0  0  0  0
   36.6617  -19.1976   35.4701 C   0  0  0  0  0  0  0  0  0  0  0  0
   37.7430  -18.2954   35.2702 O   0  0  0  0  0  0  0  0  0  0  0  0
   38.0318  -17.6616   36.4300 C   0  0  0  0  0  0  0  0  0  0  0  0
   37.7514  -18.5974   37.5269 C   0  0  0  0  0  0  0  0  0  0  0  0
   36.8584  -19.6391   36.8902 C   0  0  0  0  0  0  0  0  0  0  0  0
   35.6815  -19.6549   37.6237 O   0  0  0  0  0  0  0  0  0  0  0  0
   37.3066  -16.3876   36.5198 N   0  0  0  0  0  0  0  0  0  0  0  0
   37.7132  -15.2265   37.0036 C   0  0  0  0  0  0  0  0  0  0  0  0
   38.9268  -14.9078   37.5556 C   0  0  0  0  0  0  0  0  0  0  0  0
   39.1279  -13.6070   38.0006 C   0  0  0  0  0  0  0  0  0  0  0  0
   38.1363  -12.6662   37.8898 C   0  0  0  0  0  0  0  0  0  0  0  0
   36.8958  -12.9888   37.3265 C   0  0  0  0  0  0  0  0  0  0  0  0
   36.7092  -14.2692   36.8927 C   0  0  0  0  0  0  0  0  0  0  0  0
   35.6447  -14.9147   36.3054 C   0  0  0  0  0  0  0  0  0  0  0  0
   34.3680  -14.5229   35.9461 C   0  0  0  0  0  0  0  0  0  0  0  0
   33.6231  -13.2786   36.0153 C   0  0  0  0  0  0  0  0  0  0  0  0
   33.9478  -12.1692   36.4417 O   0  0  0  0  0  0  0  0  0  0  0  0
   32.3244  -13.5259   35.4677 N   0  0  0  0  0  0  0  0  0  0  0  0
   32.2010  -14.9015   35.0505 C   0  0  0  0  0  0  0  0  0  0  0  0
   33.5331  -15.4666   35.3773 C   0  0  0  0  0  0  0  0  0  0  0  0
   33.9370  -16.7793   35.1594 C   0  0  0  0  0  0  0  0  0  0  0  0
   33.3508  -17.8967   34.6540 C   0  0  0  0  0  0  0  0  0  0  0  0
   32.0806  -18.0889   34.1615 C   0  0  0  0  0  0  0  0  0  0  0  0
   31.7123  -19.3608   33.7131 C   0  0  0  0  0  0  0  0  0  0  0  0
   32.6411  -20.3838   33.7814 C   0  0  0  0  0  0  0  0  0  0  0  0
   33.9130  -20.1650   34.2813 C   0  0  0  0  0  0  0  0  0  0  0  0
   34.2965  -18.9227   34.7261 C   0  0  0  0  0  0  0  0  0  0  0  0
   35.4536  -18.4514   35.2634 N   0  0  0  0  0  0  0  0  0  0  0  0
   35.1948  -17.1253   35.5226 C   0  0  0  0  0  0  0  0  0  0  0  0
   36.0552  -16.2131   36.0932 C   0  0  0  0  0  0  0  0  0  0  0  0
   35.7791  -20.3173   38.3495 H   0  0  0  0  0  0  0  0  0  0  0  0
   31.5382  -12.8286   35.3650 H   0  0  0  0  0  0  0  0  0  0  0  0
   37.5224  -20.9674   37.0253 C   0  0  0  0  0  0  0  0  0  0  0  0
   38.5632  -20.8463   37.9467 O   0  0  0  0  0  0  0  0  0  0  0  0
   39.4570  -20.9056   37.5229 H   0  0  0  0  0  0  0  0  0  0  0  0
  2  1  1  0  0  0
  2  3  1  0  0  0
  3  4  1  0  0  0
  4  5  1  0  0  0
  5  6  1  0  0  0
  6  7  1  0  0  0
  6 34  1  0  0  0
 34 35  1  0  0  0
  4  8  1  0  0  0
  8  9  1  0  0  0
  9 10  2  0  0  0
 10 11  1  0  0  0
 11 12  2  0  0  0
 12 13  1  0  0  0
 13 14  2  0  0  0
 14 15  1  0  0  0
 15 16  2  0  0  0
 16 17  1  0  0  0
 17 18  2  0  0  0
 17 19  1  0  0  0
 19 20  1  0  0  0
 20 21  1  0  0  0
 21 22  2  0  0  0
 22 23  1  0  0  0
 23 24  2  0  0  0
 24 25  1  0  0  0
 25 26  2  0  0  0
 26 27  1  0  0  0
 27 28  2  0  0  0
 28 29  1  0  0  0
 29 30  1  0  0  0
 30 31  2  0  0  0
  6  2  1  0  0  0
 31  8  1  0  0  0
 29  2  1  0  0  0
 14  9  1  0  0  0
 31 15  1  0  0  0
 21 16  1  0  0  0
 30 22  1  0  0  0
 28 23  1  0  0  0
  7 32  1  0  0  0
 35 36  1  0  0  0
 19 33  1  0  0  0
M  END
> <minimizedAffinity>
2.43783

> <CNNscore>
0.4258829355

> <CNNaffinity>
5.2684025764

> <CNN_VS>
2.2437226772

> <CNNaffinity_variance>
0.3669317663

$$$$
[H]OC([H])([H])[C@@]1(O[H])C([H])([H])[C@@]2([H])O[C@]1(C([H])([H])[H])n1c3c([H])c([H])c([H])c([H])c3c3c4c(c5c6c([H])c([H])c([H])c([H])c6n2c5c31)C(=O)N([H])C4([H])[H]


 36 43  0  0  0  0  0  0  0  0999 V2000
   34.8870  -12.2894   35.5755 C   0  0  0  0  0  0  0  0  0  0  0  0
   34.5958  -13.6246   36.1702 C   0  0  0  0  0  0  0  0  0  0  0  0
   33.9505  -14.2566   35.0714 O   0  0  0  0  0  0  0  0  0  0  0  0
   33.0546  -15.1630   35.5252 C   0  0  0  0  0  0  0  0  0  0  0  0
   32.5152  -14.6549   36.7934 C   0  0  0  0  0  0  0  0  0  0  0  0
   33.5234  -13.6107   37.2191 C   0  0  0  0  0  0  0  0  0  0  0  0
   33.9819  -13.9891   38.4720 O   0  0  0  0  0  0  0  0  0  0  0  0
   33.6654  -16.4956   35.6168 N   0  0  0  0  0  0  0  0  0  0  0  0
   33.1407  -17.6766   35.3387 C   0  0  0  0  0  0  0  0  0  0  0  0
   31.8778  -17.9676   34.8922 C   0  0  0  0  0  0  0  0  0  0  0  0
   31.5483  -19.2984   34.6660 C   0  0  0  0  0  0  0  0  0  0  0  0
   32.4647  -20.2950   34.8842 C   0  0  0  0  0  0  0  0  0  0  0  0
   33.7554  -20.0007   35.3401 C   0  0  0  0  0  0  0  0  0  0  0  0
   34.0681  -18.6905   35.5590 C   0  0  0  0  0  0  0  0  0  0  0  0
   35.2107  -18.0594   35.9957 C   0  0  0  0  0  0  0  0  0  0  0  0
   36.4598  -18.5051   36.3878 C   0  0  0  0  0  0  0  0  0  0  0  0
   37.0963  -19.8062   36.4862 C   0  0  0  0  0  0  0  0  0  0  0  0
   36.6670  -20.9331   36.2337 O   0  0  0  0  0  0  0  0  0  0  0  0
   38.4286  -19.5961   36.9646 N   0  0  0  0  0  0  0  0  0  0  0  0
   38.6741  -18.1920   37.1879 C   0  0  0  0  0  0  0  0  0  0  0  0
   37.3883  -17.5652   36.7951 C   0  0  0  0  0  0  0  0  0  0  0  0
   37.1043  -16.2042   36.8198 C   0  0  0  0  0  0  0  0  0  0  0  0
   37.7858  -15.0838   37.1776 C   0  0  0  0  0  0  0  0  0  0  0  0
   39.0659  -14.9382   37.6603 C   0  0  0  0  0  0  0  0  0  0  0  0
   39.5298  -13.6579   37.9767 C   0  0  0  0  0  0  0  0  0  0  0  0
   38.6823  -12.5802   37.7930 C   0  0  0  0  0  0  0  0  0  0  0  0
   37.3983  -12.7528   37.3059 C   0  0  0  0  0  0  0  0  0  0  0  0
   36.9223  -14.0019   36.9873 C   0  0  0  0  0  0  0  0  0  0  0  0
   35.7248  -14.4404   36.5149 N   0  0  0  0  0  0  0  0  0  0  0  0
   35.8712  -15.8055   36.4270 C   0  0  0  0  0  0  0  0  0  0  0  0
   34.9192  -16.7125   36.0158 C   0  0  0  0  0  0  0  0  0  0  0  0
   33.4012  -13.5710   39.1524 H   0  0  0  0  0  0  0  0  0  0  0  0
   39.1604  -20.3360   37.1428 H   0  0  0  0  0  0  0  0  0  0  0  0
   32.8159  -12.3041   37.3449 C   0  0  0  0  0  0  0  0  0  0  0  0
   31.6942  -12.3305   36.5155 O   0  0  0  0  0  0  0  0  0  0  0  0
   31.7865  -11.7342   35.7295 H   0  0  0  0  0  0  0  0  0  0  0  0
  2  1  1  0  0  0
  2  3  1  0  0  0
  3  4  1  0  0  0
  4  5  1  0  0  0
  5  6  1  0  0  0
  6  7  1  0  0  0
  6 34  1  0  0  0
 34 35  1  0  0  0
  4  8  1  0  0  0
  8  9  1  0  0  0
  9 10  2  0  0  0
 10 11  1  0  0  0
 11 12  2  0  0  0
 12 13  1  0  0  0
 13 14  2  0  0  0
 14 15  1  0  0  0
 15 16  2  0  0  0
 16 17  1  0  0  0
 17 18  2  0  0  0
 17 19  1  0  0  0
 19 20  1  0  0  0
 20 21  1  0  0  0
 21 22  2  0  0  0
 22 23  1  0  0  0
 23 24  2  0  0  0
 24 25  1  0  0  0
 25 26  2  0  0  0
 26 27  1  0  0  0
 27 28  2  0  0  0
 28 29  1  0  0  0
 29 30  1  0  0  0
 30 31  2  0  0  0
  6  2  1  0  0  0
 31  8  1  0  0  0
 29  2  1  0  0  0
 14  9  1  0  0  0
 31 15  1  0  0  0
 21 16  1  0  0  0
 30 22  1  0  0  0
 28 23  1  0  0  0
  7 32  1  0  0  0
 35 36  1  0  0  0
 19 33  1  0  0  0
M  END
> <minimizedAffinity>
4.11246

> <CNNscore>
0.4218677878

> <CNNaffinity>
5.5063371658

> <CNN_VS>
2.3229463100

> <CNNaffinity_variance>
0.1401888728

$$$$
[H]OC([H])([H])[C@@]1(O[H])C([H])([H])[C@@]2([H])O[C@]1(C([H])([H])[H])n1c3c([H])c([H])c([H])c([H])c3c3c4c(c5c6c([H])c([H])c([H])c([H])c6n2c5c31)C(=O)N([H])C4([H])[H]


 36 43  0  0  0  0  0  0  0  0999 V2000
   30.5730  -19.3064   35.5455 C   0  0  0  0  0  0  0  0  0  0  0  0
   31.7001  -20.2619   35.7400 C   0  0  0  0  0  0  0  0  0  0  0  0
   32.5225  -19.5083   36.6224 O   0  0  0  0  0  0  0  0  0  0  0  0
   33.8209  -19.8374   36.4327 C   0  0  0  0  0  0  0  0  0  0  0  0
   33.9893  -20.1714   35.0122 C   0  0  0  0  0  0  0  0  0  0  0  0
   32.5777  -20.4320   34.5353 C   0  0  0  0  0  0  0  0  0  0  0  0
   32.5621  -21.7225   34.0276 O   0  0  0  0  0  0  0  0  0  0  0  0
   34.2268  -20.9032   37.3582 N   0  0  0  0  0  0  0  0  0  0  0  0
   35.3704  -21.0603   38.0023 C   0  0  0  0  0  0  0  0  0  0  0  0
   36.4861  -20.2645   37.9707 C   0  0  0  0  0  0  0  0  0  0  0  0
   37.5821  -20.6342   38.7406 C   0  0  0  0  0  0  0  0  0  0  0  0
   37.5474  -21.7672   39.5125 C   0  0  0  0  0  0  0  0  0  0  0  0
   36.4093  -22.5818   39.5467 C   0  0  0  0  0  0  0  0  0  0  0  0
   35.3387  -22.2093   38.7868 C   0  0  0  0  0  0  0  0  0  0  0  0
   34.0933  -22.7605   38.5870 C   0  0  0  0  0  0  0  0  0  0  0  0
   33.4615  -23.8951   39.0624 C   0  0  0  0  0  0  0  0  0  0  0  0
   33.8280  -24.9622   39.9760 C   0  0  0  0  0  0  0  0  0  0  0  0
   34.8660  -25.1571   40.6106 O   0  0  0  0  0  0  0  0  0  0  0  0
   32.7143  -25.8571   40.0580 N   0  0  0  0  0  0  0  0  0  0  0  0
   31.6343  -25.4048   39.2151 C   0  0  0  0  0  0  0  0  0  0  0  0
   32.1766  -24.1568   38.6243 C   0  0  0  0  0  0  0  0  0  0  0  0
   31.5124  -23.3219   37.7325 C   0  0  0  0  0  0  0  0  0  0  0  0
   30.2946  -23.3307   37.1286 C   0  0  0  0  0  0  0  0  0  0  0  0
   29.2626  -24.2357   37.2220 C   0  0  0  0  0  0  0  0  0  0  0  0
   28.1035  -24.0224   36.4700 C   0  0  0  0  0  0  0  0  0  0  0  0
   28.0358  -22.9059   35.6562 C   0  0  0  0  0  0  0  0  0  0  0  0
   29.0880  -22.0100   35.5794 C   0  0  0  0  0  0  0  0  0  0  0  0
   30.2359  -22.1994   36.3107 C   0  0  0  0  0  0  0  0  0  0  0  0
   31.3957  -21.4956   36.4067 N   0  0  0  0  0  0  0  0  0  0  0  0
   32.1626  -22.2194   37.2902 C   0  0  0  0  0  0  0  0  0  0  0  0
   33.4437  -21.9259   37.7032 C   0  0  0  0  0  0  0  0  0  0  0  0
   32.7793  -21.6782   33.0654 H   0  0  0  0  0  0  0  0  0  0  0  0
   32.6506  -26.7355   40.6404 H   0  0  0  0  0  0  0  0  0  0  0  0
   32.2771  -19.4801   33.4275 C   0  0  0  0  0  0  0  0  0  0  0  0
   32.9964  -18.3055   33.6506 O   0  0  0  0  0  0  0  0  0  0  0  0
   32.4152  -17.5449   33.9067 H   0  0  0  0  0  0  0  0  0  0  0  0
  2  1  1  0  0  0
  2  3  1  0  0  0
  3  4  1  0  0  0
  4  5  1  0  0  0
  5  6  1  0  0  0
  6  7  1  0  0  0
  6 34  1  0  0  0
 34 35  1  0  0  0
  4  8  1  0  0  0
  8  9  1  0  0  0
  9 10  2  0  0  0
 10 11  1  0  0  0
 11 12  2  0  0  0
 12 13  1  0  0  0
 13 14  2  0  0  0
 14 15  1  0  0  0
 15 16  2  0  0  0
 16 17  1  0  0  0
 17 18  2  0  0  0
 17 19  1  0  0  0
 19 20  1  0  0  0
 20 21  1  0  0  0
 21 22  2  0  0  0
 22 23  1  0  0  0
 23 24  2  0  0  0
 24 25  1  0  0  0
 25 26  2  0  0  0
 26 27  1  0  0  0
 27 28  2  0  0  0
 28 29  1  0  0  0
 29 30  1  0  0  0
 30 31  2  0  0  0
  6  2  1  0  0  0
 31  8  1  0  0  0
 29  2  1  0  0  0
 14  9  1  0  0  0
 31 15  1  0  0  0
 21 16  1  0  0  0
 30 22  1  0  0  0
 28 23  1  0  0  0
  7 32  1  0  0  0
 35 36  1  0  0  0
 19 33  1  0  0  0
M  END
> <minimizedAffinity>
-5.45711

> <CNNscore>
0.4024246335

> <CNNaffinity>
4.6571936607

> <CNN_VS>
1.8741694689

> <CNNaffinity_variance>
0.5176367760

$$$$
[H]OC([H])([H])[C@@]1(O[H])C([H])([H])[C@@]2([H])O[C@]1(C([H])([H])[H])n1c3c([H])c([H])c([H])c([H])c3c3c4c(c5c6c([H])c([H])c([H])c([H])c6n2c5c31)C(=O)N([H])C4([H])[H]


 36 43  0  0  0  0  0  0  0  0999 V2000
   41.4564  -21.2852   33.6044 C   0  0  0  0  0  0  0  0  0  0  0  0
   40.6818  -20.6048   34.6807 C   0  0  0  0  0  0  0  0  0  0  0  0
   39.3717  -21.0735   34.3856 O   0  0  0  0  0  0  0  0  0  0  0  0
   38.4584  -20.1490   34.7615 C   0  0  0  0  0  0  0  0  0  0  0  0
   39.0689  -18.8253   34.5803 C   0  0  0  0  0  0  0  0  0  0  0  0
   40.5500  -19.1214   34.5004 C   0  0  0  0  0  0  0  0  0  0  0  0
   41.1556  -18.3936   35.5138 O   0  0  0  0  0  0  0  0  0  0  0  0
   37.9814  -20.4150   36.1249 N   0  0  0  0  0  0  0  0  0  0  0  0
   36.7634  -20.2911   36.6235 C   0  0  0  0  0  0  0  0  0  0  0  0
   35.6196  -19.8747   35.9932 C   0  0  0  0  0  0  0  0  0  0  0  0
   34.4419  -19.8243   36.7289 C   0  0  0  0  0  0  0  0  0  0  0  0
   34.4256  -20.1825   38.0526 C   0  0  0  0  0  0  0  0  0  0  0  0
   35.5923  -20.6081   38.6989 C   0  0  0  0  0  0  0  0  0  0  0  0
   36.7431  -20.6538   37.9669 C   0  0  0  0  0  0  0  0  0  0  0  0
   38.0360  -21.0130   38.2735 C   0  0  0  0  0  0  0  0  0  0  0  0
   38.6602  -21.4471   39.4288 C   0  0  0  0  0  0  0  0  0  0  0  0
   38.2222  -21.7240   40.7850 C   0  0  0  0  0  0  0  0  0  0  0  0
   37.1080  -21.6388   41.3039 O   0  0  0  0  0  0  0  0  0  0  0  0
   39.3684  -22.1551   41.5255 N   0  0  0  0  0  0  0  0  0  0  0  0
   40.5437  -22.1587   40.6886 C   0  0  0  0  0  0  0  0  0  0  0  0
   40.0170  -21.7072   39.3774 C   0  0  0  0  0  0  0  0  0  0  0  0
   40.7595  -21.5472   38.2126 C   0  0  0  0  0  0  0  0  0  0  0  0
   42.0670  -21.7012   37.8744 C   0  0  0  0  0  0  0  0  0  0  0  0
   43.1420  -22.0958   38.6371 C   0  0  0  0  0  0  0  0  0  0  0  0
   44.4076  -22.1547   38.0461 C   0  0  0  0  0  0  0  0  0  0  0  0
   44.5341  -21.8127   36.7117 C   0  0  0  0  0  0  0  0  0  0  0  0
   43.4370  -21.4186   35.9656 C   0  0  0  0  0  0  0  0  0  0  0  0
   42.1838  -21.3549   36.5258 C   0  0  0  0  0  0  0  0  0  0  0  0
   40.9690  -20.9954   36.0313 N   0  0  0  0  0  0  0  0  0  0  0  0
   40.1134  -21.1222   37.1010 C   0  0  0  0  0  0  0  0  0  0  0  0
   38.7626  -20.8517   37.1135 C   0  0  0  0  0  0  0  0  0  0  0  0
   41.4076  -17.5104   35.1512 H   0  0  0  0  0  0  0  0  0  0  0  0
   39.3941  -22.4393   42.5420 H   0  0  0  0  0  0  0  0  0  0  0  0
   41.0546  -18.6233   33.1886 C   0  0  0  0  0  0  0  0  0  0  0  0
   40.3252  -17.4858   32.8408 O   0  0  0  0  0  0  0  0  0  0  0  0
   39.7138  -17.6432   32.0771 H   0  0  0  0  0  0  0  0  0  0  0  0
  2  1  1  0  0  0
  2  3  1  0  0  0
  3  4  1  0  0  0
  4  5  1  0  0  0
  5  6  1  0  0  0
  6  7  1  0  0  0
  6 34  1  0  0  0
 34 35  1  0  0  0
  4  8  1  0  0  0
  8  9  1  0  0  0
  9 10  2  0  0  0
 10 11  1  0  0  0
 11 12  2  0  0  0
 12 13  1  0  0  0
 13 14  2  0  0  0
 14 15  1  0  0  0
 15 16  2  0  0  0
 16 17  1  0  0  0
 17 18  2  0  0  0
 17 19  1  0  0  0
 19 20  1  0  0  0
 20 21  1  0  0  0
 21 22  2  0  0  0
 22 23  1  0  0  0
 23 24  2  0  0  0
 24 25  1  0  0  0
 25 26  2  0  0  0
 26 27  1  0  0  0
 27 28  2  0  0  0
 28 29  1  0  0  0
 29 30  1  0  0  0
 30 31  2  0  0  0
  6  2  1  0  0  0
 31  8  1  0  0  0
 29  2  1  0  0  0
 14  9  1  0  0  0
 31 15  1  0  0  0
 21 16  1  0  0  0
 30 22  1  0  0  0
 28 23  1  0  0  0
  7 32  1  0  0  0
 35 36  1  0  0  0
 19 33  1  0  0  0
M  END
> <minimizedAffinity>
-5.76259

> <CNNscore>
0.3963257670

> <CNNaffinity>
4.8879919052

> <CNN_VS>
1.9372371435

> <CNNaffinity_variance>
0.1395575255

$$$$
[H]OC([H])([H])[C@@]1(O[H])C([H])([H])[C@@]2([H])O[C@]1(C([H])([H])[H])n1c3c([H])c([H])c([H])c([H])c3c3c4c(c5c6c([H])c([H])c([H])c([H])c6n2c5c31)C(=O)N([H])C4([H])[H]


 36 43  0  0  0  0  0  0  0  0999 V2000
   39.9020  -18.3867   33.9056 C   0  0  0  0  0  0  0  0  0  0  0  0
   39.7312  -19.5763   34.7870 C   0  0  0  0  0  0  0  0  0  0  0  0
   40.7557  -19.3331   35.7431 O   0  0  0  0  0  0  0  0  0  0  0  0
   41.2236  -20.5082   36.2230 C   0  0  0  0  0  0  0  0  0  0  0  0
   41.1363  -21.4949   35.1384 C   0  0  0  0  0  0  0  0  0  0  0  0
   40.1621  -20.8711   34.1638 C   0  0  0  0  0  0  0  0  0  0  0  0
   39.1213  -21.7746   34.0098 O   0  0  0  0  0  0  0  0  0  0  0  0
   40.5096  -20.8896   37.4485 N   0  0  0  0  0  0  0  0  0  0  0  0
   40.9776  -21.4586   38.5460 C   0  0  0  0  0  0  0  0  0  0  0  0
   42.2617  -21.8476   38.8268 C   0  0  0  0  0  0  0  0  0  0  0  0
   42.5192  -22.4312   40.0612 C   0  0  0  0  0  0  0  0  0  0  0  0
   41.5131  -22.6130   40.9751 C   0  0  0  0  0  0  0  0  0  0  0  0
   40.2006  -22.2167   40.6911 C   0  0  0  0  0  0  0  0  0  0  0  0
   39.9590  -21.6446   39.4758 C   0  0  0  0  0  0  0  0  0  0  0  0
   38.8197  -21.1518   38.8812 C   0  0  0  0  0  0  0  0  0  0  0  0
   37.4973  -21.0601   39.2758 C   0  0  0  0  0  0  0  0  0  0  0  0
   36.7608  -21.4204   40.4739 C   0  0  0  0  0  0  0  0  0  0  0  0
   37.1391  -21.9394   41.5254 O   0  0  0  0  0  0  0  0  0  0  0  0
   35.3927  -21.0593   40.2603 N   0  0  0  0  0  0  0  0  0  0  0  0
   35.2172  -20.4800   38.9507 C   0  0  0  0  0  0  0  0  0  0  0  0
   36.5906  -20.5070   38.3908 C   0  0  0  0  0  0  0  0  0  0  0  0
   36.9671  -20.0466   37.1339 C   0  0  0  0  0  0  0  0  0  0  0  0
   36.3180  -19.4913   36.0765 C   0  0  0  0  0  0  0  0  0  0  0  0
   34.9864  -19.1872   35.9111 C   0  0  0  0  0  0  0  0  0  0  0  0
   34.5631  -18.6311   34.7002 C   0  0  0  0  0  0  0  0  0  0  0  0
   35.5012  -18.4065   33.7087 C   0  0  0  0  0  0  0  0  0  0  0  0
   36.8355  -18.7213   33.8995 C   0  0  0  0  0  0  0  0  0  0  0  0
   37.2735  -19.2673   35.0821 C   0  0  0  0  0  0  0  0  0  0  0  0
   38.4978  -19.6721   35.5141 N   0  0  0  0  0  0  0  0  0  0  0  0
   38.2710  -20.1514   36.7835 C   0  0  0  0  0  0  0  0  0  0  0  0
   39.2035  -20.6979   37.6378 C   0  0  0  0  0  0  0  0  0  0  0  0
   39.3432  -22.3759   33.2587 H   0  0  0  0  0  0  0  0  0  0  0  0
   34.5930  -21.1822   40.9388 H   0  0  0  0  0  0  0  0  0  0  0  0
   40.8532  -20.7117   32.8521 C   0  0  0  0  0  0  0  0  0  0  0  0
   42.0027  -21.5025   32.8625 O   0  0  0  0  0  0  0  0  0  0  0  0
   42.8349  -20.9657   32.8973 H   0  0  0  0  0  0  0  0  0  0  0  0
  2  1  1  0  0  0
  2  3  1  0  0  0
  3  4  1  0  0  0
  4  5  1  0  0  0
  5  6  1  0  0  0
  6  7  1  0  0  0
  6 34  1  0  0  0
 34 35  1  0  0  0
  4  8  1  0  0  0
  8  9  1  0  0  0
  9 10  2  0  0  0
 10 11  1  0  0  0
 11 12  2  0  0  0
 12 13  1  0  0  0
 13 14  2  0  0  0
 14 15  1  0  0  0
 15 16  2  0  0  0
 16 17  1  0  0  0
 17 18  2  0  0  0
 17 19  1  0  0  0
 19 20  1  0  0  0
 20 21  1  0  0  0
 21 22  2  0  0  0
 22 23  1  0  0  0
 23 24  2  0  0  0
 24 25  1  0  0  0
 25 26  2  0  0  0
 26 27  1  0  0  0
 27 28  2  0  0  0
 28 29  1  0  0  0
 29 30  1  0  0  0
 30 31  2  0  0  0
  6  2  1  0  0  0
 31  8  1  0  0  0
 29  2  1  0  0  0
 14  9  1  0  0  0
 31 15  1  0  0  0
 21 16  1  0  0  0
 30 22  1  0  0  0
 28 23  1  0  0  0
  7 32  1  0  0  0
 35 36  1  0  0  0
 19 33  1  0  0  0
M  END
> <minimizedAffinity>
-6.41346

> <CNNscore>
0.3938021660

> <CNNaffinity>
4.8714742661

> <CNN_VS>
1.9183970690

> <CNNaffinity_variance>
0.3315862715

$$$$
[H]OC([H])([H])[C@@]1(O[H])C([H])([H])[C@@]2([H])O[C@]1(C([H])([H])[H])n1c3c([H])c([H])c([H])c([H])c3c3c4c(c5c6c([H])c([H])c([H])c([H])c6n2c5c31)C(=O)N([H])C4([H])[H]


 36 43  0  0  0  0  0  0  0  0999 V2000
   34.6526  -10.9907   34.9026 C   0  0  0  0  0  0  0  0  0  0  0  0
   33.9337  -10.8935   36.2045 C   0  0  0  0  0  0  0  0  0  0  0  0
   32.8117  -10.1099   35.8170 O   0  0  0  0  0  0  0  0  0  0  0  0
   32.3877   -9.3664   36.8646 C   0  0  0  0  0  0  0  0  0  0  0  0
   33.5676   -9.0231   37.6694 C   0  0  0  0  0  0  0  0  0  0  0  0
   34.6117  -10.0203   37.2185 C   0  0  0  0  0  0  0  0  0  0  0  0
   35.0150  -10.7122   38.3506 O   0  0  0  0  0  0  0  0  0  0  0  0
   31.3318  -10.0685   37.6058 N   0  0  0  0  0  0  0  0  0  0  0  0
   30.2390   -9.5809   38.1675 C   0  0  0  0  0  0  0  0  0  0  0  0
   29.8053   -8.2812   38.2081 C   0  0  0  0  0  0  0  0  0  0  0  0
   28.6119   -8.0041   38.8635 C   0  0  0  0  0  0  0  0  0  0  0  0
   27.8868   -9.0067   39.4547 C   0  0  0  0  0  0  0  0  0  0  0  0
   28.3274  -10.3351   39.4149 C   0  0  0  0  0  0  0  0  0  0  0  0
   29.5007  -10.5959   38.7686 C   0  0  0  0  0  0  0  0  0  0  0  0
   30.2100  -11.7537   38.5433 C   0  0  0  0  0  0  0  0  0  0  0  0
   30.0162  -13.0779   38.8919 C   0  0  0  0  0  0  0  0  0  0  0  0
   28.9884  -13.8044   39.6156 C   0  0  0  0  0  0  0  0  0  0  0  0
   27.9496  -13.4115   40.1490 O   0  0  0  0  0  0  0  0  0  0  0  0
   29.3718  -15.1830   39.6351 N   0  0  0  0  0  0  0  0  0  0  0  0
   30.6271  -15.3724   38.9495 C   0  0  0  0  0  0  0  0  0  0  0  0
   30.9690  -14.0003   38.5013 C   0  0  0  0  0  0  0  0  0  0  0  0
   32.0997  -13.6377   37.7776 C   0  0  0  0  0  0  0  0  0  0  0  0
   33.1822  -14.2971   37.2866 C   0  0  0  0  0  0  0  0  0  0  0  0
   33.5185  -15.6294   37.3565 C   0  0  0  0  0  0  0  0  0  0  0  0
   34.7171  -16.0575   36.7781 C   0  0  0  0  0  0  0  0  0  0  0  0
   35.5246  -15.1233   36.1546 C   0  0  0  0  0  0  0  0  0  0  0  0
   35.1640  -13.7882   36.0977 C   0  0  0  0  0  0  0  0  0  0  0  0
   33.9899  -13.3458   36.6583 C   0  0  0  0  0  0  0  0  0  0  0  0
   33.4184  -12.1154   36.7526 N   0  0  0  0  0  0  0  0  0  0  0  0
   32.2543  -12.3321   37.4531 C   0  0  0  0  0  0  0  0  0  0  0  0
   31.3270  -11.3838   37.8256 C   0  0  0  0  0  0  0  0  0  0  0  0
   35.7803  -10.2323   38.7494 H   0  0  0  0  0  0  0  0  0  0  0  0
   28.8404  -15.9808   40.0777 H   0  0  0  0  0  0  0  0  0  0  0  0
   35.7785   -9.2624   36.6819 C   0  0  0  0  0  0  0  0  0  0  0  0
   35.4082   -7.9240   36.5467 O   0  0  0  0  0  0  0  0  0  0  0  0
   35.3195   -7.6463   35.5997 H   0  0  0  0  0  0  0  0  0  0  0  0
  2  1  1  0  0  0
  2  3  1  0  0  0
  3  4  1  0  0  0
  4  5  1  0  0  0
  5  6  1  0  0  0
  6  7  1  0  0  0
  6 34  1  0  0  0
 34 35  1  0  0  0
  4  8  1  0  0  0
  8  9  1  0  0  0
  9 10  2  0  0  0
 10 11  1  0  0  0
 11 12  2  0  0  0
 12 13  1  0  0  0
 13 14  2  0  0  0
 14 15  1  0  0  0
 15 16  2  0  0  0
 16 17  1  0  0  0
 17 18  2  0  0  0
 17 19  1  0  0  0
 19 20  1  0  0  0
 20 21  1  0  0  0
 21 22  2  0  0  0
 22 23  1  0  0  0
 23 24  2  0  0  0
 24 25  1  0  0  0
 25 26  2  0  0  0
 26 27  1  0  0  0
 27 28  2  0  0  0
 28 29  1  0  0  0
 29 30  1  0  0  0
 30 31  2  0  0  0
  6  2  1  0  0  0
 31  8  1  0  0  0
 29  2  1  0  0  0
 14  9  1  0  0  0
 31 15  1  0  0  0
 21 16  1  0  0  0
 30 22  1  0  0  0
 28 23  1  0  0  0
  7 32  1  0  0  0
 35 36  1  0  0  0
 19 33  1  0  0  0
M  END
> <minimizedAffinity>
22.99475

> <CNNscore>
0.3818517923

> <CNNaffinity>
5.8708062172

> <CNN_VS>
2.2417778969

> <CNNaffinity_variance>
0.3232588172

$$$$
[H]N=C(N([H])[H])N([H])C([H])([H])C([H])([H])C([H])([H])[C@@]([H])(C(=O)N([H])[C@]([H])(C(=O)O[H])C([H])([H])c1c([H])c([H])c([H])c([H])c1[H])N([H])C(=O)[C@@]1([H])N([H])C([H])([H])c2c([H])c([H])c([H])c([H])c2C1([H])[H]


 43 45  0  0  0  0  0  0  0  0999 V2000
   36.9866  -19.4741   36.8163 C   0  0  0  0  0  0  0  0  0  0  0  0
   36.9996  -18.1096   37.2602 N   0  0  0  0  0  0  0  0  0  0  0  0
   36.7731  -16.9637   36.4532 C   0  0  0  0  0  0  0  0  0  0  0  0
   36.5269  -17.0399   35.2180 O   0  0  0  0  0  0  0  0  0  0  0  0
   37.1953  -17.9320   38.2865 H   0  0  0  0  0  0  0  0  0  0  0  0
   36.8196  -15.5954   37.0456 C   0  0  0  0  0  0  0  0  0  0  0  0
   35.5474  -15.3689   37.7887 C   0  0  0  0  0  0  0  0  0  0  0  0
   34.9059  -14.0551   37.5281 C   0  0  0  0  0  0  0  0  0  0  0  0
   33.5574  -13.8597   37.8167 C   0  0  0  0  0  0  0  0  0  0  0  0
   33.0157  -12.6303   37.5690 C   0  0  0  0  0  0  0  0  0  0  0  0
   33.7322  -11.5704   37.0487 C   0  0  0  0  0  0  0  0  0  0  0  0
   35.0725  -11.7903   36.7697 C   0  0  0  0  0  0  0  0  0  0  0  0
   35.6430  -13.0153   37.0076 C   0  0  0  0  0  0  0  0  0  0  0  0
   37.0875  -13.2803   36.7023 C   0  0  0  0  0  0  0  0  0  0  0  0
   37.0913  -14.5967   36.0549 N   0  0  0  0  0  0  0  0  0  0  0  0
   36.4648  -14.6198   35.2291 H   0  0  0  0  0  0  0  0  0  0  0  0
   35.8524  -20.1904   37.4331 C   0  0  0  0  0  0  0  0  0  0  0  0
   35.5751  -19.8542   38.6397 O   0  0  0  0  0  0  0  0  0  0  0  0
   35.1204  -21.1762   36.7648 N   0  0  0  0  0  0  0  0  0  0  0  0
   35.3092  -21.4881   35.8008 H   0  0  0  0  0  0  0  0  0  0  0  0
   33.9892  -21.8737   37.4172 C   0  0  0  0  0  0  0  0  0  0  0  0
   34.1712  -23.3365   37.2444 C   0  0  0  0  0  0  0  0  0  0  0  0
   33.2034  -24.2857   37.5570 O   0  0  0  0  0  0  0  0  0  0  0  0
   35.2506  -23.8127   36.7939 O   0  0  0  0  0  0  0  0  0  0  0  0
   33.4017  -25.2121   37.8515 H   0  0  0  0  0  0  0  0  0  0  0  0
   32.7008  -21.3301   36.8700 C   0  0  0  0  0  0  0  0  0  0  0  0
   32.8688  -20.2830   35.8662 C   0  0  0  0  0  0  0  0  0  0  0  0
   32.8837  -20.5807   34.4920 C   0  0  0  0  0  0  0  0  0  0  0  0
   33.0034  -19.6008   33.5285 C   0  0  0  0  0  0  0  0  0  0  0  0
   33.1113  -18.2930   33.9432 C   0  0  0  0  0  0  0  0  0  0  0  0
   33.0983  -17.9827   35.3047 C   0  0  0  0  0  0  0  0  0  0  0  0
   32.9787  -18.9660   36.2549 C   0  0  0  0  0  0  0  0  0  0  0  0
   38.2667  -20.2199   37.0478 C   0  0  0  0  0  0  0  0  0  0  0  0
   38.5909  -21.1368   35.8736 C   0  0  0  0  0  0  0  0  0  0  0  0
   38.3380  -20.4215   34.5738 C   0  0  0  0  0  0  0  0  0  0  0  0
   39.5802  -19.8392   34.1071 N   0  0  0  0  0  0  0  0  0  0  0  0
   40.4808  -20.2887   34.2880 H   0  0  0  0  0  0  0  0  0  0  0  0
   40.7315  -17.9195   33.2089 N   0  0  0  0  0  0  0  0  0  0  0  0
   39.5063  -18.6127   33.3792 C   0  0  0  0  0  0  0  0  0  0  0  0
   38.4061  -18.1465   32.8986 N   0  0  0  0  0  0  0  0  0  0  0  0
   40.7258  -16.8814   33.2226 H   0  0  0  0  0  0  0  0  0  0  0  0
   41.6496  -18.4155   33.0656 H   0  0  0  0  0  0  0  0  0  0  0  0
   37.5002  -18.6580   33.0247 H   0  0  0  0  0  0  0  0  0  0  0  0
 38 39  1  0  0  0
 39 40  2  0  0  0
 39 36  1  0  0  0
 36 35  1  0  0  0
 35 34  1  0  0  0
 34 33  1  0  0  0
 33  1  1  0  0  0
  1  2  1  0  0  0
  2  3  1  0  0  0
  3  4  2  0  0  0
  3  6  1  0  0  0
  6  7  1  0  0  0
  7  8  1  0  0  0
  8  9  2  0  0  0
  9 10  1  0  0  0
 10 11  2  0  0  0
 11 12  1  0  0  0
 12 13  2  0  0  0
 13 14  1  0  0  0
 14 15  1  0  0  0
  1 17  1  0  0  0
 17 18  2  0  0  0
 17 19  1  0  0  0
 19 21  1  0  0  0
 21 26  1  0  0  0
 26 27  1  0  0  0
 27 28  2  0  0  0
 28 29  1  0  0  0
 29 30  2  0  0  0
 30 31  1  0  0  0
 31 32  2  0  0  0
 21 22  1  0  0  0
 22 23  1  0  0  0
 22 24  2  0  0  0
 15  6  1  0  0  0
 32 27  1  0  0  0
 13  8  1  0  0  0
 38 41  1  0  0  0
 38 42  1  0  0  0
 40 43  1  0  0  0
 36 37  1  0  0  0
  2  5  1  0  0  0
 15 16  1  0  0  0
 19 20  1  0  0  0
 23 25  1  0  0  0
M  END
> <minimizedAffinity>
-6.38687

> <CNNscore>
0.5764371753

> <CNNaffinity>
5.9227027893

> <CNN_VS>
3.4140660763

> <CNNaffinity_variance>
0.2018966675

$$$$
[H]N=C(N([H])[H])N([H])C([H])([H])C([H])([H])C([H])([H])[C@@]([H])(C(=O)N([H])[C@]([H])(C(=O)O[H])C([H])([H])c1c([H])c([H])c([H])c([H])c1[H])N([H])C(=O)[C@@]1([H])N([H])C([H])([H])c2c([H])c([H])c([H])c([H])c2C1([H])[H]


 43 45  0  0  0  0  0  0  0  0999 V2000
   36.8653  -18.6998   35.1279 C   0  0  0  0  0  0  0  0  0  0  0  0
   36.9944  -17.3692   35.6494 N   0  0  0  0  0  0  0  0  0  0  0  0
   36.5946  -16.9325   36.9397 C   0  0  0  0  0  0  0  0  0  0  0  0
   36.0675  -17.7057   37.7862 O   0  0  0  0  0  0  0  0  0  0  0  0
   37.4291  -16.6374   35.0179 H   0  0  0  0  0  0  0  0  0  0  0  0
   36.7844  -15.5121   37.3543 C   0  0  0  0  0  0  0  0  0  0  0  0
   35.5422  -15.0606   38.0436 C   0  0  0  0  0  0  0  0  0  0  0  0
   35.0435  -13.7311   37.6087 C   0  0  0  0  0  0  0  0  0  0  0  0
   33.7227  -13.3604   37.8501 C   0  0  0  0  0  0  0  0  0  0  0  0
   33.3143  -12.1229   37.4403 C   0  0  0  0  0  0  0  0  0  0  0  0
   34.1395  -11.2190   36.8003 C   0  0  0  0  0  0  0  0  0  0  0  0
   35.4494  -11.6118   36.5714 C   0  0  0  0  0  0  0  0  0  0  0  0
   35.8871  -12.8492   36.9715 C   0  0  0  0  0  0  0  0  0  0  0  0
   37.2959  -13.3007   36.7239 C   0  0  0  0  0  0  0  0  0  0  0  0
   37.1616  -14.6821   36.2490 N   0  0  0  0  0  0  0  0  0  0  0  0
   36.5373  -14.7450   35.4235 H   0  0  0  0  0  0  0  0  0  0  0  0
   38.1815  -19.3689   35.1320 C   0  0  0  0  0  0  0  0  0  0  0  0
   38.6885  -19.5870   36.2900 O   0  0  0  0  0  0  0  0  0  0  0  0
   38.8491  -19.7428   33.9619 N   0  0  0  0  0  0  0  0  0  0  0  0
   38.4891  -19.5814   33.0097 H   0  0  0  0  0  0  0  0  0  0  0  0
   40.1691  -20.4116   34.0061 C   0  0  0  0  0  0  0  0  0  0  0  0
   40.9985  -19.8975   32.8878 C   0  0  0  0  0  0  0  0  0  0  0  0
   40.9710  -20.4116   31.5954 O   0  0  0  0  0  0  0  0  0  0  0  0
   41.8019  -18.9380   33.0566 O   0  0  0  0  0  0  0  0  0  0  0  0
   41.7437  -20.4045   30.9730 H   0  0  0  0  0  0  0  0  0  0  0  0
   39.9620  -21.8988   34.0052 C   0  0  0  0  0  0  0  0  0  0  0  0
   40.4159  -22.5693   35.2203 C   0  0  0  0  0  0  0  0  0  0  0  0
   39.9465  -23.8476   35.5711 C   0  0  0  0  0  0  0  0  0  0  0  0
   40.3923  -24.5120   36.6948 C   0  0  0  0  0  0  0  0  0  0  0  0
   41.3276  -23.8884   37.4887 C   0  0  0  0  0  0  0  0  0  0  0  0
   41.8025  -22.6189   37.1528 C   0  0  0  0  0  0  0  0  0  0  0  0
   41.3518  -21.9670   36.0320 C   0  0  0  0  0  0  0  0  0  0  0  0
   36.2394  -18.7811   33.7677 C   0  0  0  0  0  0  0  0  0  0  0  0
   34.7538  -18.4432   33.8232 C   0  0  0  0  0  0  0  0  0  0  0  0
   33.9810  -19.6009   34.3956 C   0  0  0  0  0  0  0  0  0  0  0  0
   32.5880  -19.4703   34.0180 N   0  0  0  0  0  0  0  0  0  0  0  0
   32.3087  -19.3612   33.0403 H   0  0  0  0  0  0  0  0  0  0  0  0
   30.3816  -18.8576   34.7752 N   0  0  0  0  0  0  0  0  0  0  0  0
   31.6119  -19.5024   35.0599 C   0  0  0  0  0  0  0  0  0  0  0  0
   31.8151  -20.0758   36.1951 N   0  0  0  0  0  0  0  0  0  0  0  0
   29.8879  -18.3597   35.5409 H   0  0  0  0  0  0  0  0  0  0  0  0
   29.9447  -18.8652   33.8168 H   0  0  0  0  0  0  0  0  0  0  0  0
   32.7244  -20.5519   36.4064 H   0  0  0  0  0  0  0  0  0  0  0  0
 38 39  1  0  0  0
 39 40  2  0  0  0
 39 36  1  0  0  0
 36 35  1  0  0  0
 35 34  1  0  0  0
 34 33  1  0  0  0
 33  1  1  0  0  0
  1  2  1  0  0  0
  2  3  1  0  0  0
  3  4  2  0  0  0
  3  6  1  0  0  0
  6  7  1  0  0  0
  7  8  1  0  0  0
  8  9  2  0  0  0
  9 10  1  0  0  0
 10 11  2  0  0  0
 11 12  1  0  0  0
 12 13  2  0  0  0
 13 14  1  0  0  0
 14 15  1  0  0  0
  1 17  1  0  0  0
 17 18  2  0  0  0
 17 19  1  0  0  0
 19 21  1  0  0  0
 21 26  1  0  0  0
 26 27  1  0  0  0
 27 28  2  0  0  0
 28 29  1  0  0  0
 29 30  2  0  0  0
 30 31  1  0  0  0
 31 32  2  0  0  0
 21 22  1  0  0  0
 22 23  1  0  0  0
 22 24  2  0  0  0
 15  6  1  0  0  0
 32 27  1  0  0  0
 13  8  1  0  0  0
 38 41  1  0  0  0
 38 42  1  0  0  0
 40 43  1  0  0  0
 36 37  1  0  0  0
  2  5  1  0  0  0
 15 16  1  0  0  0
 19 20  1  0  0  0
 23 25  1  0  0  0
M  END
> <minimizedAffinity>
-6.49599

> <CNNscore>
0.4817059934

> <CNNaffinity>
5.9892606735

> <CNN_VS>
2.8850626945

> <CNNaffinity_variance>
0.2485313416

$$$$
[H]N=C(N([H])[H])N([H])C([H])([H])C([H])([H])C([H])([H])[C@@]([H])(C(=O)N([H])[C@]([H])(C(=O)O[H])C([H])([H])c1c([H])c([H])c([H])c([H])c1[H])N([H])C(=O)[C@@]1([H])N([H])C([H])([H])c2c([H])c([H])c([H])c([H])c2C1([H])[H]


 43 45  0  0  0  0  0  0  0  0999 V2000
   36.6547  -19.3318   36.6218 C   0  0  0  0  0  0  0  0  0  0  0  0
   36.6979  -17.9869   37.1203 N   0  0  0  0  0  0  0  0  0  0  0  0
   36.6557  -16.8021   36.3393 C   0  0  0  0  0  0  0  0  0  0  0  0
   36.5707  -16.8201   35.0805 O   0  0  0  0  0  0  0  0  0  0  0  0
   36.7673  -17.8573   38.1698 H   0  0  0  0  0  0  0  0  0  0  0  0
   36.7127  -15.4606   36.9894 C   0  0  0  0  0  0  0  0  0  0  0  0
   35.4431  -15.2570   37.7436 C   0  0  0  0  0  0  0  0  0  0  0  0
   34.8107  -13.9289   37.5403 C   0  0  0  0  0  0  0  0  0  0  0  0
   33.4639  -13.7364   37.8392 C   0  0  0  0  0  0  0  0  0  0  0  0
   32.9307  -12.4938   37.6451 C   0  0  0  0  0  0  0  0  0  0  0  0
   33.6539  -11.4177   37.1692 C   0  0  0  0  0  0  0  0  0  0  0  0
   34.9922  -11.6350   36.8788 C   0  0  0  0  0  0  0  0  0  0  0  0
   35.5544  -12.8730   37.0634 C   0  0  0  0  0  0  0  0  0  0  0  0
   36.9966  -13.1349   36.7446 C   0  0  0  0  0  0  0  0  0  0  0  0
   36.9901  -14.4225   36.0417 N   0  0  0  0  0  0  0  0  0  0  0  0
   36.3623  -14.4060   35.2167 H   0  0  0  0  0  0  0  0  0  0  0  0
   35.3396  -19.9337   36.9189 C   0  0  0  0  0  0  0  0  0  0  0  0
   34.7714  -19.5212   37.9926 O   0  0  0  0  0  0  0  0  0  0  0  0
   34.7394  -20.8944   36.0996 N   0  0  0  0  0  0  0  0  0  0  0  0
   35.1584  -21.2646   35.2338 H   0  0  0  0  0  0  0  0  0  0  0  0
   33.4190  -21.4760   36.4312 C   0  0  0  0  0  0  0  0  0  0  0  0
   33.6323  -22.7616   37.1416 C   0  0  0  0  0  0  0  0  0  0  0  0
   32.8937  -23.1751   38.2456 O   0  0  0  0  0  0  0  0  0  0  0  0
   34.5272  -23.5724   36.7722 O   0  0  0  0  0  0  0  0  0  0  0  0
   33.2427  -23.7622   38.9652 H   0  0  0  0  0  0  0  0  0  0  0  0
   32.6023  -21.5781   35.1753 C   0  0  0  0  0  0  0  0  0  0  0  0
   31.1887  -21.8672   35.3998 C   0  0  0  0  0  0  0  0  0  0  0  0
   30.2840  -20.8572   35.7722 C   0  0  0  0  0  0  0  0  0  0  0  0
   28.9388  -21.1042   35.9516 C   0  0  0  0  0  0  0  0  0  0  0  0
   28.4835  -22.3882   35.7562 C   0  0  0  0  0  0  0  0  0  0  0  0
   29.3705  -23.4014   35.3866 C   0  0  0  0  0  0  0  0  0  0  0  0
   30.7073  -23.1440   35.2108 C   0  0  0  0  0  0  0  0  0  0  0  0
   37.7603  -20.2175   37.1133 C   0  0  0  0  0  0  0  0  0  0  0  0
   38.3801  -21.0123   35.9694 C   0  0  0  0  0  0  0  0  0  0  0  0
   38.2250  -20.2614   34.6744 C   0  0  0  0  0  0  0  0  0  0  0  0
   39.5272  -19.7962   34.2407 N   0  0  0  0  0  0  0  0  0  0  0  0
   40.3830  -20.2967   34.4920 H   0  0  0  0  0  0  0  0  0  0  0  0
   38.3369  -18.1611   32.9268 N   0  0  0  0  0  0  0  0  0  0  0  0
   39.5777  -18.6121   33.4440 C   0  0  0  0  0  0  0  0  0  0  0  0
   40.6710  -17.9774   33.1978 N   0  0  0  0  0  0  0  0  0  0  0  0
   38.3151  -17.7275   31.9836 H   0  0  0  0  0  0  0  0  0  0  0  0
   37.4339  -18.2450   33.4625 H   0  0  0  0  0  0  0  0  0  0  0  0
   41.5884  -18.3106   33.5791 H   0  0  0  0  0  0  0  0  0  0  0  0
 38 39  1  0  0  0
 39 40  2  0  0  0
 39 36  1  0  0  0
 36 35  1  0  0  0
 35 34  1  0  0  0
 34 33  1  0  0  0
 33  1  1  0  0  0
  1  2  1  0  0  0
  2  3  1  0  0  0
  3  4  2  0  0  0
  3  6  1  0  0  0
  6  7  1  0  0  0
  7  8  1  0  0  0
  8  9  2  0  0  0
  9 10  1  0  0  0
 10 11  2  0  0  0
 11 12  1  0  0  0
 12 13  2  0  0  0
 13 14  1  0  0  0
 14 15  1  0  0  0
  1 17  1  0  0  0
 17 18  2  0  0  0
 17 19  1  0  0  0
 19 21  1  0  0  0
 21 26  1  0  0  0
 26 27  1  0  0  0
 27 28  2  0  0  0
 28 29  1  0  0  0
 29 30  2  0  0  0
 30 31  1  0  0  0
 31 32  2  0  0  0
 21 22  1  0  0  0
 22 23  1  0  0  0
 22 24  2  0  0  0
 15  6  1  0  0  0
 32 27  1  0  0  0
 13  8  1  0  0  0
 38 41  1  0  0  0
 38 42  1  0  0  0
 40 43  1  0  0  0
 36 37  1  0  0  0
  2  5  1  0  0  0
 15 16  1  0  0  0
 19 20  1  0  0  0
 23 25  1  0  0  0
M  END
> <minimizedAffinity>
-7.04532

> <CNNscore>
0.4517769217

> <CNNaffinity>
5.7480411530

> <CNN_VS>
2.5968322754

> <CNNaffinity_variance>
0.1407228559

$$$$
[H]N=C(N([H])[H])N([H])C([H])([H])C([H])([H])C([H])([H])[C@@]([H])(C(=O)N([H])[C@]([H])(C(=O)O[H])C([H])([H])c1c([H])c([H])c([H])c([H])c1[H])N([H])C(=O)[C@@]1([H])N([H])C([H])([H])c2c([H])c([H])c([H])c([H])c2C1([H])[H]


 43 45  0  0  0  0  0  0  0  0999 V2000
   37.5756  -18.8669   35.3669 C   0  0  0  0  0  0  0  0  0  0  0  0
   37.5840  -17.5247   35.8744 N   0  0  0  0  0  0  0  0  0  0  0  0
   36.7491  -17.0122   36.9019 C   0  0  0  0  0  0  0  0  0  0  0  0
   35.8859  -17.7184   37.4922 O   0  0  0  0  0  0  0  0  0  0  0  0
   38.2766  -16.8457   35.4473 H   0  0  0  0  0  0  0  0  0  0  0  0
   36.8606  -15.5883   37.3328 C   0  0  0  0  0  0  0  0  0  0  0  0
   35.5899  -15.2094   38.0137 C   0  0  0  0  0  0  0  0  0  0  0  0
   35.0269  -13.9031   37.5872 C   0  0  0  0  0  0  0  0  0  0  0  0
   33.6863  -13.6042   37.8186 C   0  0  0  0  0  0  0  0  0  0  0  0
   33.2181  -12.3853   37.4172 C   0  0  0  0  0  0  0  0  0  0  0  0
   34.0012  -11.4330   36.7950 C   0  0  0  0  0  0  0  0  0  0  0  0
   35.3321  -11.7546   36.5757 C   0  0  0  0  0  0  0  0  0  0  0  0
   35.8296  -12.9718   36.9677 C   0  0  0  0  0  0  0  0  0  0  0  0
   37.2624  -13.3468   36.7301 C   0  0  0  0  0  0  0  0  0  0  0  0
   37.2049  -14.7282   36.2399 N   0  0  0  0  0  0  0  0  0  0  0  0
   36.5928  -14.8147   35.4074 H   0  0  0  0  0  0  0  0  0  0  0  0
   38.9234  -19.4570   35.4900 C   0  0  0  0  0  0  0  0  0  0  0  0
   39.8287  -18.6777   35.9577 O   0  0  0  0  0  0  0  0  0  0  0  0
   39.2144  -20.7739   35.1219 N   0  0  0  0  0  0  0  0  0  0  0  0
   38.5260  -21.4352   34.7333 H   0  0  0  0  0  0  0  0  0  0  0  0
   40.5794  -21.3304   35.2594 C   0  0  0  0  0  0  0  0  0  0  0  0
   40.8459  -22.2228   34.1037 C   0  0  0  0  0  0  0  0  0  0  0  0
   39.9423  -23.1631   33.6191 O   0  0  0  0  0  0  0  0  0  0  0  0
   41.9439  -22.1773   33.4816 O   0  0  0  0  0  0  0  0  0  0  0  0
   40.2009  -24.0110   33.1736 H   0  0  0  0  0  0  0  0  0  0  0  0
   40.7050  -21.9864   36.6042 C   0  0  0  0  0  0  0  0  0  0  0  0
   41.3186  -21.1453   37.6280 C   0  0  0  0  0  0  0  0  0  0  0  0
   40.7363  -20.9952   38.8991 C   0  0  0  0  0  0  0  0  0  0  0  0
   41.3211  -20.2353   39.8908 C   0  0  0  0  0  0  0  0  0  0  0  0
   42.5141  -19.6094   39.6100 C   0  0  0  0  0  0  0  0  0  0  0  0
   43.1037  -19.7493   38.3519 C   0  0  0  0  0  0  0  0  0  0  0  0
   42.5128  -20.5080   37.3724 C   0  0  0  0  0  0  0  0  0  0  0  0
   37.0701  -19.0017   33.9615 C   0  0  0  0  0  0  0  0  0  0  0  0
   35.8283  -18.1460   33.7378 C   0  0  0  0  0  0  0  0  0  0  0  0
   34.5879  -18.9844   33.8913 C   0  0  0  0  0  0  0  0  0  0  0  0
   33.5294  -18.1629   34.4435 N   0  0  0  0  0  0  0  0  0  0  0  0
   33.3118  -17.2420   34.0556 H   0  0  0  0  0  0  0  0  0  0  0  0
   33.5224  -19.5078   36.4456 N   0  0  0  0  0  0  0  0  0  0  0  0
   32.7932  -18.6846   35.5505 C   0  0  0  0  0  0  0  0  0  0  0  0
   31.5444  -18.4356   35.7434 N   0  0  0  0  0  0  0  0  0  0  0  0
   33.0424  -20.3155   36.8873 H   0  0  0  0  0  0  0  0  0  0  0  0
   34.5331  -19.3317   36.6841 H   0  0  0  0  0  0  0  0  0  0  0  0
   31.0048  -17.8278   35.0818 H   0  0  0  0  0  0  0  0  0  0  0  0
 38 39  1  0  0  0
 39 40  2  0  0  0
 39 36  1  0  0  0
 36 35  1  0  0  0
 35 34  1  0  0  0
 34 33  1  0  0  0
 33  1  1  0  0  0
  1  2  1  0  0  0
  2  3  1  0  0  0
  3  4  2  0  0  0
  3  6  1  0  0  0
  6  7  1  0  0  0
  7  8  1  0  0  0
  8  9  2  0  0  0
  9 10  1  0  0  0
 10 11  2  0  0  0
 11 12  1  0  0  0
 12 13  2  0  0  0
 13 14  1  0  0  0
 14 15  1  0  0  0
  1 17  1  0  0  0
 17 18  2  0  0  0
 17 19  1  0  0  0
 19 21  1  0  0  0
 21 26  1  0  0  0
 26 27  1  0  0  0
 27 28  2  0  0  0
 28 29  1  0  0  0
 29 30  2  0  0  0
 30 31  1  0  0  0
 31 32  2  0  0  0
 21 22  1  0  0  0
 22 23  1  0  0  0
 22 24  2  0  0  0
 15  6  1  0  0  0
 32 27  1  0  0  0
 13  8  1  0  0  0
 38 41  1  0  0  0
 38 42  1  0  0  0
 40 43  1  0  0  0
 36 37  1  0  0  0
  2  5  1  0  0  0
 15 16  1  0  0  0
 19 20  1  0  0  0
 23 25  1  0  0  0
M  END
> <minimizedAffinity>
-6.43619

> <CNNscore>
0.4491579235

> <CNNaffinity>
5.7288918495

> <CNN_VS>
2.5731770992

> <CNNaffinity_variance>
0.1057109013

$$$$
[H]N=C(N([H])[H])N([H])C([H])([H])C([H])([H])C([H])([H])[C@@]([H])(C(=O)N([H])[C@]([H])(C(=O)O[H])C([H])([H])c1c([H])c([H])c([H])c([H])c1[H])N([H])C(=O)[C@@]1([H])N([H])C([H])([H])c2c([H])c([H])c([H])c([H])c2C1([H])[H]


 43 45  0  0  0  0  0  0  0  0999 V2000
   37.3502  -18.7718   35.2271 C   0  0  0  0  0  0  0  0  0  0  0  0
   37.3775  -17.4317   35.7395 N   0  0  0  0  0  0  0  0  0  0  0  0
   36.7158  -16.9672   36.9065 C   0  0  0  0  0  0  0  0  0  0  0  0
   36.0133  -17.7206   37.6352 O   0  0  0  0  0  0  0  0  0  0  0  0
   37.9436  -16.7149   35.2019 H   0  0  0  0  0  0  0  0  0  0  0  0
   36.8261  -15.5398   37.3258 C   0  0  0  0  0  0  0  0  0  0  0  0
   35.5648  -15.1637   38.0257 C   0  0  0  0  0  0  0  0  0  0  0  0
   34.9868  -13.8637   37.6000 C   0  0  0  0  0  0  0  0  0  0  0  0
   33.6486  -13.5711   37.8521 C   0  0  0  0  0  0  0  0  0  0  0  0
   33.1662  -12.3578   37.4505 C   0  0  0  0  0  0  0  0  0  0  0  0
   33.9330  -11.4051   36.8086 C   0  0  0  0  0  0  0  0  0  0  0  0
   35.2618  -11.7204   36.5689 C   0  0  0  0  0  0  0  0  0  0  0  0
   35.7733  -12.9319   36.9606 C   0  0  0  0  0  0  0  0  0  0  0  0
   37.2041  -13.3001   36.7013 C   0  0  0  0  0  0  0  0  0  0  0  0
   37.1465  -14.6851   36.2214 N   0  0  0  0  0  0  0  0  0  0  0  0
   36.5210  -14.7809   35.4001 H   0  0  0  0  0  0  0  0  0  0  0  0
   38.7172  -19.3295   35.2114 C   0  0  0  0  0  0  0  0  0  0  0  0
   38.8121  -20.5721   35.5161 O   0  0  0  0  0  0  0  0  0  0  0  0
   39.8462  -18.5689   34.8933 N   0  0  0  0  0  0  0  0  0  0  0  0
   39.8238  -17.5672   34.6516 H   0  0  0  0  0  0  0  0  0  0  0  0
   41.2019  -19.1636   34.8890 C   0  0  0  0  0  0  0  0  0  0  0  0
   42.1941  -18.0833   35.1155 C   0  0  0  0  0  0  0  0  0  0  0  0
   42.4023  -17.0195   34.2435 O   0  0  0  0  0  0  0  0  0  0  0  0
   42.9284  -18.0743   36.1429 O   0  0  0  0  0  0  0  0  0  0  0  0
   43.2691  -16.5507   34.1285 H   0  0  0  0  0  0  0  0  0  0  0  0
   41.3911  -19.9360   33.6153 C   0  0  0  0  0  0  0  0  0  0  0  0
   41.8383  -21.3126   33.8083 C   0  0  0  0  0  0  0  0  0  0  0  0
   41.8049  -22.2480   32.7589 C   0  0  0  0  0  0  0  0  0  0  0  0
   42.2582  -23.5418   32.9122 C   0  0  0  0  0  0  0  0  0  0  0  0
   42.7562  -23.9134   34.1402 C   0  0  0  0  0  0  0  0  0  0  0  0
   42.7951  -22.9951   35.1915 C   0  0  0  0  0  0  0  0  0  0  0  0
   42.3412  -21.7100   35.0276 C   0  0  0  0  0  0  0  0  0  0  0  0
   36.7101  -18.9134   33.8785 C   0  0  0  0  0  0  0  0  0  0  0  0
   35.2919  -18.3537   33.8798 C   0  0  0  0  0  0  0  0  0  0  0  0
   34.3131  -19.4257   34.2770 C   0  0  0  0  0  0  0  0  0  0  0  0
   34.0197  -19.2955   35.6902 N   0  0  0  0  0  0  0  0  0  0  0  0
   33.7772  -18.3920   36.1033 H   0  0  0  0  0  0  0  0  0  0  0  0
   34.4454  -20.2863   37.8476 N   0  0  0  0  0  0  0  0  0  0  0  0
   34.0769  -20.4762   36.4916 C   0  0  0  0  0  0  0  0  0  0  0  0
   33.8140  -21.6502   36.0321 N   0  0  0  0  0  0  0  0  0  0  0  0
   35.0231  -21.0108   38.3159 H   0  0  0  0  0  0  0  0  0  0  0  0
   34.1540  -19.4395   38.4022 H   0  0  0  0  0  0  0  0  0  0  0  0
   33.5423  -21.7913   35.0299 H   0  0  0  0  0  0  0  0  0  0  0  0
 38 39  1  0  0  0
 39 40  2  0  0  0
 39 36  1  0  0  0
 36 35  1  0  0  0
 35 34  1  0  0  0
 34 33  1  0  0  0
 33  1  1  0  0  0
  1  2  1  0  0  0
  2  3  1  0  0  0
  3  4  2  0  0  0
  3  6  1  0  0  0
  6  7  1  0  0  0
  7  8  1  0  0  0
  8  9  2  0  0  0
  9 10  1  0  0  0
 10 11  2  0  0  0
 11 12  1  0  0  0
 12 13  2  0  0  0
 13 14  1  0  0  0
 14 15  1  0  0  0
  1 17  1  0  0  0
 17 18  2  0  0  0
 17 19  1  0  0  0
 19 21  1  0  0  0
 21 26  1  0  0  0
 26 27  1  0  0  0
 27 28  2  0  0  0
 28 29  1  0  0  0
 29 30  2  0  0  0
 30 31  1  0  0  0
 31 32  2  0  0  0
 21 22  1  0  0  0
 22 23  1  0  0  0
 22 24  2  0  0  0
 15  6  1  0  0  0
 32 27  1  0  0  0
 13  8  1  0  0  0
 38 41  1  0  0  0
 38 42  1  0  0  0
 40 43  1  0  0  0
 36 37  1  0  0  0
  2  5  1  0  0  0
 15 16  1  0  0  0
 19 20  1  0  0  0
 23 25  1  0  0  0
M  END
> <minimizedAffinity>
-6.48921

> <CNNscore>
0.3774287999

> <CNNaffinity>
5.7175116539

> <CNN_VS>
2.1579535007

> <CNNaffinity_variance>
0.1174244657

$$$$
[H]N=C(N([H])[H])N([H])C([H])([H])C([H])([H])C([H])([H])[C@@]([H])(C(=O)N([H])[C@]([H])(C(=O)O[H])C([H])([H])c1c([H])c([H])c([H])c([H])c1[H])N([H])C(=O)[C@@]1([H])N([H])C([H])([H])c2c([H])c([H])c([H])c([H])c2C1([H])[H]


 43 45  0  0  0  0  0  0  0  0999 V2000
   36.8316  -18.5917   34.9210 C   0  0  0  0  0  0  0  0  0  0  0  0
   36.9409  -17.2707   35.4706 N   0  0  0  0  0  0  0  0  0  0  0  0
   36.5596  -16.8734   36.7792 C   0  0  0  0  0  0  0  0  0  0  0  0
   36.0700  -17.6782   37.6185 O   0  0  0  0  0  0  0  0  0  0  0  0
   37.3439  -16.5144   34.8471 H   0  0  0  0  0  0  0  0  0  0  0  0
   36.7250  -15.4586   37.2226 C   0  0  0  0  0  0  0  0  0  0  0  0
   35.5147  -15.0731   38.0027 C   0  0  0  0  0  0  0  0  0  0  0  0
   34.9417  -13.7520   37.6400 C   0  0  0  0  0  0  0  0  0  0  0  0
   33.6269  -13.4378   37.9759 C   0  0  0  0  0  0  0  0  0  0  0  0
   33.1489  -12.2059   37.6297 C   0  0  0  0  0  0  0  0  0  0  0  0
   33.8980  -11.2545   36.9655 C   0  0  0  0  0  0  0  0  0  0  0  0
   35.2036  -11.5914   36.6422 C   0  0  0  0  0  0  0  0  0  0  0  0
   35.7102  -12.8219   36.9767 C   0  0  0  0  0  0  0  0  0  0  0  0
   37.1153  -13.2133   36.6266 C   0  0  0  0  0  0  0  0  0  0  0  0
   36.9999  -14.5853   36.1206 N   0  0  0  0  0  0  0  0  0  0  0  0
   36.3261  -14.6491   35.3350 H   0  0  0  0  0  0  0  0  0  0  0  0
   38.1726  -19.1004   34.5703 C   0  0  0  0  0  0  0  0  0  0  0  0
   38.7131  -18.5698   33.5349 O   0  0  0  0  0  0  0  0  0  0  0  0
   38.8243  -20.0972   35.3026 N   0  0  0  0  0  0  0  0  0  0  0  0
   38.4295  -20.5605   36.1342 H   0  0  0  0  0  0  0  0  0  0  0  0
   40.1694  -20.5824   34.9193 C   0  0  0  0  0  0  0  0  0  0  0  0
   40.0363  -21.9459   34.3482 C   0  0  0  0  0  0  0  0  0  0  0  0
   38.8556  -22.4597   33.8217 O   0  0  0  0  0  0  0  0  0  0  0  0
   41.0185  -22.7389   34.3126 O   0  0  0  0  0  0  0  0  0  0  0  0
   38.6114  -23.4212   33.8273 H   0  0  0  0  0  0  0  0  0  0  0  0
   41.0803  -20.4836   36.1089 C   0  0  0  0  0  0  0  0  0  0  0  0
   41.8831  -19.2647   36.1513 C   0  0  0  0  0  0  0  0  0  0  0  0
   42.0541  -18.4595   35.0111 C   0  0  0  0  0  0  0  0  0  0  0  0
   42.7773  -17.2853   35.0416 C   0  0  0  0  0  0  0  0  0  0  0  0
   43.3446  -16.9038   36.2361 C   0  0  0  0  0  0  0  0  0  0  0  0
   43.1834  -17.6936   37.3763 C   0  0  0  0  0  0  0  0  0  0  0  0
   42.4615  -18.8604   37.3344 C   0  0  0  0  0  0  0  0  0  0  0  0
   35.9034  -18.7075   33.7491 C   0  0  0  0  0  0  0  0  0  0  0  0
   34.4559  -18.4740   34.1669 C   0  0  0  0  0  0  0  0  0  0  0  0
   33.6524  -19.7318   33.9733 C   0  0  0  0  0  0  0  0  0  0  0  0
   32.2538  -19.3800   33.8304 N   0  0  0  0  0  0  0  0  0  0  0  0
   31.8611  -19.1130   32.9246 H   0  0  0  0  0  0  0  0  0  0  0  0
   30.7665  -20.6477   35.2439 N   0  0  0  0  0  0  0  0  0  0  0  0
   31.4359  -19.4216   35.0003 C   0  0  0  0  0  0  0  0  0  0  0  0
   31.3003  -18.4200   35.7984 N   0  0  0  0  0  0  0  0  0  0  0  0
   29.8156  -20.6252   35.6601 H   0  0  0  0  0  0  0  0  0  0  0  0
   31.1965  -21.5834   35.0224 H   0  0  0  0  0  0  0  0  0  0  0  0
   31.7942  -17.5134   35.6185 H   0  0  0  0  0  0  0  0  0  0  0  0
 38 39  1  0  0  0
 39 40  2  0  0  0
 39 36  1  0  0  0
 36 35  1  0  0  0
 35 34  1  0  0  0
 34 33  1  0  0  0
 33  1  1  0  0  0
  1  2  1  0  0  0
  2  3  1  0  0  0
  3  4  2  0  0  0
  3  6  1  0  0  0
  6  7  1  0  0  0
  7  8  1  0  0  0
  8  9  2  0  0  0
  9 10  1  0  0  0
 10 11  2  0  0  0
 11 12  1  0  0  0
 12 13  2  0  0  0
 13 14  1  0  0  0
 14 15  1  0  0  0
  1 17  1  0  0  0
 17 18  2  0  0  0
 17 19  1  0  0  0
 19 21  1  0  0  0
 21 26  1  0  0  0
 26 27  1  0  0  0
 27 28  2  0  0  0
 28 29  1  0  0  0
 29 30  2  0  0  0
 30 31  1  0  0  0
 31 32  2  0  0  0
 21 22  1  0  0  0
 22 23  1  0  0  0
 22 24  2  0  0  0
 15  6  1  0  0  0
 32 27  1  0  0  0
 13  8  1  0  0  0
 38 41  1  0  0  0
 38 42  1  0  0  0
 40 43  1  0  0  0
 36 37  1  0  0  0
  2  5  1  0  0  0
 15 16  1  0  0  0
 19 20  1  0  0  0
 23 25  1  0  0  0
M  END
> <minimizedAffinity>
-7.29543

> <CNNscore>
0.3303147554

> <CNNaffinity>
5.5762200356

> <CNN_VS>
1.8419077396

> <CNNaffinity_variance>
0.2550492883

$$$$
[H]N=C(N([H])[H])N([H])C([H])([H])C([H])([H])C([H])([H])[C@@]([H])(C(=O)N([H])[C@]([H])(C(=O)O[H])C([H])([H])c1c([H])c([H])c([H])c([H])c1[H])N([H])C(=O)[C@@]1([H])N([H])C([H])([H])c2c([H])c([H])c([H])c([H])c2C1([H])[H]


 43 45  0  0  0  0  0  0  0  0999 V2000
   34.3150  -19.5402   36.0033 C   0  0  0  0  0  0  0  0  0  0  0  0
   35.6013  -19.8343   35.4393 N   0  0  0  0  0  0  0  0  0  0  0  0
   36.8588  -19.6128   36.0599 C   0  0  0  0  0  0  0  0  0  0  0  0
   36.9690  -19.1175   37.2152 O   0  0  0  0  0  0  0  0  0  0  0  0
   35.6231  -20.2577   34.4680 H   0  0  0  0  0  0  0  0  0  0  0  0
   38.1264  -19.9631   35.3556 C   0  0  0  0  0  0  0  0  0  0  0  0
   39.2477  -19.8369   36.3296 C   0  0  0  0  0  0  0  0  0  0  0  0
   40.4347  -19.1091   35.8132 C   0  0  0  0  0  0  0  0  0  0  0  0
   41.3696  -18.5707   36.6943 C   0  0  0  0  0  0  0  0  0  0  0  0
   42.4500  -17.9193   36.1704 C   0  0  0  0  0  0  0  0  0  0  0  0
   42.6665  -17.7659   34.8151 C   0  0  0  0  0  0  0  0  0  0  0  0
   41.7215  -18.3105   33.9589 C   0  0  0  0  0  0  0  0  0  0  0  0
   40.6260  -18.9696   34.4570 C   0  0  0  0  0  0  0  0  0  0  0  0
   39.5844  -19.5561   33.5507 C   0  0  0  0  0  0  0  0  0  0  0  0
   38.3071  -19.1826   34.1679 N   0  0  0  0  0  0  0  0  0  0  0  0
   38.2322  -18.1574   34.3041 H   0  0  0  0  0  0  0  0  0  0  0  0
   33.7440  -20.7590   36.6102 C   0  0  0  0  0  0  0  0  0  0  0  0
   33.4503  -20.6723   37.8560 O   0  0  0  0  0  0  0  0  0  0  0  0
   33.5347  -21.9405   35.8927 N   0  0  0  0  0  0  0  0  0  0  0  0
   33.7624  -22.0635   34.8951 H   0  0  0  0  0  0  0  0  0  0  0  0
   32.9604  -23.1435   36.5365 C   0  0  0  0  0  0  0  0  0  0  0  0
   34.0419  -24.1423   36.7248 C   0  0  0  0  0  0  0  0  0  0  0  0
   35.3760  -23.9187   36.3995 O   0  0  0  0  0  0  0  0  0  0  0  0
   33.8002  -25.2863   37.2017 O   0  0  0  0  0  0  0  0  0  0  0  0
   36.0101  -24.6274   36.1167 H   0  0  0  0  0  0  0  0  0  0  0  0
   31.7947  -23.6232   35.7205 C   0  0  0  0  0  0  0  0  0  0  0  0
   30.4992  -23.1229   36.1715 C   0  0  0  0  0  0  0  0  0  0  0  0
   29.3372  -23.2955   35.3986 C   0  0  0  0  0  0  0  0  0  0  0  0
   28.0989  -22.8632   35.8256 C   0  0  0  0  0  0  0  0  0  0  0  0
   28.0155  -22.2434   37.0516 C   0  0  0  0  0  0  0  0  0  0  0  0
   29.1611  -22.0648   37.8298 C   0  0  0  0  0  0  0  0  0  0  0  0
   30.3885  -22.4991   37.3948 C   0  0  0  0  0  0  0  0  0  0  0  0
   33.3385  -18.9230   35.0472 C   0  0  0  0  0  0  0  0  0  0  0  0
   33.8389  -17.5745   34.5417 C   0  0  0  0  0  0  0  0  0  0  0  0
   34.1656  -16.6755   35.7035 C   0  0  0  0  0  0  0  0  0  0  0  0
   33.3366  -15.4891   35.6287 N   0  0  0  0  0  0  0  0  0  0  0  0
   32.4704  -15.4774   35.0852 H   0  0  0  0  0  0  0  0  0  0  0  0
   32.9723  -13.1695   36.1802 N   0  0  0  0  0  0  0  0  0  0  0  0
   33.7683  -14.3314   36.3450 C   0  0  0  0  0  0  0  0  0  0  0  0
   34.8122  -14.3209   37.0992 N   0  0  0  0  0  0  0  0  0  0  0  0
   33.4377  -12.2416   36.1643 H   0  0  0  0  0  0  0  0  0  0  0  0
   31.9249  -13.2086   36.0761 H   0  0  0  0  0  0  0  0  0  0  0  0
   35.4012  -15.1790   37.2207 H   0  0  0  0  0  0  0  0  0  0  0  0
 38 39  1  0  0  0
 39 40  2  0  0  0
 39 36  1  0  0  0
 36 35  1  0  0  0
 35 34  1  0  0  0
 34 33  1  0  0  0
 33  1  1  0  0  0
  1  2  1  0  0  0
  2  3  1  0  0  0
  3  4  2  0  0  0
  3  6  1  0  0  0
  6  7  1  0  0  0
  7  8  1  0  0  0
  8  9  2  0  0  0
  9 10  1  0  0  0
 10 11  2  0  0  0
 11 12  1  0  0  0
 12 13  2  0  0  0
 13 14  1  0  0  0
 14 15  1  0  0  0
  1 17  1  0  0  0
 17 18  2  0  0  0
 17 19  1  0  0  0
 19 21  1  0  0  0
 21 26  1  0  0  0
 26 27  1  0  0  0
 27 28  2  0  0  0
 28 29  1  0  0  0
 29 30  2  0  0  0
 30 31  1  0  0  0
 31 32  2  0  0  0
 21 22  1  0  0  0
 22 23  1  0  0  0
 22 24  2  0  0  0
 15  6  1  0  0  0
 32 27  1  0  0  0
 13  8  1  0  0  0
 38 41  1  0  0  0
 38 42  1  0  0  0
 40 43  1  0  0  0
 36 37  1  0  0  0
  2  5  1  0  0  0
 15 16  1  0  0  0
 19 20  1  0  0  0
 23 25  1  0  0  0
M  END
> <minimizedAffinity>
-6.44169

> <CNNscore>
0.3156869113

> <CNNaffinity>
5.0622425079

> <CNN_VS>
1.5980837345

> <CNNaffinity_variance>
0.5498286486

$$$$
[H]N=C(N([H])[H])N([H])C([H])([H])C([H])([H])C([H])([H])[C@@]([H])(C(=O)N([H])[C@]([H])(C(=O)O[H])C([H])([H])c1c([H])c([H])c([H])c([H])c1[H])N([H])C(=O)[C@@]1([H])N([H])C([H])([H])c2c([H])c([H])c([H])c([H])c2C1([H])[H]


 43 45  0  0  0  0  0  0  0  0999 V2000
   35.5541  -18.5036   36.2037 C   0  0  0  0  0  0  0  0  0  0  0  0
   35.6049  -17.1696   36.7299 N   0  0  0  0  0  0  0  0  0  0  0  0
   36.1429  -16.0305   36.0752 C   0  0  0  0  0  0  0  0  0  0  0  0
   36.6468  -16.0853   34.9196 O   0  0  0  0  0  0  0  0  0  0  0  0
   35.2042  -17.0111   37.6982 H   0  0  0  0  0  0  0  0  0  0  0  0
   36.1350  -14.6960   36.7419 C   0  0  0  0  0  0  0  0  0  0  0  0
   35.0251  -14.6818   37.7368 C   0  0  0  0  0  0  0  0  0  0  0  0
   34.1809  -13.4605   37.7022 C   0  0  0  0  0  0  0  0  0  0  0  0
   32.9071  -13.4680   38.2658 C   0  0  0  0  0  0  0  0  0  0  0  0
   32.1733  -12.3168   38.2181 C   0  0  0  0  0  0  0  0  0  0  0  0
   32.6253  -11.1458   37.6422 C   0  0  0  0  0  0  0  0  0  0  0  0
   33.8962  -11.1640   37.0879 C   0  0  0  0  0  0  0  0  0  0  0  0
   34.6555  -12.3064   37.1207 C   0  0  0  0  0  0  0  0  0  0  0  0
   36.0278  -12.3536   36.5168 C   0  0  0  0  0  0  0  0  0  0  0  0
   36.0665  -13.6273   35.7901 N   0  0  0  0  0  0  0  0  0  0  0  0
   35.2914  -13.7020   35.1055 H   0  0  0  0  0  0  0  0  0  0  0  0
   34.2123  -18.7722   35.6492 C   0  0  0  0  0  0  0  0  0  0  0  0
   33.5199  -17.7353   35.3473 O   0  0  0  0  0  0  0  0  0  0  0  0
   33.7100  -20.0636   35.4630 N   0  0  0  0  0  0  0  0  0  0  0  0
   34.2220  -20.9266   35.6982 H   0  0  0  0  0  0  0  0  0  0  0  0
   32.3583  -20.2933   34.9047 C   0  0  0  0  0  0  0  0  0  0  0  0
   31.3645  -20.1588   35.9988 C   0  0  0  0  0  0  0  0  0  0  0  0
   31.5703  -20.6073   37.2995 O   0  0  0  0  0  0  0  0  0  0  0  0
   30.2417  -19.6163   35.7996 O   0  0  0  0  0  0  0  0  0  0  0  0
   30.8486  -20.9148   37.9069 H   0  0  0  0  0  0  0  0  0  0  0  0
   32.3418  -21.6179   34.1977 C   0  0  0  0  0  0  0  0  0  0  0  0
   31.9628  -22.7459   35.0441 C   0  0  0  0  0  0  0  0  0  0  0  0
   30.6538  -23.2595   35.0380 C   0  0  0  0  0  0  0  0  0  0  0  0
   30.2872  -24.3478   35.8022 C   0  0  0  0  0  0  0  0  0  0  0  0
   31.2470  -24.9386   36.5920 C   0  0  0  0  0  0  0  0  0  0  0  0
   32.5509  -24.4390   36.6084 C   0  0  0  0  0  0  0  0  0  0  0  0
   32.9045  -23.3553   35.8437 C   0  0  0  0  0  0  0  0  0  0  0  0
   35.9440  -19.5757   37.1770 C   0  0  0  0  0  0  0  0  0  0  0  0
   37.1403  -20.3729   36.6691 C   0  0  0  0  0  0  0  0  0  0  0  0
   38.0905  -19.4673   35.9329 C   0  0  0  0  0  0  0  0  0  0  0  0
   38.4723  -20.0989   34.6857 N   0  0  0  0  0  0  0  0  0  0  0  0
   38.7254  -21.0889   34.6451 H   0  0  0  0  0  0  0  0  0  0  0  0
   39.3583  -19.7107   32.4763 N   0  0  0  0  0  0  0  0  0  0  0  0
   38.4805  -19.2913   33.5079 C   0  0  0  0  0  0  0  0  0  0  0  0
   37.7449  -18.2432   33.3699 N   0  0  0  0  0  0  0  0  0  0  0  0
   39.8354  -18.9903   31.9007 H   0  0  0  0  0  0  0  0  0  0  0  0
   39.5447  -20.7261   32.2670 H   0  0  0  0  0  0  0  0  0  0  0  0
   37.0965  -17.9323   34.1322 H   0  0  0  0  0  0  0  0  0  0  0  0
 38 39  1  0  0  0
 39 40  2  0  0  0
 39 36  1  0  0  0
 36 35  1  0  0  0
 35 34  1  0  0  0
 34 33  1  0  0  0
 33  1  1  0  0  0
  1  2  1  0  0  0
  2  3  1  0  0  0
  3  4  2  0  0  0
  3  6  1  0  0  0
  6  7  1  0  0  0
  7  8  1  0  0  0
  8  9  2  0  0  0
  9 10  1  0  0  0
 10 11  2  0  0  0
 11 12  1  0  0  0
 12 13  2  0  0  0
 13 14  1  0  0  0
 14 15  1  0  0  0
  1 17  1  0  0  0
 17 18  2  0  0  0
 17 19  1  0  0  0
 19 21  1  0  0  0
 21 26  1  0  0  0
 26 27  1  0  0  0
 27 28  2  0  0  0
 28 29  1  0  0  0
 29 30  2  0  0  0
 30 31  1  0  0  0
 31 32  2  0  0  0
 21 22  1  0  0  0
 22 23  1  0  0  0
 22 24  2  0  0  0
 15  6  1  0  0  0
 32 27  1  0  0  0
 13  8  1  0  0  0
 38 41  1  0  0  0
 38 42  1  0  0  0
 40 43  1  0  0  0
 36 37  1  0  0  0
  2  5  1  0  0  0
 15 16  1  0  0  0
 19 20  1  0  0  0
 23 25  1  0  0  0
M  END
> <minimizedAffinity>
-6.45753

> <CNNscore>
0.2879279256

> <CNNaffinity>
5.8004837036

> <CNN_VS>
1.6701211929

> <CNNaffinity_variance>
0.0865896195

$$$$
[H]N=C(N([H])[H])N([H])C([H])([H])C([H])([H])C([H])([H])[C@@]([H])(C(=O)N([H])[C@]([H])(C(=O)O[H])C([H])([H])c1c([H])c([H])c([H])c([H])c1[H])N([H])C(=O)[C@@]1([H])N([H])C([H])([H])c2c([H])c([H])c([H])c([H])c2C1([H])[H]


 43 45  0  0  0  0  0  0  0  0999 V2000
   37.0430  -18.3147   35.8975 C   0  0  0  0  0  0  0  0  0  0  0  0
   36.9926  -16.9749   36.4090 N   0  0  0  0  0  0  0  0  0  0  0  0
   36.0457  -15.9780   36.0551 C   0  0  0  0  0  0  0  0  0  0  0  0
   35.1190  -16.1849   35.2241 O   0  0  0  0  0  0  0  0  0  0  0  0
   37.7281  -16.6955   37.1191 H   0  0  0  0  0  0  0  0  0  0  0  0
   36.1110  -14.6174   36.6635 C   0  0  0  0  0  0  0  0  0  0  0  0
   35.0795  -14.5400   37.7368 C   0  0  0  0  0  0  0  0  0  0  0  0
   34.2562  -13.3042   37.7136 C   0  0  0  0  0  0  0  0  0  0  0  0
   33.0286  -13.2628   38.3703 C   0  0  0  0  0  0  0  0  0  0  0  0
   32.3131  -12.0998   38.3288 C   0  0  0  0  0  0  0  0  0  0  0  0
   32.7406  -10.9627   37.6718 C   0  0  0  0  0  0  0  0  0  0  0  0
   33.9656  -11.0295   37.0256 C   0  0  0  0  0  0  0  0  0  0  0  0
   34.7056  -12.1847   37.0500 C   0  0  0  0  0  0  0  0  0  0  0  0
   36.0275  -12.2845   36.3482 C   0  0  0  0  0  0  0  0  0  0  0  0
   35.9895  -13.5874   35.6752 N   0  0  0  0  0  0  0  0  0  0  0  0
   35.1638  -13.6743   35.0539 H   0  0  0  0  0  0  0  0  0  0  0  0
   35.8541  -19.0666   36.3459 C   0  0  0  0  0  0  0  0  0  0  0  0
   35.6261  -19.0413   37.6081 O   0  0  0  0  0  0  0  0  0  0  0  0
   35.0229  -19.7700   35.4691 N   0  0  0  0  0  0  0  0  0  0  0  0
   35.1684  -19.8288   34.4505 H   0  0  0  0  0  0  0  0  0  0  0  0
   33.8392  -20.5136   35.9566 C   0  0  0  0  0  0  0  0  0  0  0  0
   34.3027  -21.6307   36.8169 C   0  0  0  0  0  0  0  0  0  0  0  0
   35.5408  -22.2520   36.6895 O   0  0  0  0  0  0  0  0  0  0  0  0
   33.5725  -22.0940   37.7372 O   0  0  0  0  0  0  0  0  0  0  0  0
   35.7182  -23.2004   36.9206 H   0  0  0  0  0  0  0  0  0  0  0  0
   33.0059  -20.9293   34.7787 C   0  0  0  0  0  0  0  0  0  0  0  0
   31.5934  -21.1366   35.0852 C   0  0  0  0  0  0  0  0  0  0  0  0
   31.0627  -22.4272   35.2591 C   0  0  0  0  0  0  0  0  0  0  0  0
   29.7397  -22.6405   35.5861 C   0  0  0  0  0  0  0  0  0  0  0  0
   28.9252  -21.5423   35.7433 C   0  0  0  0  0  0  0  0  0  0  0  0
   29.4384  -20.2548   35.5734 C   0  0  0  0  0  0  0  0  0  0  0  0
   30.7568  -20.0543   35.2479 C   0  0  0  0  0  0  0  0  0  0  0  0
   38.2966  -19.0661   36.2330 C   0  0  0  0  0  0  0  0  0  0  0  0
   39.1043  -19.3791   34.9784 C   0  0  0  0  0  0  0  0  0  0  0  0
   38.6841  -20.7082   34.4110 C   0  0  0  0  0  0  0  0  0  0  0  0
   39.8518  -21.3858   33.8840 N   0  0  0  0  0  0  0  0  0  0  0  0
   40.5766  -20.8783   33.3712 H   0  0  0  0  0  0  0  0  0  0  0  0
   38.8127  -23.5602   33.7867 N   0  0  0  0  0  0  0  0  0  0  0  0
   39.9606  -22.7921   34.1077 C   0  0  0  0  0  0  0  0  0  0  0  0
   41.0252  -23.3491   34.5713 N   0  0  0  0  0  0  0  0  0  0  0  0
   38.5800  -24.3833   34.3753 H   0  0  0  0  0  0  0  0  0  0  0  0
   38.1861  -23.3318   32.9715 H   0  0  0  0  0  0  0  0  0  0  0  0
   41.8736  -22.7819   34.8094 H   0  0  0  0  0  0  0  0  0  0  0  0
 38 39  1  0  0  0
 39 40  2  0  0  0
 39 36  1  0  0  0
 36 35  1  0  0  0
 35 34  1  0  0  0
 34 33  1  0  0  0
 33  1  1  0  0  0
  1  2  1  0  0  0
  2  3  1  0  0  0
  3  4  2  0  0  0
  3  6  1  0  0  0
  6  7  1  0  0  0
  7  8  1  0  0  0
  8  9  2  0  0  0
  9 10  1  0  0  0
 10 11  2  0  0  0
 11 12  1  0  0  0
 12 13  2  0  0  0
 13 14  1  0  0  0
 14 15  1  0  0  0
  1 17  1  0  0  0
 17 18  2  0  0  0
 17 19  1  0  0  0
 19 21  1  0  0  0
 21 26  1  0  0  0
 26 27  1  0  0  0
 27 28  2  0  0  0
 28 29  1  0  0  0
 29 30  2  0  0  0
 30 31  1  0  0  0
 31 32  2  0  0  0
 21 22  1  0  0  0
 22 23  1  0  0  0
 22 24  2  0  0  0
 15  6  1  0  0  0
 32 27  1  0  0  0
 13  8  1  0  0  0
 38 41  1  0  0  0
 38 42  1  0  0  0
 40 43  1  0  0  0
 36 37  1  0  0  0
  2  5  1  0  0  0
 15 16  1  0  0  0
 19 20  1  0  0  0
 23 25  1  0  0  0
M  END
> <minimizedAffinity>
-6.77187

> <CNNscore>
0.2857260108

> <CNNaffinity>
5.5405626297

> <CNN_VS>
1.5830829144

> <CNNaffinity_variance>
0.0666725636

$$$$
[H]Oc1c([H])c([H])c(/C([H])=C(\[H])C(=O)N2C([H])([H])C([H])([H])C([H])([H])C([H])([H])C2([H])[H])c([H])c1[H]


 18 19  0  0  0  0  0  0  0  0999 V2000
   34.7964  -16.8104   36.3004 C   0  0  0  0  0  0  0  0  0  0  0  0
   34.2737  -17.4581   35.2898 C   0  0  0  0  0  0  0  0  0  0  0  0
   34.8402  -11.2254   36.3772 O   0  0  0  0  0  0  0  0  0  0  0  0
   34.8638  -12.6285   36.3575 C   0  0  0  0  0  0  0  0  0  0  0  0
   36.0572  -13.3106   36.3351 C   0  0  0  0  0  0  0  0  0  0  0  0
   36.0649  -14.7055   36.3158 C   0  0  0  0  0  0  0  0  0  0  0  0
   34.8808  -15.3775   36.3193 C   0  0  0  0  0  0  0  0  0  0  0  0
   33.6759  -14.6602   36.3422 C   0  0  0  0  0  0  0  0  0  0  0  0
   33.6608  -13.2915   36.3614 C   0  0  0  0  0  0  0  0  0  0  0  0
   34.8416  -10.7405   37.2866 H   0  0  0  0  0  0  0  0  0  0  0  0
   34.2148  -18.9121   35.3263 C   0  0  0  0  0  0  0  0  0  0  0  0
   35.2955  -19.5491   35.3700 O   0  0  0  0  0  0  0  0  0  0  0  0
   32.9478  -19.5542   35.3114 N   0  0  0  0  0  0  0  0  0  0  0  0
   31.7593  -18.7897   35.2615 C   0  0  0  0  0  0  0  0  0  0  0  0
   30.4875  -19.5163   35.1369 C   0  0  0  0  0  0  0  0  0  0  0  0
   30.5297  -20.9838   35.3637 C   0  0  0  0  0  0  0  0  0  0  0  0
   31.7375  -21.3654   36.2185 C   0  0  0  0  0  0  0  0  0  0  0  0
   32.9402  -21.0223   35.3495 C   0  0  0  0  0  0  0  0  0  0  0  0
  3  4  1  0  0  0
  4  5  2  0  0  0
  5  6  1  0  0  0
  6  7  2  0  0  0
  7  1  1  0  0  0
  1  2  2  0  0  0
  2 11  1  0  0  0
 11 12  2  0  0  0
 11 13  1  0  0  0
 13 14  1  0  0  0
 14 15  1  0  0  0
 15 16  1  0  0  0
 16 17  1  0  0  0
 17 18  1  0  0  0
  7  8  1  0  0  0
  8  9  2  0  0  0
  9  4  1  0  0  0
 18 13  1  0  0  0
  3 10  1  0  0  0
M  END
> <minimizedAffinity>
-6.11990

> <CNNscore>
0.6425919533

> <CNNaffinity>
4.3224458694

> <CNN_VS>
2.7775688171

> <CNNaffinity_variance>
0.4522145391

$$$$
[H]Oc1c([H])c([H])c(/C([H])=C(\[H])C(=O)N2C([H])([H])C([H])([H])C([H])([H])C([H])([H])C2([H])[H])c([H])c1[H]


 18 19  0  0  0  0  0  0  0  0999 V2000
   33.1677  -19.3310   34.9356 C   0  0  0  0  0  0  0  0  0  0  0  0
   34.1932  -19.3694   35.7486 C   0  0  0  0  0  0  0  0  0  0  0  0
   28.3012  -21.5315   36.5711 O   0  0  0  0  0  0  0  0  0  0  0  0
   29.5066  -20.9564   36.1400 C   0  0  0  0  0  0  0  0  0  0  0  0
   29.5066  -19.9165   35.2408 C   0  0  0  0  0  0  0  0  0  0  0  0
   30.7127  -19.3549   34.8215 C   0  0  0  0  0  0  0  0  0  0  0  0
   31.8828  -19.8485   35.3125 C   0  0  0  0  0  0  0  0  0  0  0  0
   31.8580  -20.9099   36.2288 C   0  0  0  0  0  0  0  0  0  0  0  0
   30.6781  -21.4658   36.6447 C   0  0  0  0  0  0  0  0  0  0  0  0
   27.8364  -21.1455   37.4061 H   0  0  0  0  0  0  0  0  0  0  0  0
   35.4722  -18.8293   35.3116 C   0  0  0  0  0  0  0  0  0  0  0  0
   35.4668  -17.8905   34.4783 O   0  0  0  0  0  0  0  0  0  0  0  0
   36.6718  -19.3780   35.8386 N   0  0  0  0  0  0  0  0  0  0  0  0
   36.6229  -20.4359   36.7756 C   0  0  0  0  0  0  0  0  0  0  0  0
   37.8993  -21.0312   37.1971 C   0  0  0  0  0  0  0  0  0  0  0  0
   39.1354  -20.2922   36.8329 C   0  0  0  0  0  0  0  0  0  0  0  0
   38.8331  -18.8128   36.5986 C   0  0  0  0  0  0  0  0  0  0  0  0
   37.9368  -18.7997   35.3674 C   0  0  0  0  0  0  0  0  0  0  0  0
  3  4  1  0  0  0
  4  5  2  0  0  0
  5  6  1  0  0  0
  6  7  2  0  0  0
  7  1  1  0  0  0
  1  2  2  0  0  0
  2 11  1  0  0  0
 11 12  2  0  0  0
 11 13  1  0  0  0
 13 14  1  0  0  0
 14 15  1  0  0  0
 15 16  1  0  0  0
 16 17  1  0  0  0
 17 18  1  0  0  0
  7  8  1  0  0  0
  8  9  2  0  0  0
  9  4  1  0  0  0
 18 13  1  0  0  0
  3 10  1  0  0  0
M  END
> <minimizedAffinity>
-4.29453

> <CNNscore>
0.5216897130

> <CNNaffinity>
3.6968722343

> <CNN_VS>
1.9286202192

> <CNNaffinity_variance>
0.3469309211

$$$$
[H]Oc1c([H])c([H])c(/C([H])=C(\[H])C(=O)N2C([H])([H])C([H])([H])C([H])([H])C([H])([H])C2([H])[H])c([H])c1[H]


 18 19  0  0  0  0  0  0  0  0999 V2000
   34.9597  -12.4189   36.8636 C   0  0  0  0  0  0  0  0  0  0  0  0
   35.5569  -11.5831   36.0519 C   0  0  0  0  0  0  0  0  0  0  0  0
   36.1270  -17.8812   36.8869 O   0  0  0  0  0  0  0  0  0  0  0  0
   35.8602  -16.5035   36.9027 C   0  0  0  0  0  0  0  0  0  0  0  0
   36.6336  -15.6469   37.6497 C   0  0  0  0  0  0  0  0  0  0  0  0
   36.3564  -14.2797   37.6555 C   0  0  0  0  0  0  0  0  0  0  0  0
   35.3151  -13.8088   36.9154 C   0  0  0  0  0  0  0  0  0  0  0  0
   34.5400  -14.7017   36.1613 C   0  0  0  0  0  0  0  0  0  0  0  0
   34.8063  -16.0445   36.1508 C   0  0  0  0  0  0  0  0  0  0  0  0
   36.7742  -18.2546   36.1770 H   0  0  0  0  0  0  0  0  0  0  0  0
   35.1542  -10.1844   36.0431 C   0  0  0  0  0  0  0  0  0  0  0  0
   35.9240   -9.3483   35.5101 O   0  0  0  0  0  0  0  0  0  0  0  0
   33.9151   -9.8171   36.6326 N   0  0  0  0  0  0  0  0  0  0  0  0
   33.0841  -10.7985   37.2205 C   0  0  0  0  0  0  0  0  0  0  0  0
   31.8700  -10.3381   37.9097 C   0  0  0  0  0  0  0  0  0  0  0  0
   31.4674   -8.9259   37.6853 C   0  0  0  0  0  0  0  0  0  0  0  0
   32.0467   -8.3993   36.3730 C   0  0  0  0  0  0  0  0  0  0  0  0
   33.5528   -8.3942   36.5989 C   0  0  0  0  0  0  0  0  0  0  0  0
  3  4  1  0  0  0
  4  5  2  0  0  0
  5  6  1  0  0  0
  6  7  2  0  0  0
  7  1  1  0  0  0
  1  2  2  0  0  0
  2 11  1  0  0  0
 11 12  2  0  0  0
 11 13  1  0  0  0
 13 14  1  0  0  0
 14 15  1  0  0  0
 15 16  1  0  0  0
 16 17  1  0  0  0
 17 18  1  0  0  0
  7  8  1  0  0  0
  8  9  2  0  0  0
  9  4  1  0  0  0
 18 13  1  0  0  0
  3 10  1  0  0  0
M  END
> <minimizedAffinity>
-5.39090

> <CNNscore>
0.5031307340

> <CNNaffinity>
5.0454711914

> <CNN_VS>
2.5385315418

> <CNNaffinity_variance>
0.1293211281

$$$$
[H]Oc1c([H])c([H])c(/C([H])=C(\[H])C(=O)N2C([H])([H])C([H])([H])C([H])([H])C([H])([H])C2([H])[H])c([H])c1[H]


 18 19  0  0  0  0  0  0  0  0999 V2000
   36.6123  -18.6770   33.7365 C   0  0  0  0  0  0  0  0  0  0  0  0
   37.6401  -19.0333   34.4650 C   0  0  0  0  0  0  0  0  0  0  0  0
   31.4294  -18.3049   35.7857 O   0  0  0  0  0  0  0  0  0  0  0  0
   32.7404  -18.3703   35.2891 C   0  0  0  0  0  0  0  0  0  0  0  0
   33.6824  -17.4438   35.6690 C   0  0  0  0  0  0  0  0  0  0  0  0
   34.9816  -17.5216   35.1671 C   0  0  0  0  0  0  0  0  0  0  0  0
   35.3014  -18.5221   34.3007 C   0  0  0  0  0  0  0  0  0  0  0  0
   34.3237  -19.4557   33.9275 C   0  0  0  0  0  0  0  0  0  0  0  0
   33.0468  -19.3855   34.4161 C   0  0  0  0  0  0  0  0  0  0  0  0
   31.2015  -18.8073   36.6562 H   0  0  0  0  0  0  0  0  0  0  0  0
   38.9460  -19.1745   33.8379 C   0  0  0  0  0  0  0  0  0  0  0  0
   39.4643  -18.1601   33.3108 O   0  0  0  0  0  0  0  0  0  0  0  0
   39.5833  -20.4440   33.8442 N   0  0  0  0  0  0  0  0  0  0  0  0
   38.9559  -21.5560   34.4520 C   0  0  0  0  0  0  0  0  0  0  0  0
   39.6174  -22.8629   34.3270 C   0  0  0  0  0  0  0  0  0  0  0  0
   41.0174  -22.8600   33.8304 C   0  0  0  0  0  0  0  0  0  0  0  0
   41.6780  -21.5047   34.0797 C   0  0  0  0  0  0  0  0  0  0  0  0
   40.8994  -20.5362   33.1992 C   0  0  0  0  0  0  0  0  0  0  0  0
  3  4  1  0  0  0
  4  5  2  0  0  0
  5  6  1  0  0  0
  6  7  2  0  0  0
  7  1  1  0  0  0
  1  2  2  0  0  0
  2 11  1  0  0  0
 11 12  2  0  0  0
 11 13  1  0  0  0
 13 14  1  0  0  0
 14 15  1  0  0  0
 15 16  1  0  0  0
 16 17  1  0  0  0
 17 18  1  0  0  0
  7  8  1  0  0  0
  8  9  2  0  0  0
  9  4  1  0  0  0
 18 13  1  0  0  0
  3 10  1  0  0  0
M  END
> <minimizedAffinity>
-5.12090

> <CNNscore>
0.4766476452

> <CNNaffinity>
3.7734253407

> <CNN_VS>
1.7985943556

> <CNNaffinity_variance>
0.2360260487

$$$$
[H]Oc1c([H])c([H])c(/C([H])=C(\[H])C(=O)N2C([H])([H])C([H])([H])C([H])([H])C([H])([H])C2([H])[H])c([H])c1[H]


 18 19  0  0  0  0  0  0  0  0999 V2000
   39.1122  -20.1889   37.7696 C   0  0  0  0  0  0  0  0  0  0  0  0
   38.1532  -19.6014   37.0994 C   0  0  0  0  0  0  0  0  0  0  0  0
   44.3072  -18.1713   37.3938 O   0  0  0  0  0  0  0  0  0  0  0  0
   43.0118  -18.6973   37.5154 C   0  0  0  0  0  0  0  0  0  0  0  0
   42.7126  -19.6061   38.5027 C   0  0  0  0  0  0  0  0  0  0  0  0
   41.4203  -20.1203   38.6112 C   0  0  0  0  0  0  0  0  0  0  0  0
   40.4656  -19.7118   37.7307 C   0  0  0  0  0  0  0  0  0  0  0  0
   40.7942  -18.7838   36.7318 C   0  0  0  0  0  0  0  0  0  0  0  0
   42.0602  -18.2751   36.6194 C   0  0  0  0  0  0  0  0  0  0  0  0
   44.5440  -17.3087   37.9057 H   0  0  0  0  0  0  0  0  0  0  0  0
   36.7993  -20.1301   37.1771 C   0  0  0  0  0  0  0  0  0  0  0  0
   36.4950  -20.8399   38.1667 O   0  0  0  0  0  0  0  0  0  0  0  0
   35.8773  -19.8272   36.1399 N   0  0  0  0  0  0  0  0  0  0  0  0
   36.2708  -19.0223   35.0459 C   0  0  0  0  0  0  0  0  0  0  0  0
   35.3042  -18.8385   33.9537 C   0  0  0  0  0  0  0  0  0  0  0  0
   33.9064  -19.2668   34.2175 C   0  0  0  0  0  0  0  0  0  0  0  0
   33.6196  -19.2856   35.7183 C   0  0  0  0  0  0  0  0  0  0  0  0
   34.5237  -20.3834   36.2630 C   0  0  0  0  0  0  0  0  0  0  0  0
  3  4  1  0  0  0
  4  5  2  0  0  0
  5  6  1  0  0  0
  6  7  2  0  0  0
  7  1  1  0  0  0
  1  2  2  0  0  0
  2 11  1  0  0  0
 11 12  2  0  0  0
 11 13  1  0  0  0
 13 14  1  0  0  0
 14 15  1  0  0  0
 15 16  1  0  0  0
 16 17  1  0  0  0
 17 18  1  0  0  0
  7  8  1  0  0  0
  8  9  2  0  0  0
  9  4  1  0  0  0
 18 13  1  0  0  0
  3 10  1  0  0  0
M  END
> <minimizedAffinity>
-4.26289

> <CNNscore>
0.4760298431

> <CNNaffinity>
3.6237978935

> <CNN_VS>
1.7250359058

> <CNNaffinity_variance>
0.1863822043

$$$$
[H]Oc1c([H])c([H])c(/C([H])=C(\[H])C(=O)N2C([H])([H])C([H])([H])C([H])([H])C([H])([H])C2([H])[H])c([H])c1[H]


 18 19  0  0  0  0  0  0  0  0999 V2000
   32.7464  -18.8140   35.6463 C   0  0  0  0  0  0  0  0  0  0  0  0
   31.9465  -19.5639   34.9309 C   0  0  0  0  0  0  0  0  0  0  0  0
   38.0950  -17.7814   34.4109 O   0  0  0  0  0  0  0  0  0  0  0  0
   36.7496  -18.0626   34.6944 C   0  0  0  0  0  0  0  0  0  0  0  0
   36.0370  -18.9435   33.9157 C   0  0  0  0  0  0  0  0  0  0  0  0
   34.7003  -19.2132   34.2098 C   0  0  0  0  0  0  0  0  0  0  0  0
   34.1151  -18.5952   35.2725 C   0  0  0  0  0  0  0  0  0  0  0  0
   34.8619  -17.7004   36.0525 C   0  0  0  0  0  0  0  0  0  0  0  0
   36.1740  -17.4310   35.7698 C   0  0  0  0  0  0  0  0  0  0  0  0
   38.8270  -18.3617   34.8462 H   0  0  0  0  0  0  0  0  0  0  0  0
   30.5679  -19.7498   35.3592 C   0  0  0  0  0  0  0  0  0  0  0  0
   29.8006  -18.7565   35.3383 O   0  0  0  0  0  0  0  0  0  0  0  0
   30.1420  -21.0372   35.7821 N   0  0  0  0  0  0  0  0  0  0  0  0
   31.0468  -22.1238   35.7869 C   0  0  0  0  0  0  0  0  0  0  0  0
   30.5735  -23.4012   36.3396 C   0  0  0  0  0  0  0  0  0  0  0  0
   29.1125  -23.5275   36.5773 C   0  0  0  0  0  0  0  0  0  0  0  0
   28.3338  -22.5510   35.6969 C   0  0  0  0  0  0  0  0  0  0  0  0
   28.7423  -21.1746   36.2048 C   0  0  0  0  0  0  0  0  0  0  0  0
  3  4  1  0  0  0
  4  5  2  0  0  0
  5  6  1  0  0  0
  6  7  2  0  0  0
  7  1  1  0  0  0
  1  2  2  0  0  0
  2 11  1  0  0  0
 11 12  2  0  0  0
 11 13  1  0  0  0
 13 14  1  0  0  0
 14 15  1  0  0  0
 15 16  1  0  0  0
 16 17  1  0  0  0
 17 18  1  0  0  0
  7  8  1  0  0  0
  8  9  2  0  0  0
  9  4  1  0  0  0
 18 13  1  0  0  0
  3 10  1  0  0  0
M  END
> <minimizedAffinity>
-5.26889

> <CNNscore>
0.4759418964

> <CNNaffinity>
3.7722344398

> <CNN_VS>
1.7953643799

> <CNNaffinity_variance>
0.4529790878

$$$$
[H]Oc1c([H])c([H])c(/C([H])=C(\[H])C(=O)N2C([H])([H])C([H])([H])C([H])([H])C([H])([H])C2([H])[H])c([H])c1[H]


 18 19  0  0  0  0  0  0  0  0999 V2000
   36.6488  -16.6700   36.9622 C   0  0  0  0  0  0  0  0  0  0  0  0
   36.2796  -17.8478   36.5257 C   0  0  0  0  0  0  0  0  0  0  0  0
   33.1062  -12.3778   36.4865 O   0  0  0  0  0  0  0  0  0  0  0  0
   34.0170  -13.4364   36.6254 C   0  0  0  0  0  0  0  0  0  0  0  0
   35.1699  -13.2795   37.3578 C   0  0  0  0  0  0  0  0  0  0  0  0
   36.0658  -14.3409   37.4872 C   0  0  0  0  0  0  0  0  0  0  0  0
   35.7839  -15.5272   36.8813 C   0  0  0  0  0  0  0  0  0  0  0  0
   34.6017  -15.6637   36.1393 C   0  0  0  0  0  0  0  0  0  0  0  0
   33.7180  -14.6265   36.0082 C   0  0  0  0  0  0  0  0  0  0  0  0
   32.3495  -12.2783   37.1791 H   0  0  0  0  0  0  0  0  0  0  0  0
   37.1993  -18.9708   36.6341 C   0  0  0  0  0  0  0  0  0  0  0  0
   37.2004  -19.6368   37.6981 O   0  0  0  0  0  0  0  0  0  0  0  0
   38.0561  -19.2717   35.5418 N   0  0  0  0  0  0  0  0  0  0  0  0
   38.0155  -18.4894   34.3645 C   0  0  0  0  0  0  0  0  0  0  0  0
   39.0034  -18.7848   33.3167 C   0  0  0  0  0  0  0  0  0  0  0  0
   39.7655  -20.0526   33.4532 C   0  0  0  0  0  0  0  0  0  0  0  0
   39.0006  -21.0542   34.3175 C   0  0  0  0  0  0  0  0  0  0  0  0
   38.9660  -20.4137   35.6987 C   0  0  0  0  0  0  0  0  0  0  0  0
  3  4  1  0  0  0
  4  5  2  0  0  0
  5  6  1  0  0  0
  6  7  2  0  0  0
  7  1  1  0  0  0
  1  2  2  0  0  0
  2 11  1  0  0  0
 11 12  2  0  0  0
 11 13  1  0  0  0
 13 14  1  0  0  0
 14 15  1  0  0  0
 15 16  1  0  0  0
 16 17  1  0  0  0
 17 18  1  0  0  0
  7  8  1  0  0  0
  8  9  2  0  0  0
  9  4  1  0  0  0
 18 13  1  0  0  0
  3 10  1  0  0  0
M  END
> <minimizedAffinity>
-6.32430

> <CNNscore>
0.4690448940

> <CNNaffinity>
3.8772959709

> <CNN_VS>
1.8186259270

> <CNNaffinity_variance>
0.4722755551

$$$$
[H]Oc1c([H])c([H])c(/C([H])=C(\[H])C(=O)N2C([H])([H])C([H])([H])C([H])([H])C([H])([H])C2([H])[H])c([H])c1[H]


 18 19  0  0  0  0  0  0  0  0999 V2000
   38.8001  -20.2203   36.5482 C   0  0  0  0  0  0  0  0  0  0  0  0
   39.2927  -19.0963   36.0921 C   0  0  0  0  0  0  0  0  0  0  0  0
   34.4076  -20.1043   39.9967 O   0  0  0  0  0  0  0  0  0  0  0  0
   35.5243  -20.1597   39.1486 C   0  0  0  0  0  0  0  0  0  0  0  0
   36.5211  -21.0829   39.3591 C   0  0  0  0  0  0  0  0  0  0  0  0
   37.6252  -21.1261   38.5077 C   0  0  0  0  0  0  0  0  0  0  0  0
   37.7012  -20.2460   37.4716 C   0  0  0  0  0  0  0  0  0  0  0  0
   36.6724  -19.3131   37.2766 C   0  0  0  0  0  0  0  0  0  0  0  0
   35.5860  -19.2651   38.1081 C   0  0  0  0  0  0  0  0  0  0  0  0
   33.5792  -20.6726   39.7663 H   0  0  0  0  0  0  0  0  0  0  0  0
   40.4079  -19.1318   35.1574 C   0  0  0  0  0  0  0  0  0  0  0  0
   40.2010  -19.5799   34.0032 O   0  0  0  0  0  0  0  0  0  0  0  0
   41.6803  -18.6623   35.5795 N   0  0  0  0  0  0  0  0  0  0  0  0
   41.8604  -18.1670   36.8917 C   0  0  0  0  0  0  0  0  0  0  0  0
   43.2244  -17.8005   37.2995 C   0  0  0  0  0  0  0  0  0  0  0  0
   44.2427  -17.7059   36.2222 C   0  0  0  0  0  0  0  0  0  0  0  0
   43.5785  -17.4537   34.8693 C   0  0  0  0  0  0  0  0  0  0  0  0
   42.7738  -18.7185   34.6008 C   0  0  0  0  0  0  0  0  0  0  0  0
  3  4  1  0  0  0
  4  5  2  0  0  0
  5  6  1  0  0  0
  6  7  2  0  0  0
  7  1  1  0  0  0
  1  2  2  0  0  0
  2 11  1  0  0  0
 11 12  2  0  0  0
 11 13  1  0  0  0
 13 14  1  0  0  0
 14 15  1  0  0  0
 15 16  1  0  0  0
 16 17  1  0  0  0
 17 18  1  0  0  0
  7  8  1  0  0  0
  8  9  2  0  0  0
  9  4  1  0  0  0
 18 13  1  0  0  0
  3 10  1  0  0  0
M  END
> <minimizedAffinity>
-4.20759

> <CNNscore>
0.4546434581

> <CNNaffinity>
3.6486942768

> <CNN_VS>
1.6588549614

> <CNNaffinity_variance>
0.1708472073

$$$$
[H]Oc1c([H])c([H])c(/C([H])=C(\[H])C(=O)N2C([H])([H])C([H])([H])C([H])([H])C([H])([H])C2([H])[H])c([H])c1[H]


 18 19  0  0  0  0  0  0  0  0999 V2000
   34.7736  -18.9728   36.6423 C   0  0  0  0  0  0  0  0  0  0  0  0
   35.7825  -19.0659   35.8131 C   0  0  0  0  0  0  0  0  0  0  0  0
   29.6378  -20.5901   35.1564 O   0  0  0  0  0  0  0  0  0  0  0  0
   30.9320  -20.2134   35.5473 C   0  0  0  0  0  0  0  0  0  0  0  0
   31.6947  -21.0388   36.3392 C   0  0  0  0  0  0  0  0  0  0  0  0
   32.9795  -20.6508   36.7198 C   0  0  0  0  0  0  0  0  0  0  0  0
   33.4642  -19.4503   36.2984 C   0  0  0  0  0  0  0  0  0  0  0  0
   32.6678  -18.6250   35.4912 C   0  0  0  0  0  0  0  0  0  0  0  0
   31.4062  -18.9993   35.1139 C   0  0  0  0  0  0  0  0  0  0  0  0
   29.5170  -21.1191   34.2801 H   0  0  0  0  0  0  0  0  0  0  0  0
   37.0879  -18.5643   36.2168 C   0  0  0  0  0  0  0  0  0  0  0  0
   37.1683  -17.3808   36.6272 O   0  0  0  0  0  0  0  0  0  0  0  0
   38.2158  -19.4238   36.1332 N   0  0  0  0  0  0  0  0  0  0  0  0
   38.0712  -20.7496   35.6635 C   0  0  0  0  0  0  0  0  0  0  0  0
   39.2932  -21.5498   35.4972 C   0  0  0  0  0  0  0  0  0  0  0  0
   40.5362  -21.0076   36.1036 C   0  0  0  0  0  0  0  0  0  0  0  0
   40.2075  -20.0392   37.2390 C   0  0  0  0  0  0  0  0  0  0  0  0
   39.5109  -18.8722   36.5517 C   0  0  0  0  0  0  0  0  0  0  0  0
  3  4  1  0  0  0
  4  5  2  0  0  0
  5  6  1  0  0  0
  6  7  2  0  0  0
  7  1  1  0  0  0
  1  2  2  0  0  0
  2 11  1  0  0  0
 11 12  2  0  0  0
 11 13  1  0  0  0
 13 14  1  0  0  0
 14 15  1  0  0  0
 15 16  1  0  0  0
 16 17  1  0  0  0
 17 18  1  0  0  0
  7  8  1  0  0  0
  8  9  2  0  0  0
  9  4  1  0  0  0
 18 13  1  0  0  0
  3 10  1  0  0  0
M  END
> <minimizedAffinity>
-4.02355

> <CNNscore>
0.4300501347

> <CNNaffinity>
3.7164001465

> <CNN_VS>
1.5982383490

> <CNNaffinity_variance>
0.1565636247

$$$$
[H]OC(=O)[C@@]([H])(N([H])C(=O)[C@@]([H])(N([H])C(=O)[C@@]([H])(N([H])C(=O)C([H])([H])N([H])C(=O)[C@@]([H])(N([H])C(=O)[C@@]([H])(N([H])[H])C([H])([H])c1c([H])n([H])c2c([H])c([H])c([H])c([H])c12)C([H])(C([H])([H])[H])C([H])([H])[H])C([H])([H])c1c([H])c([H])c([H])c([H])c1[H])C([H])([H])C([H])(C([H])([H])[H])C([H])([H])[H])C([H])([H])c1c([H])c([H])c([H])c([H])c1[H]


 65 68  0  0  0  0  0  0  0  0999 V2000
   31.4954  -10.9465   37.9275 C   0  0  0  0  0  0  0  0  0  0  0  0
   30.0177  -12.2903   39.4857 N   0  0  0  0  0  0  0  0  0  0  0  0
   30.3039  -11.6499   38.2778 C   0  0  0  0  0  0  0  0  0  0  0  0
   29.3752  -11.7052   37.3744 O   0  0  0  0  0  0  0  0  0  0  0  0
   30.6885  -12.3339   40.2455 H   0  0  0  0  0  0  0  0  0  0  0  0
   28.7335  -12.9406   39.6206 C   0  0  0  0  0  0  0  0  0  0  0  0
   27.7583  -11.9964   40.2776 C   0  0  0  0  0  0  0  0  0  0  0  0
   26.5487  -12.2170   40.1536 O   0  0  0  0  0  0  0  0  0  0  0  0
   28.2077  -10.8970   41.0209 N   0  0  0  0  0  0  0  0  0  0  0  0
   29.2170  -10.7018   41.1035 H   0  0  0  0  0  0  0  0  0  0  0  0
   27.2725  -10.0126   41.6837 C   0  0  0  0  0  0  0  0  0  0  0  0
   26.9803   -8.7816   40.9513 C   0  0  0  0  0  0  0  0  0  0  0  0
   27.2939   -7.5469   41.5074 O   0  0  0  0  0  0  0  0  0  0  0  0
   26.4474   -8.7997   39.8184 O   0  0  0  0  0  0  0  0  0  0  0  0
   26.8260   -7.1182   42.2798 H   0  0  0  0  0  0  0  0  0  0  0  0
   27.7802   -9.7748   43.1038 C   0  0  0  0  0  0  0  0  0  0  0  0
   27.5200  -10.9264   44.0042 C   0  0  0  0  0  0  0  0  0  0  0  0
   28.5361  -11.5620   44.6843 C   0  0  0  0  0  0  0  0  0  0  0  0
   28.2937  -12.6282   45.5025 C   0  0  0  0  0  0  0  0  0  0  0  0
   27.0013  -13.0749   45.6478 C   0  0  0  0  0  0  0  0  0  0  0  0
   25.9438  -12.4724   44.9867 C   0  0  0  0  0  0  0  0  0  0  0  0
   26.2341  -11.3982   44.1700 C   0  0  0  0  0  0  0  0  0  0  0  0
   28.6738  -14.3011   40.1176 C   0  0  0  0  0  0  0  0  0  0  0  0
   27.6490  -14.6110   42.4421 C   0  0  0  0  0  0  0  0  0  0  0  0
   28.7959  -14.6419   41.5265 C   0  0  0  0  0  0  0  0  0  0  0  0
   29.9482  -13.8273   42.1423 C   0  0  0  0  0  0  0  0  0  0  0  0
   32.1897  -11.7208   36.8451 N   0  0  0  0  0  0  0  0  0  0  0  0
   32.9499  -12.8700   37.1737 C   0  0  0  0  0  0  0  0  0  0  0  0
   33.0213  -13.1765   38.3982 O   0  0  0  0  0  0  0  0  0  0  0  0
   32.1246  -11.4239   35.8525 H   0  0  0  0  0  0  0  0  0  0  0  0
   33.5876  -13.6037   36.0695 C   0  0  0  0  0  0  0  0  0  0  0  0
   33.9222  -14.9409   36.4713 N   0  0  0  0  0  0  0  0  0  0  0  0
   33.7128  -16.0329   35.5867 C   0  0  0  0  0  0  0  0  0  0  0  0
   33.2396  -15.8765   34.4475 O   0  0  0  0  0  0  0  0  0  0  0  0
   34.3314  -15.1144   37.4366 H   0  0  0  0  0  0  0  0  0  0  0  0
   34.1024  -17.3827   36.1334 C   0  0  0  0  0  0  0  0  0  0  0  0
   33.6803  -18.3615   35.1489 N   0  0  0  0  0  0  0  0  0  0  0  0
   33.0577  -19.5282   35.6697 C   0  0  0  0  0  0  0  0  0  0  0  0
   32.9076  -19.6511   36.9291 O   0  0  0  0  0  0  0  0  0  0  0  0
   33.7990  -18.2562   34.1351 H   0  0  0  0  0  0  0  0  0  0  0  0
   32.5925  -20.5819   34.7415 C   0  0  0  0  0  0  0  0  0  0  0  0
   33.2844  -20.4872   33.4935 N   0  0  0  0  0  0  0  0  0  0  0  0
   32.8710  -19.7891   32.8407 H   0  0  0  0  0  0  0  0  0  0  0  0
   34.2941  -20.2015   33.6640 H   0  0  0  0  0  0  0  0  0  0  0  0
   32.7619  -21.9758   35.3587 C   0  0  0  0  0  0  0  0  0  0  0  0
   31.4766  -22.6863   35.2455 C   0  0  0  0  0  0  0  0  0  0  0  0
   31.2778  -23.7676   34.4206 C   0  0  0  0  0  0  0  0  0  0  0  0
   29.9913  -24.1558   34.5667 N   0  0  0  0  0  0  0  0  0  0  0  0
   29.3498  -23.3840   35.4384 C   0  0  0  0  0  0  0  0  0  0  0  0
   28.0683  -23.3486   35.9248 C   0  0  0  0  0  0  0  0  0  0  0  0
   27.6870  -22.3856   36.8545 C   0  0  0  0  0  0  0  0  0  0  0  0
   28.6059  -21.4431   37.3021 C   0  0  0  0  0  0  0  0  0  0  0  0
   29.9035  -21.4949   36.7972 C   0  0  0  0  0  0  0  0  0  0  0  0
   30.2859  -22.4470   35.8759 C   0  0  0  0  0  0  0  0  0  0  0  0
   29.5800  -24.9660   34.0447 H   0  0  0  0  0  0  0  0  0  0  0  0
   35.5963  -17.3564   36.2775 C   0  0  0  0  0  0  0  0  0  0  0  0
   36.0947  -18.2080   37.4124 C   0  0  0  0  0  0  0  0  0  0  0  0
   36.2837  -17.7779   34.9642 C   0  0  0  0  0  0  0  0  0  0  0  0
   31.4069   -9.5343   37.4580 C   0  0  0  0  0  0  0  0  0  0  0  0
   32.5509   -8.9131   36.8228 C   0  0  0  0  0  0  0  0  0  0  0  0
   33.8894   -9.1598   37.0555 C   0  0  0  0  0  0  0  0  0  0  0  0
   34.9160   -8.4747   36.3857 C   0  0  0  0  0  0  0  0  0  0  0  0
   34.5768   -7.5089   35.4479 C   0  0  0  0  0  0  0  0  0  0  0  0
   33.2684   -7.2423   35.1952 C   0  0  0  0  0  0  0  0  0  0  0  0
   32.2947   -7.9206   35.8588 C   0  0  0  0  0  0  0  0  0  0  0  0
 24 25  1  0  0  0
 25 26  1  0  0  0
 25 23  1  0  0  0
 23  6  1  0  0  0
  6  2  1  0  0  0
  2  3  1  0  0  0
  3  4  2  0  0  0
  3  1  1  0  0  0
  1 59  1  0  0  0
 59 60  1  0  0  0
 60 61  2  0  0  0
 61 62  1  0  0  0
 62 63  2  0  0  0
 63 64  1  0  0  0
 64 65  2  0  0  0
  1 27  1  0  0  0
 27 28  1  0  0  0
 28 29  2  0  0  0
 28 31  1  0  0  0
 31 32  1  0  0  0
 32 33  1  0  0  0
 33 34  2  0  0  0
 33 36  1  0  0  0
 36 37  1  0  0  0
 37 38  1  0  0  0
 38 39  2  0  0  0
 38 41  1  0  0  0
 41 42  1  0  0  0
 41 45  1  0  0  0
 45 46  1  0  0  0
 46 47  2  0  0  0
 47 48  1  0  0  0
 48 49  1  0  0  0
 49 50  2  0  0  0
 50 51  1  0  0  0
 51 52  2  0  0  0
 52 53  1  0  0  0
 53 54  2  0  0  0
 36 56  1  0  0  0
 56 57  1  0  0  0
 56 58  1  0  0  0
  6  7  1  0  0  0
  7  8  2  0  0  0
  7  9  1  0  0  0
  9 11  1  0  0  0
 11 16  1  0  0  0
 16 17  1  0  0  0
 17 18  2  0  0  0
 18 19  1  0  0  0
 19 20  2  0  0  0
 20 21  1  0  0  0
 21 22  2  0  0  0
 11 12  1  0  0  0
 12 13  1  0  0  0
 12 14  2  0  0  0
 65 60  1  0  0  0
 54 46  1  0  0  0
 22 17  1  0  0  0
 54 49  1  0  0  0
  2  5  1  0  0  0
 27 30  1  0  0  0
 32 35  1  0  0  0
 37 40  1  0  0  0
 42 43  1  0  0  0
 42 44  1  0  0  0
 48 55  1  0  0  0
  9 10  1  0  0  0
 13 15  1  0  0  0
M  END
> <minimizedAffinity>
-8.74299

> <CNNscore>
0.3617081642

> <CNNaffinity>
7.4634475708

> <CNN_VS>
2.6995899677

> <CNNaffinity_variance>
0.0960920379

$$$$
[H]OC(=O)[C@@]([H])(N([H])C(=O)[C@@]([H])(N([H])C(=O)[C@@]([H])(N([H])C(=O)C([H])([H])N([H])C(=O)[C@@]([H])(N([H])C(=O)[C@@]([H])(N([H])[H])C([H])([H])c1c([H])n([H])c2c([H])c([H])c([H])c([H])c12)C([H])(C([H])([H])[H])C([H])([H])[H])C([H])([H])c1c([H])c([H])c([H])c([H])c1[H])C([H])([H])C([H])(C([H])([H])[H])C([H])([H])[H])C([H])([H])c1c([H])c([H])c([H])c([H])c1[H]


 65 68  0  0  0  0  0  0  0  0999 V2000
   34.9142  -17.3067   35.4681 C   0  0  0  0  0  0  0  0  0  0  0  0
   34.9328  -14.8364   36.0293 N   0  0  0  0  0  0  0  0  0  0  0  0
   35.2604  -16.1737   36.2642 C   0  0  0  0  0  0  0  0  0  0  0  0
   35.9607  -16.4055   37.3307 O   0  0  0  0  0  0  0  0  0  0  0  0
   34.4161  -14.5439   35.2067 H   0  0  0  0  0  0  0  0  0  0  0  0
   35.3903  -13.8490   36.9811 C   0  0  0  0  0  0  0  0  0  0  0  0
   34.2007  -13.1712   37.6135 C   0  0  0  0  0  0  0  0  0  0  0  0
   33.5604  -13.7848   38.4740 O   0  0  0  0  0  0  0  0  0  0  0  0
   33.8304  -11.8713   37.2442 N   0  0  0  0  0  0  0  0  0  0  0  0
   34.3523  -11.3701   36.5093 H   0  0  0  0  0  0  0  0  0  0  0  0
   32.7120  -11.2060   37.8786 C   0  0  0  0  0  0  0  0  0  0  0  0
   31.4593  -11.2791   37.1285 C   0  0  0  0  0  0  0  0  0  0  0  0
   30.5268  -10.2528   37.2248 O   0  0  0  0  0  0  0  0  0  0  0  0
   31.1909  -12.2520   36.3876 O   0  0  0  0  0  0  0  0  0  0  0  0
   29.9587  -10.0525   38.0225 H   0  0  0  0  0  0  0  0  0  0  0  0
   33.1442   -9.7801   38.2121 C   0  0  0  0  0  0  0  0  0  0  0  0
   33.6595   -9.0474   37.0280 C   0  0  0  0  0  0  0  0  0  0  0  0
   34.9089   -9.2993   36.5039 C   0  0  0  0  0  0  0  0  0  0  0  0
   35.3835   -8.6148   35.4216 C   0  0  0  0  0  0  0  0  0  0  0  0
   34.5909   -7.6510   34.8441 C   0  0  0  0  0  0  0  0  0  0  0  0
   33.3280   -7.3583   35.3318 C   0  0  0  0  0  0  0  0  0  0  0  0
   32.8881   -8.0741   36.4270 C   0  0  0  0  0  0  0  0  0  0  0  0
   36.4636  -12.9477   36.6109 C   0  0  0  0  0  0  0  0  0  0  0  0
   38.9687  -12.4360   36.7202 C   0  0  0  0  0  0  0  0  0  0  0  0
   37.7091  -12.8419   37.3550 C   0  0  0  0  0  0  0  0  0  0  0  0
   37.9414  -14.1495   38.1339 C   0  0  0  0  0  0  0  0  0  0  0  0
   36.0235  -17.5381   34.4838 N   0  0  0  0  0  0  0  0  0  0  0  0
   37.1603  -18.2930   34.8635 C   0  0  0  0  0  0  0  0  0  0  0  0
   37.1885  -18.7245   36.0516 O   0  0  0  0  0  0  0  0  0  0  0  0
   35.9729  -17.1481   33.5230 H   0  0  0  0  0  0  0  0  0  0  0  0
   38.2046  -18.5087   33.8500 C   0  0  0  0  0  0  0  0  0  0  0  0
   39.5053  -18.5452   34.4571 N   0  0  0  0  0  0  0  0  0  0  0  0
   40.5571  -19.2932   33.8629 C   0  0  0  0  0  0  0  0  0  0  0  0
   40.3959  -19.9352   32.8103 O   0  0  0  0  0  0  0  0  0  0  0  0
   39.6826  -18.0069   35.3560 H   0  0  0  0  0  0  0  0  0  0  0  0
   41.8696  -19.2505   34.6032 C   0  0  0  0  0  0  0  0  0  0  0  0
   42.1166  -17.8562   34.9202 N   0  0  0  0  0  0  0  0  0  0  0  0
   43.4840  -17.4785   35.0074 C   0  0  0  0  0  0  0  0  0  0  0  0
   44.3908  -18.3520   34.8104 O   0  0  0  0  0  0  0  0  0  0  0  0
   41.3832  -17.1551   35.0733 H   0  0  0  0  0  0  0  0  0  0  0  0
   43.8340  -16.0767   35.3247 C   0  0  0  0  0  0  0  0  0  0  0  0
   43.2689  -15.6947   36.5817 N   0  0  0  0  0  0  0  0  0  0  0  0
   42.2763  -15.3871   36.5152 H   0  0  0  0  0  0  0  0  0  0  0  0
   43.3007  -16.5175   37.2540 H   0  0  0  0  0  0  0  0  0  0  0  0
   45.3541  -15.8725   35.3214 C   0  0  0  0  0  0  0  0  0  0  0  0
   45.6319  -14.5064   34.8460 C   0  0  0  0  0  0  0  0  0  0  0  0
   45.9138  -13.4542   35.6842 C   0  0  0  0  0  0  0  0  0  0  0  0
   46.1067  -12.3624   34.9110 N   0  0  0  0  0  0  0  0  0  0  0  0
   45.9634  -12.6521   33.6216 C   0  0  0  0  0  0  0  0  0  0  0  0
   46.0456  -11.9256   32.4616 C   0  0  0  0  0  0  0  0  0  0  0  0
   45.8316  -12.5309   31.2268 C   0  0  0  0  0  0  0  0  0  0  0  0
   45.5296  -13.8862   31.1553 C   0  0  0  0  0  0  0  0  0  0  0  0
   45.4508  -14.6084   32.3443 C   0  0  0  0  0  0  0  0  0  0  0  0
   45.6618  -14.0130   33.5700 C   0  0  0  0  0  0  0  0  0  0  0  0
   46.3381  -11.4201   35.3068 H   0  0  0  0  0  0  0  0  0  0  0  0
   41.6722  -20.0702   35.8452 C   0  0  0  0  0  0  0  0  0  0  0  0
   42.6983  -21.1583   36.0032 C   0  0  0  0  0  0  0  0  0  0  0  0
   41.6593  -19.1751   37.0995 C   0  0  0  0  0  0  0  0  0  0  0  0
   34.6430  -18.6160   36.1274 C   0  0  0  0  0  0  0  0  0  0  0  0
   33.3642  -19.2684   35.9350 C   0  0  0  0  0  0  0  0  0  0  0  0
   32.9640  -20.5061   36.3983 C   0  0  0  0  0  0  0  0  0  0  0  0
   31.6955  -21.0446   36.1287 C   0  0  0  0  0  0  0  0  0  0  0  0
   30.8014  -20.3053   35.3662 C   0  0  0  0  0  0  0  0  0  0  0  0
   31.1642  -19.0833   34.8953 C   0  0  0  0  0  0  0  0  0  0  0  0
   32.3992  -18.5862   35.1712 C   0  0  0  0  0  0  0  0  0  0  0  0
 24 25  1  0  0  0
 25 26  1  0  0  0
 25 23  1  0  0  0
 23  6  1  0  0  0
  6  2  1  0  0  0
  2  3  1  0  0  0
  3  4  2  0  0  0
  3  1  1  0  0  0
  1 59  1  0  0  0
 59 60  1  0  0  0
 60 61  2  0  0  0
 61 62  1  0  0  0
 62 63  2  0  0  0
 63 64  1  0  0  0
 64 65  2  0  0  0
  1 27  1  0  0  0
 27 28  1  0  0  0
 28 29  2  0  0  0
 28 31  1  0  0  0
 31 32  1  0  0  0
 32 33  1  0  0  0
 33 34  2  0  0  0
 33 36  1  0  0  0
 36 37  1  0  0  0
 37 38  1  0  0  0
 38 39  2  0  0  0
 38 41  1  0  0  0
 41 42  1  0  0  0
 41 45  1  0  0  0
 45 46  1  0  0  0
 46 47  2  0  0  0
 47 48  1  0  0  0
 48 49  1  0  0  0
 49 50  2  0  0  0
 50 51  1  0  0  0
 51 52  2  0  0  0
 52 53  1  0  0  0
 53 54  2  0  0  0
 36 56  1  0  0  0
 56 57  1  0  0  0
 56 58  1  0  0  0
  6  7  1  0  0  0
  7  8  2  0  0  0
  7  9  1  0  0  0
  9 11  1  0  0  0
 11 16  1  0  0  0
 16 17  1  0  0  0
 17 18  2  0  0  0
 18 19  1  0  0  0
 19 20  2  0  0  0
 20 21  1  0  0  0
 21 22  2  0  0  0
 11 12  1  0  0  0
 12 13  1  0  0  0
 12 14  2  0  0  0
 65 60  1  0  0  0
 54 46  1  0  0  0
 22 17  1  0  0  0
 54 49  1  0  0  0
  2  5  1  0  0  0
 27 30  1  0  0  0
 32 35  1  0  0  0
 37 40  1  0  0  0
 42 43  1  0  0  0
 42 44  1  0  0  0
 48 55  1  0  0  0
  9 10  1  0  0  0
 13 15  1  0  0  0
M  END
> <minimizedAffinity>
-8.34644

> <CNNscore>
0.2689830661

> <CNNaffinity>
7.5184888840

> <CNN_VS>
2.0223462582

> <CNNaffinity_variance>
0.1084396690

$$$$
[H]OC(=O)[C@@]([H])(N([H])C(=O)[C@@]([H])(N([H])C(=O)[C@@]([H])(N([H])C(=O)C([H])([H])N([H])C(=O)[C@@]([H])(N([H])C(=O)[C@@]([H])(N([H])[H])C([H])([H])c1c([H])n([H])c2c([H])c([H])c([H])c([H])c12)C([H])(C([H])([H])[H])C([H])([H])[H])C([H])([H])c1c([H])c([H])c([H])c([H])c1[H])C([H])([H])C([H])(C([H])([H])[H])C([H])([H])[H])C([H])([H])c1c([H])c([H])c([H])c([H])c1[H]


 65 68  0  0  0  0  0  0  0  0999 V2000
   34.0913  -17.6346   35.2042 C   0  0  0  0  0  0  0  0  0  0  0  0
   33.9617  -15.2364   36.0100 N   0  0  0  0  0  0  0  0  0  0  0  0
   34.4901  -16.5293   36.0145 C   0  0  0  0  0  0  0  0  0  0  0  0
   35.4548  -16.7431   36.8543 O   0  0  0  0  0  0  0  0  0  0  0  0
   33.2270  -14.9560   35.3691 H   0  0  0  0  0  0  0  0  0  0  0  0
   34.5230  -14.2714   36.9287 C   0  0  0  0  0  0  0  0  0  0  0  0
   33.4173  -13.4215   37.5028 C   0  0  0  0  0  0  0  0  0  0  0  0
   33.3736  -13.2583   38.7269 O   0  0  0  0  0  0  0  0  0  0  0  0
   32.4635  -12.8203   36.6711 N   0  0  0  0  0  0  0  0  0  0  0  0
   32.4885  -12.9769   35.6520 H   0  0  0  0  0  0  0  0  0  0  0  0
   31.4249  -11.9730   37.2185 C   0  0  0  0  0  0  0  0  0  0  0  0
   31.8325  -10.5882   37.4494 C   0  0  0  0  0  0  0  0  0  0  0  0
   33.0119  -10.3117   38.1311 O   0  0  0  0  0  0  0  0  0  0  0  0
   31.1439   -9.6230   37.0471 O   0  0  0  0  0  0  0  0  0  0  0  0
   33.1675  -10.4494   39.1088 H   0  0  0  0  0  0  0  0  0  0  0  0
   30.8655  -12.6624   38.4606 C   0  0  0  0  0  0  0  0  0  0  0  0
   29.5312  -12.1415   38.8513 C   0  0  0  0  0  0  0  0  0  0  0  0
   28.5920  -11.7707   37.9135 C   0  0  0  0  0  0  0  0  0  0  0  0
   27.3701  -11.2812   38.2773 C   0  0  0  0  0  0  0  0  0  0  0  0
   27.0745  -11.1571   39.6145 C   0  0  0  0  0  0  0  0  0  0  0  0
   27.9825  -11.5147   40.5974 C   0  0  0  0  0  0  0  0  0  0  0  0
   29.2052  -12.0048   40.1850 C   0  0  0  0  0  0  0  0  0  0  0  0
   35.7079  -13.5296   36.5451 C   0  0  0  0  0  0  0  0  0  0  0  0
   38.1488  -12.8557   36.9160 C   0  0  0  0  0  0  0  0  0  0  0  0
   36.8685  -13.3777   37.4088 C   0  0  0  0  0  0  0  0  0  0  0  0
   37.1217  -14.7045   38.1478 C   0  0  0  0  0  0  0  0  0  0  0  0
   35.2367  -17.9828   34.2987 N   0  0  0  0  0  0  0  0  0  0  0  0
   36.1639  -18.9823   34.6831 C   0  0  0  0  0  0  0  0  0  0  0  0
   35.9825  -19.5266   35.8098 O   0  0  0  0  0  0  0  0  0  0  0  0
   35.3639  -17.4972   33.3901 H   0  0  0  0  0  0  0  0  0  0  0  0
   37.2519  -19.2995   33.7450 C   0  0  0  0  0  0  0  0  0  0  0  0
   38.4224  -19.7391   34.4508 N   0  0  0  0  0  0  0  0  0  0  0  0
   39.6952  -19.7173   33.8195 C   0  0  0  0  0  0  0  0  0  0  0  0
   39.8437  -19.3225   32.6498 O   0  0  0  0  0  0  0  0  0  0  0  0
   38.3361  -20.0811   35.4533 H   0  0  0  0  0  0  0  0  0  0  0  0
   40.8392  -20.2085   34.6695 C   0  0  0  0  0  0  0  0  0  0  0  0
   41.7391  -20.9156   33.7775 N   0  0  0  0  0  0  0  0  0  0  0  0
   41.6366  -22.3330   33.7976 C   0  0  0  0  0  0  0  0  0  0  0  0
   40.7907  -22.8908   34.5705 O   0  0  0  0  0  0  0  0  0  0  0  0
   42.4156  -20.4620   33.1533 H   0  0  0  0  0  0  0  0  0  0  0  0
   42.5132  -23.1394   32.9205 C   0  0  0  0  0  0  0  0  0  0  0  0
   43.8822  -22.9807   33.3026 N   0  0  0  0  0  0  0  0  0  0  0  0
   44.3308  -22.1319   32.8992 H   0  0  0  0  0  0  0  0  0  0  0  0
   43.9524  -22.9031   34.3605 H   0  0  0  0  0  0  0  0  0  0  0  0
   42.1055  -24.6179   32.9407 C   0  0  0  0  0  0  0  0  0  0  0  0
   41.1793  -24.8533   31.8199 C   0  0  0  0  0  0  0  0  0  0  0  0
   41.4515  -24.4913   30.5221 C   0  0  0  0  0  0  0  0  0  0  0  0
   40.3870  -24.8509   29.7708 N   0  0  0  0  0  0  0  0  0  0  0  0
   39.4435  -25.4229   30.5122 C   0  0  0  0  0  0  0  0  0  0  0  0
   38.2033  -25.9450   30.2488 C   0  0  0  0  0  0  0  0  0  0  0  0
   37.4273  -26.4847   31.2704 C   0  0  0  0  0  0  0  0  0  0  0  0
   37.9033  -26.4998   32.5766 C   0  0  0  0  0  0  0  0  0  0  0  0
   39.1658  -25.9654   32.8253 C   0  0  0  0  0  0  0  0  0  0  0  0
   39.9381  -25.4294   31.8165 C   0  0  0  0  0  0  0  0  0  0  0  0
   40.3400  -24.6859   28.7371 H   0  0  0  0  0  0  0  0  0  0  0  0
   41.4857  -18.9816   35.2440 C   0  0  0  0  0  0  0  0  0  0  0  0
   41.1191  -18.7399   36.6823 C   0  0  0  0  0  0  0  0  0  0  0  0
   43.0184  -19.0468   35.0971 C   0  0  0  0  0  0  0  0  0  0  0  0
   33.6530  -18.9036   35.8522 C   0  0  0  0  0  0  0  0  0  0  0  0
   32.2979  -19.3789   35.6628 C   0  0  0  0  0  0  0  0  0  0  0  0
   31.2829  -18.7847   34.9395 C   0  0  0  0  0  0  0  0  0  0  0  0
   29.9946  -19.3354   34.8444 C   0  0  0  0  0  0  0  0  0  0  0  0
   29.7250  -20.5280   35.5018 C   0  0  0  0  0  0  0  0  0  0  0  0
   30.7023  -21.1386   36.2221 C   0  0  0  0  0  0  0  0  0  0  0  0
   31.9409  -20.5829   36.2975 C   0  0  0  0  0  0  0  0  0  0  0  0
 24 25  1  0  0  0
 25 26  1  0  0  0
 25 23  1  0  0  0
 23  6  1  0  0  0
  6  2  1  0  0  0
  2  3  1  0  0  0
  3  4  2  0  0  0
  3  1  1  0  0  0
  1 59  1  0  0  0
 59 60  1  0  0  0
 60 61  2  0  0  0
 61 62  1  0  0  0
 62 63  2  0  0  0
 63 64  1  0  0  0
 64 65  2  0  0  0
  1 27  1  0  0  0
 27 28  1  0  0  0
 28 29  2  0  0  0
 28 31  1  0  0  0
 31 32  1  0  0  0
 32 33  1  0  0  0
 33 34  2  0  0  0
 33 36  1  0  0  0
 36 37  1  0  0  0
 37 38  1  0  0  0
 38 39  2  0  0  0
 38 41  1  0  0  0
 41 42  1  0  0  0
 41 45  1  0  0  0
 45 46  1  0  0  0
 46 47  2  0  0  0
 47 48  1  0  0  0
 48 49  1  0  0  0
 49 50  2  0  0  0
 50 51  1  0  0  0
 51 52  2  0  0  0
 52 53  1  0  0  0
 53 54  2  0  0  0
 36 56  1  0  0  0
 56 57  1  0  0  0
 56 58  1  0  0  0
  6  7  1  0  0  0
  7  8  2  0  0  0
  7  9  1  0  0  0
  9 11  1  0  0  0
 11 16  1  0  0  0
 16 17  1  0  0  0
 17 18  2  0  0  0
 18 19  1  0  0  0
 19 20  2  0  0  0
 20 21  1  0  0  0
 21 22  2  0  0  0
 11 12  1  0  0  0
 12 13  1  0  0  0
 12 14  2  0  0  0
 65 60  1  0  0  0
 54 46  1  0  0  0
 22 17  1  0  0  0
 54 49  1  0  0  0
  2  5  1  0  0  0
 27 30  1  0  0  0
 32 35  1  0  0  0
 37 40  1  0  0  0
 42 43  1  0  0  0
 42 44  1  0  0  0
 48 55  1  0  0  0
  9 10  1  0  0  0
 13 15  1  0  0  0
M  END
> <minimizedAffinity>
-8.62224

> <CNNscore>
0.2485922426

> <CNNaffinity>
6.9250440598

> <CNN_VS>
1.7215121984

> <CNNaffinity_variance>
0.0935242847

$$$$
[H]OC(=O)[C@@]([H])(N([H])C(=O)[C@@]([H])(N([H])C(=O)[C@@]([H])(N([H])C(=O)C([H])([H])N([H])C(=O)[C@@]([H])(N([H])C(=O)[C@@]([H])(N([H])[H])C([H])([H])c1c([H])n([H])c2c([H])c([H])c([H])c([H])c12)C([H])(C([H])([H])[H])C([H])([H])[H])C([H])([H])c1c([H])c([H])c([H])c([H])c1[H])C([H])([H])C([H])(C([H])([H])[H])C([H])([H])[H])C([H])([H])c1c([H])c([H])c([H])c([H])c1[H]


 65 68  0  0  0  0  0  0  0  0999 V2000
   33.2900  -11.3401   37.2824 C   0  0  0  0  0  0  0  0  0  0  0  0
   34.0882  -13.6548   36.6322 N   0  0  0  0  0  0  0  0  0  0  0  0
   34.1633  -12.2601   36.6281 C   0  0  0  0  0  0  0  0  0  0  0  0
   35.1428  -11.7485   35.9494 O   0  0  0  0  0  0  0  0  0  0  0  0
   33.3799  -14.1554   37.1585 H   0  0  0  0  0  0  0  0  0  0  0  0
   35.0869  -14.3899   35.8890 C   0  0  0  0  0  0  0  0  0  0  0  0
   34.6950  -15.8447   35.8231 C   0  0  0  0  0  0  0  0  0  0  0  0
   33.6045  -16.1839   36.2950 O   0  0  0  0  0  0  0  0  0  0  0  0
   35.5403  -16.7935   35.2331 N   0  0  0  0  0  0  0  0  0  0  0  0
   36.4599  -16.5117   34.8607 H   0  0  0  0  0  0  0  0  0  0  0  0
   35.1476  -18.1836   35.1352 C   0  0  0  0  0  0  0  0  0  0  0  0
   36.2631  -19.1210   35.0169 C   0  0  0  0  0  0  0  0  0  0  0  0
   36.7017  -19.5298   33.7628 O   0  0  0  0  0  0  0  0  0  0  0  0
   36.8496  -19.5778   36.0244 O   0  0  0  0  0  0  0  0  0  0  0  0
   36.2107  -20.1411   33.1428 H   0  0  0  0  0  0  0  0  0  0  0  0
   34.1252  -18.3022   34.0075 C   0  0  0  0  0  0  0  0  0  0  0  0
   33.0253  -19.2459   34.3301 C   0  0  0  0  0  0  0  0  0  0  0  0
   33.1145  -20.5914   34.0458 C   0  0  0  0  0  0  0  0  0  0  0  0
   32.0956  -21.4539   34.3338 C   0  0  0  0  0  0  0  0  0  0  0  0
   30.9540  -20.9624   34.9222 C   0  0  0  0  0  0  0  0  0  0  0  0
   30.8129  -19.6190   35.2281 C   0  0  0  0  0  0  0  0  0  0  0  0
   31.8671  -18.7829   34.9199 C   0  0  0  0  0  0  0  0  0  0  0  0
   36.4913  -14.1621   36.1670 C   0  0  0  0  0  0  0  0  0  0  0  0
   38.3452  -13.4005   37.7584 C   0  0  0  0  0  0  0  0  0  0  0  0
   37.0192  -13.9790   37.5101 C   0  0  0  0  0  0  0  0  0  0  0  0
   36.9015  -15.3064   38.2813 C   0  0  0  0  0  0  0  0  0  0  0  0
   32.7577  -12.0053   38.5183 N   0  0  0  0  0  0  0  0  0  0  0  0
   31.4099  -12.4385   38.5639 C   0  0  0  0  0  0  0  0  0  0  0  0
   30.7033  -12.2154   37.5395 O   0  0  0  0  0  0  0  0  0  0  0  0
   33.3644  -12.1509   39.3480 H   0  0  0  0  0  0  0  0  0  0  0  0
   30.9500  -13.1064   39.7915 C   0  0  0  0  0  0  0  0  0  0  0  0
   29.6009  -13.5749   39.6428 N   0  0  0  0  0  0  0  0  0  0  0  0
   28.9133  -14.1526   40.7439 C   0  0  0  0  0  0  0  0  0  0  0  0
   29.4437  -14.2729   41.8621 O   0  0  0  0  0  0  0  0  0  0  0  0
   29.1129  -13.4868   38.7029 H   0  0  0  0  0  0  0  0  0  0  0  0
   27.5058  -14.6065   40.4520 C   0  0  0  0  0  0  0  0  0  0  0  0
   27.3093  -15.8376   41.1945 N   0  0  0  0  0  0  0  0  0  0  0  0
   27.4815  -17.0374   40.4522 C   0  0  0  0  0  0  0  0  0  0  0  0
   27.7879  -16.9733   39.2169 O   0  0  0  0  0  0  0  0  0  0  0  0
   27.0672  -15.8846   42.1906 H   0  0  0  0  0  0  0  0  0  0  0  0
   27.3030  -18.3425   41.1251 C   0  0  0  0  0  0  0  0  0  0  0  0
   27.2346  -18.1667   42.5428 N   0  0  0  0  0  0  0  0  0  0  0  0
   28.1684  -18.1067   42.9999 H   0  0  0  0  0  0  0  0  0  0  0  0
   26.7139  -17.2677   42.7679 H   0  0  0  0  0  0  0  0  0  0  0  0
   26.0575  -19.0684   40.6012 C   0  0  0  0  0  0  0  0  0  0  0  0
   26.4295  -20.4630   40.3076 C   0  0  0  0  0  0  0  0  0  0  0  0
   26.2293  -21.5022   41.1847 C   0  0  0  0  0  0  0  0  0  0  0  0
   26.6915  -22.6256   40.5921 N   0  0  0  0  0  0  0  0  0  0  0  0
   27.1797  -22.3681   39.3828 C   0  0  0  0  0  0  0  0  0  0  0  0
   27.7567  -23.1308   38.4002 C   0  0  0  0  0  0  0  0  0  0  0  0
   28.1843  -22.5514   37.2092 C   0  0  0  0  0  0  0  0  0  0  0  0
   28.0310  -21.1852   37.0016 C   0  0  0  0  0  0  0  0  0  0  0  0
   27.4422  -20.4262   38.0109 C   0  0  0  0  0  0  0  0  0  0  0  0
   27.0172  -20.9958   39.1926 C   0  0  0  0  0  0  0  0  0  0  0  0
   26.6566  -23.5662   41.0528 H   0  0  0  0  0  0  0  0  0  0  0  0
   26.6056  -13.5137   40.9510 C   0  0  0  0  0  0  0  0  0  0  0  0
   25.7966  -12.8708   39.8585 C   0  0  0  0  0  0  0  0  0  0  0  0
   25.6702  -14.0341   42.0596 C   0  0  0  0  0  0  0  0  0  0  0  0
   33.8043  -10.0045   37.6994 C   0  0  0  0  0  0  0  0  0  0  0  0
   33.7561   -8.8923   36.7727 C   0  0  0  0  0  0  0  0  0  0  0  0
   32.6431   -8.2125   36.3192 C   0  0  0  0  0  0  0  0  0  0  0  0
   32.7215   -7.1548   35.3988 C   0  0  0  0  0  0  0  0  0  0  0  0
   33.9679   -6.7711   34.9229 C   0  0  0  0  0  0  0  0  0  0  0  0
   35.0833   -7.4196   35.3497 C   0  0  0  0  0  0  0  0  0  0  0  0
   34.9781   -8.4408   36.2411 C   0  0  0  0  0  0  0  0  0  0  0  0
 24 25  1  0  0  0
 25 26  1  0  0  0
 25 23  1  0  0  0
 23  6  1  0  0  0
  6  2  1  0  0  0
  2  3  1  0  0  0
  3  4  2  0  0  0
  3  1  1  0  0  0
  1 59  1  0  0  0
 59 60  1  0  0  0
 60 61  2  0  0  0
 61 62  1  0  0  0
 62 63  2  0  0  0
 63 64  1  0  0  0
 64 65  2  0  0  0
  1 27  1  0  0  0
 27 28  1  0  0  0
 28 29  2  0  0  0
 28 31  1  0  0  0
 31 32  1  0  0  0
 32 33  1  0  0  0
 33 34  2  0  0  0
 33 36  1  0  0  0
 36 37  1  0  0  0
 37 38  1  0  0  0
 38 39  2  0  0  0
 38 41  1  0  0  0
 41 42  1  0  0  0
 41 45  1  0  0  0
 45 46  1  0  0  0
 46 47  2  0  0  0
 47 48  1  0  0  0
 48 49  1  0  0  0
 49 50  2  0  0  0
 50 51  1  0  0  0
 51 52  2  0  0  0
 52 53  1  0  0  0
 53 54  2  0  0  0
 36 56  1  0  0  0
 56 57  1  0  0  0
 56 58  1  0  0  0
  6  7  1  0  0  0
  7  8  2  0  0  0
  7  9  1  0  0  0
  9 11  1  0  0  0
 11 16  1  0  0  0
 16 17  1  0  0  0
 17 18  2  0  0  0
 18 19  1  0  0  0
 19 20  2  0  0  0
 20 21  1  0  0  0
 21 22  2  0  0  0
 11 12  1  0  0  0
 12 13  1  0  0  0
 12 14  2  0  0  0
 65 60  1  0  0  0
 54 46  1  0  0  0
 22 17  1  0  0  0
 54 49  1  0  0  0
  2  5  1  0  0  0
 27 30  1  0  0  0
 32 35  1  0  0  0
 37 40  1  0  0  0
 42 43  1  0  0  0
 42 44  1  0  0  0
 48 55  1  0  0  0
  9 10  1  0  0  0
 13 15  1  0  0  0
M  END
> <minimizedAffinity>
-9.25093

> <CNNscore>
0.2469210029

> <CNNaffinity>
7.5010595322

> <CNN_VS>
1.8521691561

> <CNNaffinity_variance>
0.0705230385

$$$$
[H]OC(=O)[C@@]([H])(N([H])C(=O)[C@@]([H])(N([H])C(=O)[C@@]([H])(N([H])C(=O)C([H])([H])N([H])C(=O)[C@@]([H])(N([H])C(=O)[C@@]([H])(N([H])[H])C([H])([H])c1c([H])n([H])c2c([H])c([H])c([H])c([H])c12)C([H])(C([H])([H])[H])C([H])([H])[H])C([H])([H])c1c([H])c([H])c([H])c([H])c1[H])C([H])([H])C([H])(C([H])([H])[H])C([H])([H])[H])C([H])([H])c1c([H])c([H])c([H])c([H])c1[H]


 65 68  0  0  0  0  0  0  0  0999 V2000
   33.9903  -17.5995   35.3642 C   0  0  0  0  0  0  0  0  0  0  0  0
   33.9381  -15.1770   36.1034 N   0  0  0  0  0  0  0  0  0  0  0  0
   34.4197  -16.4873   36.1489 C   0  0  0  0  0  0  0  0  0  0  0  0
   35.3671  -16.7121   37.0054 O   0  0  0  0  0  0  0  0  0  0  0  0
   33.2207  -14.8883   35.4466 H   0  0  0  0  0  0  0  0  0  0  0  0
   34.5236  -14.2077   37.0022 C   0  0  0  0  0  0  0  0  0  0  0  0
   33.4366  -13.3360   37.5791 C   0  0  0  0  0  0  0  0  0  0  0  0
   33.4523  -13.0982   38.7916 O   0  0  0  0  0  0  0  0  0  0  0  0
   32.4340  -12.7973   36.7620 N   0  0  0  0  0  0  0  0  0  0  0  0
   32.4099  -13.0160   35.7544 H   0  0  0  0  0  0  0  0  0  0  0  0
   31.4127  -11.9291   37.3090 C   0  0  0  0  0  0  0  0  0  0  0  0
   31.8299  -10.5389   37.4838 C   0  0  0  0  0  0  0  0  0  0  0  0
   33.0175  -10.2438   38.1431 O   0  0  0  0  0  0  0  0  0  0  0  0
   31.1426   -9.5855   37.0521 O   0  0  0  0  0  0  0  0  0  0  0  0
   33.1821  -10.3455   39.1237 H   0  0  0  0  0  0  0  0  0  0  0  0
   30.8850  -12.5758   38.5874 C   0  0  0  0  0  0  0  0  0  0  0  0
   29.4045  -12.5211   38.6866 C   0  0  0  0  0  0  0  0  0  0  0  0
   28.6656  -11.5686   38.0188 C   0  0  0  0  0  0  0  0  0  0  0  0
   27.3049  -11.5148   38.1220 C   0  0  0  0  0  0  0  0  0  0  0  0
   26.6608  -12.4365   38.9135 C   0  0  0  0  0  0  0  0  0  0  0  0
   27.3559  -13.4139   39.6063 C   0  0  0  0  0  0  0  0  0  0  0  0
   28.7296  -13.4317   39.4733 C   0  0  0  0  0  0  0  0  0  0  0  0
   35.7131  -13.4867   36.5939 C   0  0  0  0  0  0  0  0  0  0  0  0
   38.1710  -12.8458   36.9069 C   0  0  0  0  0  0  0  0  0  0  0  0
   36.9039  -13.3779   37.4225 C   0  0  0  0  0  0  0  0  0  0  0  0
   37.1708  -14.7351   38.0988 C   0  0  0  0  0  0  0  0  0  0  0  0
   35.0637  -17.8996   34.3588 N   0  0  0  0  0  0  0  0  0  0  0  0
   36.0297  -18.8988   34.6322 C   0  0  0  0  0  0  0  0  0  0  0  0
   35.9448  -19.4849   35.7492 O   0  0  0  0  0  0  0  0  0  0  0  0
   35.1127  -17.3805   33.4611 H   0  0  0  0  0  0  0  0  0  0  0  0
   37.0430  -19.1675   33.6000 C   0  0  0  0  0  0  0  0  0  0  0  0
   38.3669  -18.9826   34.1240 N   0  0  0  0  0  0  0  0  0  0  0  0
   39.0933  -20.0838   34.6519 C   0  0  0  0  0  0  0  0  0  0  0  0
   38.6193  -21.2330   34.6799 O   0  0  0  0  0  0  0  0  0  0  0  0
   38.8071  -18.0154   34.1149 H   0  0  0  0  0  0  0  0  0  0  0  0
   40.4685  -19.7522   35.1728 C   0  0  0  0  0  0  0  0  0  0  0  0
   40.8212  -20.8092   36.1021 N   0  0  0  0  0  0  0  0  0  0  0  0
   41.0009  -20.4055   37.4530 C   0  0  0  0  0  0  0  0  0  0  0  0
   40.8493  -19.1800   37.7678 O   0  0  0  0  0  0  0  0  0  0  0  0
   40.9376  -21.7958   35.8450 H   0  0  0  0  0  0  0  0  0  0  0  0
   41.3606  -21.4143   38.4733 C   0  0  0  0  0  0  0  0  0  0  0  0
   42.5558  -21.0272   39.1567 N   0  0  0  0  0  0  0  0  0  0  0  0
   43.4276  -21.2898   38.6511 H   0  0  0  0  0  0  0  0  0  0  0  0
   42.5700  -19.9720   39.2846 H   0  0  0  0  0  0  0  0  0  0  0  0
   40.2094  -21.6344   39.4625 C   0  0  0  0  0  0  0  0  0  0  0  0
   39.1298  -22.3469   38.7581 C   0  0  0  0  0  0  0  0  0  0  0  0
   39.3256  -23.5039   38.0424 C   0  0  0  0  0  0  0  0  0  0  0  0
   38.1290  -23.8700   37.5313 N   0  0  0  0  0  0  0  0  0  0  0  0
   37.1736  -23.0127   37.8766 C   0  0  0  0  0  0  0  0  0  0  0  0
   35.8290  -22.9236   37.6227 C   0  0  0  0  0  0  0  0  0  0  0  0
   35.0766  -21.8714   38.1364 C   0  0  0  0  0  0  0  0  0  0  0  0
   35.6834  -20.8932   38.9162 C   0  0  0  0  0  0  0  0  0  0  0  0
   37.0503  -21.0006   39.1640 C   0  0  0  0  0  0  0  0  0  0  0  0
   37.7998  -22.0410   38.6571 C   0  0  0  0  0  0  0  0  0  0  0  0
   38.0019  -24.7262   36.9407 H   0  0  0  0  0  0  0  0  0  0  0  0
   41.3751  -19.7467   33.9763 C   0  0  0  0  0  0  0  0  0  0  0  0
   42.4936  -18.7476   34.0882 C   0  0  0  0  0  0  0  0  0  0  0  0
   41.9511  -21.1520   33.7154 C   0  0  0  0  0  0  0  0  0  0  0  0
   33.6545  -18.8884   36.0337 C   0  0  0  0  0  0  0  0  0  0  0  0
   32.3406  -19.4718   35.8561 C   0  0  0  0  0  0  0  0  0  0  0  0
   31.8823  -20.6893   36.3190 C   0  0  0  0  0  0  0  0  0  0  0  0
   30.5837  -21.1590   36.0645 C   0  0  0  0  0  0  0  0  0  0  0  0
   29.7194  -20.3696   35.3181 C   0  0  0  0  0  0  0  0  0  0  0  0
   30.1394  -19.1657   34.8479 C   0  0  0  0  0  0  0  0  0  0  0  0
   31.4025  -18.7357   35.1091 C   0  0  0  0  0  0  0  0  0  0  0  0
 24 25  1  0  0  0
 25 26  1  0  0  0
 25 23  1  0  0  0
 23  6  1  0  0  0
  6  2  1  0  0  0
  2  3  1  0  0  0
  3  4  2  0  0  0
  3  1  1  0  0  0
  1 59  1  0  0  0
 59 60  1  0  0  0
 60 61  2  0  0  0
 61 62  1  0  0  0
 62 63  2  0  0  0
 63 64  1  0  0  0
 64 65  2  0  0  0
  1 27  1  0  0  0
 27 28  1  0  0  0
 28 29  2  0  0  0
 28 31  1  0  0  0
 31 32  1  0  0  0
 32 33  1  0  0  0
 33 34  2  0  0  0
 33 36  1  0  0  0
 36 37  1  0  0  0
 37 38  1  0  0  0
 38 39  2  0  0  0
 38 41  1  0  0  0
 41 42  1  0  0  0
 41 45  1  0  0  0
 45 46  1  0  0  0
 46 47  2  0  0  0
 47 48  1  0  0  0
 48 49  1  0  0  0
 49 50  2  0  0  0
 50 51  1  0  0  0
 51 52  2  0  0  0
 52 53  1  0  0  0
 53 54  2  0  0  0
 36 56  1  0  0  0
 56 57  1  0  0  0
 56 58  1  0  0  0
  6  7  1  0  0  0
  7  8  2  0  0  0
  7  9  1  0  0  0
  9 11  1  0  0  0
 11 16  1  0  0  0
 16 17  1  0  0  0
 17 18  2  0  0  0
 18 19  1  0  0  0
 19 20  2  0  0  0
 20 21  1  0  0  0
 21 22  2  0  0  0
 11 12  1  0  0  0
 12 13  1  0  0  0
 12 14  2  0  0  0
 65 60  1  0  0  0
 54 46  1  0  0  0
 22 17  1  0  0  0
 54 49  1  0  0  0
  2  5  1  0  0  0
 27 30  1  0  0  0
 32 35  1  0  0  0
 37 40  1  0  0  0
 42 43  1  0  0  0
 42 44  1  0  0  0
 48 55  1  0  0  0
  9 10  1  0  0  0
 13 15  1  0  0  0
M  END
> <minimizedAffinity>
-7.97450

> <CNNscore>
0.2238939404

> <CNNaffinity>
7.0994696617

> <CNN_VS>
1.5895282030

> <CNNaffinity_variance>
0.2990179658

$$$$
[H]OC(=O)[C@@]([H])(N([H])C(=O)[C@@]([H])(N([H])C(=O)[C@@]([H])(N([H])C(=O)C([H])([H])N([H])C(=O)[C@@]([H])(N([H])C(=O)[C@@]([H])(N([H])[H])C([H])([H])c1c([H])n([H])c2c([H])c([H])c([H])c([H])c12)C([H])(C([H])([H])[H])C([H])([H])[H])C([H])([H])c1c([H])c([H])c([H])c([H])c1[H])C([H])([H])C([H])(C([H])([H])[H])C([H])([H])[H])C([H])([H])c1c([H])c([H])c([H])c([H])c1[H]


 65 68  0  0  0  0  0  0  0  0999 V2000
   33.9379  -16.8029   35.5032 C   0  0  0  0  0  0  0  0  0  0  0  0
   33.2183  -14.5532   36.4189 N   0  0  0  0  0  0  0  0  0  0  0  0
   34.1617  -15.5441   36.1375 C   0  0  0  0  0  0  0  0  0  0  0  0
   35.3801  -15.2831   36.4966 O   0  0  0  0  0  0  0  0  0  0  0  0
   32.2441  -14.6439   36.1505 H   0  0  0  0  0  0  0  0  0  0  0  0
   33.6746  -13.3501   37.0781 C   0  0  0  0  0  0  0  0  0  0  0  0
   32.6435  -12.9066   38.0852 C   0  0  0  0  0  0  0  0  0  0  0  0
   32.9676  -12.8517   39.2764 O   0  0  0  0  0  0  0  0  0  0  0  0
   31.3480  -12.5545   37.6842 N   0  0  0  0  0  0  0  0  0  0  0  0
   31.0731  -12.6233   36.6926 H   0  0  0  0  0  0  0  0  0  0  0  0
   30.3696  -12.0918   38.6459 C   0  0  0  0  0  0  0  0  0  0  0  0
   30.1063  -13.0262   39.7390 C   0  0  0  0  0  0  0  0  0  0  0  0
   30.7227  -12.8498   40.9722 O   0  0  0  0  0  0  0  0  0  0  0  0
   29.3298  -13.9987   39.6017 O   0  0  0  0  0  0  0  0  0  0  0  0
   31.6915  -12.9995   41.1679 H   0  0  0  0  0  0  0  0  0  0  0  0
   29.1168  -11.6797   37.8768 C   0  0  0  0  0  0  0  0  0  0  0  0
   28.3195  -10.6514   38.5919 C   0  0  0  0  0  0  0  0  0  0  0  0
   28.8791   -9.4694   39.0263 C   0  0  0  0  0  0  0  0  0  0  0  0
   28.1447   -8.5313   39.6939 C   0  0  0  0  0  0  0  0  0  0  0  0
   26.8137   -8.7773   39.9363 C   0  0  0  0  0  0  0  0  0  0  0  0
   26.2024   -9.9491   39.5219 C   0  0  0  0  0  0  0  0  0  0  0  0
   26.9819  -10.8695   38.8507 C   0  0  0  0  0  0  0  0  0  0  0  0
   34.2361  -12.2740   36.2855 C   0  0  0  0  0  0  0  0  0  0  0  0
   33.7875  -10.0241   37.4197 C   0  0  0  0  0  0  0  0  0  0  0  0
   34.7059  -11.0222   36.8587 C   0  0  0  0  0  0  0  0  0  0  0  0
   35.6421  -10.3289   35.8520 C   0  0  0  0  0  0  0  0  0  0  0  0
   35.0255  -17.0112   34.4898 N   0  0  0  0  0  0  0  0  0  0  0  0
   36.2178  -17.6808   34.8591 C   0  0  0  0  0  0  0  0  0  0  0  0
   36.3118  -18.0581   36.0622 O   0  0  0  0  0  0  0  0  0  0  0  0
   34.9192  -16.6669   33.5162 H   0  0  0  0  0  0  0  0  0  0  0  0
   37.2386  -17.8787   33.8183 C   0  0  0  0  0  0  0  0  0  0  0  0
   38.5092  -18.2011   34.4043 N   0  0  0  0  0  0  0  0  0  0  0  0
   38.9784  -19.5422   34.4147 C   0  0  0  0  0  0  0  0  0  0  0  0
   38.3183  -20.4749   33.9242 O   0  0  0  0  0  0  0  0  0  0  0  0
   39.1034  -17.4304   34.8312 H   0  0  0  0  0  0  0  0  0  0  0  0
   40.3241  -19.7439   35.0634 C   0  0  0  0  0  0  0  0  0  0  0  0
   40.2862  -21.0528   35.6885 N   0  0  0  0  0  0  0  0  0  0  0  0
   39.9765  -21.0630   37.0755 C   0  0  0  0  0  0  0  0  0  0  0  0
   39.7562  -19.9619   37.6781 O   0  0  0  0  0  0  0  0  0  0  0  0
   40.4597  -21.9374   35.1982 H   0  0  0  0  0  0  0  0  0  0  0  0
   39.9137  -22.3519   37.7987 C   0  0  0  0  0  0  0  0  0  0  0  0
   41.1878  -23.0009   37.7712 N   0  0  0  0  0  0  0  0  0  0  0  0
   41.3580  -23.5463   36.9006 H   0  0  0  0  0  0  0  0  0  0  0  0
   41.9613  -22.2757   37.8464 H   0  0  0  0  0  0  0  0  0  0  0  0
   39.4297  -22.1534   39.2405 C   0  0  0  0  0  0  0  0  0  0  0  0
   38.0634  -22.6940   39.3438 C   0  0  0  0  0  0  0  0  0  0  0  0
   37.7870  -24.0300   39.5108 C   0  0  0  0  0  0  0  0  0  0  0  0
   36.4426  -24.1614   39.5580 N   0  0  0  0  0  0  0  0  0  0  0  0
   35.8374  -22.9849   39.4291 C   0  0  0  0  0  0  0  0  0  0  0  0
   34.5279  -22.5789   39.4039 C   0  0  0  0  0  0  0  0  0  0  0  0
   34.2031  -21.2351   39.2438 C   0  0  0  0  0  0  0  0  0  0  0  0
   35.2082  -20.2843   39.1061 C   0  0  0  0  0  0  0  0  0  0  0  0
   36.5329  -20.7153   39.1347 C   0  0  0  0  0  0  0  0  0  0  0  0
   36.8595  -22.0456   39.2928 C   0  0  0  0  0  0  0  0  0  0  0  0
   35.9665  -25.0868   39.6807 H   0  0  0  0  0  0  0  0  0  0  0  0
   41.3320  -19.6940   33.9520 C   0  0  0  0  0  0  0  0  0  0  0  0
   42.5267  -18.8404   34.2769 C   0  0  0  0  0  0  0  0  0  0  0  0
   41.7911  -21.1122   33.5611 C   0  0  0  0  0  0  0  0  0  0  0  0
   33.8741  -18.0431   36.3279 C   0  0  0  0  0  0  0  0  0  0  0  0
   33.0771  -19.1664   35.8795 C   0  0  0  0  0  0  0  0  0  0  0  0
   33.4393  -20.4978   35.8275 C   0  0  0  0  0  0  0  0  0  0  0  0
   32.5799  -21.5011   35.3515 C   0  0  0  0  0  0  0  0  0  0  0  0
   31.3108  -21.1455   34.9152 C   0  0  0  0  0  0  0  0  0  0  0  0
   30.9231  -19.8436   34.9535 C   0  0  0  0  0  0  0  0  0  0  0  0
   31.7760  -18.8925   35.4189 C   0  0  0  0  0  0  0  0  0  0  0  0
 24 25  1  0  0  0
 25 26  1  0  0  0
 25 23  1  0  0  0
 23  6  1  0  0  0
  6  2  1  0  0  0
  2  3  1  0  0  0
  3  4  2  0  0  0
  3  1  1  0  0  0
  1 59  1  0  0  0
 59 60  1  0  0  0
 60 61  2  0  0  0
 61 62  1  0  0  0
 62 63  2  0  0  0
 63 64  1  0  0  0
 64 65  2  0  0  0
  1 27  1  0  0  0
 27 28  1  0  0  0
 28 29  2  0  0  0
 28 31  1  0  0  0
 31 32  1  0  0  0
 32 33  1  0  0  0
 33 34  2  0  0  0
 33 36  1  0  0  0
 36 37  1  0  0  0
 37 38  1  0  0  0
 38 39  2  0  0  0
 38 41  1  0  0  0
 41 42  1  0  0  0
 41 45  1  0  0  0
 45 46  1  0  0  0
 46 47  2  0  0  0
 47 48  1  0  0  0
 48 49  1  0  0  0
 49 50  2  0  0  0
 50 51  1  0  0  0
 51 52  2  0  0  0
 52 53  1  0  0  0
 53 54  2  0  0  0
 36 56  1  0  0  0
 56 57  1  0  0  0
 56 58  1  0  0  0
  6  7  1  0  0  0
  7  8  2  0  0  0
  7  9  1  0  0  0
  9 11  1  0  0  0
 11 16  1  0  0  0
 16 17  1  0  0  0
 17 18  2  0  0  0
 18 19  1  0  0  0
 19 20  2  0  0  0
 20 21  1  0  0  0
 21 22  2  0  0  0
 11 12  1  0  0  0
 12 13  1  0  0  0
 12 14  2  0  0  0
 65 60  1  0  0  0
 54 46  1  0  0  0
 22 17  1  0  0  0
 54 49  1  0  0  0
  2  5  1  0  0  0
 27 30  1  0  0  0
 32 35  1  0  0  0
 37 40  1  0  0  0
 42 43  1  0  0  0
 42 44  1  0  0  0
 48 55  1  0  0  0
  9 10  1  0  0  0
 13 15  1  0  0  0
M  END
> <minimizedAffinity>
-7.50122

> <CNNscore>
0.1808175147

> <CNNaffinity>
7.0676903725

> <CNN_VS>
1.2779622078

> <CNNaffinity_variance>
0.0635284334

$$$$
[H]OC(=O)[C@@]([H])(N([H])C(=O)[C@@]([H])(N([H])C(=O)[C@@]([H])(N([H])C(=O)C([H])([H])N([H])C(=O)[C@@]([H])(N([H])C(=O)[C@@]([H])(N([H])[H])C([H])([H])c1c([H])n([H])c2c([H])c([H])c([H])c([H])c12)C([H])(C([H])([H])[H])C([H])([H])[H])C([H])([H])c1c([H])c([H])c([H])c([H])c1[H])C([H])([H])C([H])(C([H])([H])[H])C([H])([H])[H])C([H])([H])c1c([H])c([H])c([H])c([H])c1[H]


 65 68  0  0  0  0  0  0  0  0999 V2000
   34.5662  -12.9575   37.6496 C   0  0  0  0  0  0  0  0  0  0  0  0
   32.5575  -12.4152   39.0948 N   0  0  0  0  0  0  0  0  0  0  0  0
   33.2331  -13.1535   38.1205 C   0  0  0  0  0  0  0  0  0  0  0  0
   32.5660  -14.1288   37.5863 O   0  0  0  0  0  0  0  0  0  0  0  0
   32.9997  -11.6525   39.5971 H   0  0  0  0  0  0  0  0  0  0  0  0
   31.1984  -12.7934   39.4110 C   0  0  0  0  0  0  0  0  0  0  0  0
   30.2421  -11.8389   38.7411 C   0  0  0  0  0  0  0  0  0  0  0  0
   30.3637  -11.6362   37.5282 O   0  0  0  0  0  0  0  0  0  0  0  0
   29.2305  -11.2005   39.4706 N   0  0  0  0  0  0  0  0  0  0  0  0
   29.1456  -11.3535   40.4870 H   0  0  0  0  0  0  0  0  0  0  0  0
   28.2883  -10.3141   38.8204 C   0  0  0  0  0  0  0  0  0  0  0  0
   28.3450   -8.9275   39.2804 C   0  0  0  0  0  0  0  0  0  0  0  0
   29.5517   -8.2376   39.2714 O   0  0  0  0  0  0  0  0  0  0  0  0
   27.3256   -8.3271   39.6900 O   0  0  0  0  0  0  0  0  0  0  0  0
   30.3231   -8.4018   39.8855 H   0  0  0  0  0  0  0  0  0  0  0  0
   26.9010  -10.9413   38.9346 C   0  0  0  0  0  0  0  0  0  0  0  0
   26.7293  -11.7253   40.1837 C   0  0  0  0  0  0  0  0  0  0  0  0
   26.3611  -13.0531   40.1642 C   0  0  0  0  0  0  0  0  0  0  0  0
   26.1930  -13.7674   41.3160 C   0  0  0  0  0  0  0  0  0  0  0  0
   26.3975  -13.1411   42.5230 C   0  0  0  0  0  0  0  0  0  0  0  0
   26.7678  -11.8087   42.5986 C   0  0  0  0  0  0  0  0  0  0  0  0
   26.9265  -11.1248   41.4102 C   0  0  0  0  0  0  0  0  0  0  0  0
   30.8517  -13.1230   40.7795 C   0  0  0  0  0  0  0  0  0  0  0  0
   29.6676  -14.6699   42.4392 C   0  0  0  0  0  0  0  0  0  0  0  0
   29.7505  -14.0052   41.1331 C   0  0  0  0  0  0  0  0  0  0  0  0
   29.5755  -15.0594   40.0247 C   0  0  0  0  0  0  0  0  0  0  0  0
   35.2145  -14.3050   37.5188 N   0  0  0  0  0  0  0  0  0  0  0  0
   36.6267  -14.4111   37.4926 C   0  0  0  0  0  0  0  0  0  0  0  0
   37.2819  -13.3319   37.5613 O   0  0  0  0  0  0  0  0  0  0  0  0
   34.6407  -15.1668   37.4429 H   0  0  0  0  0  0  0  0  0  0  0  0
   37.2069  -15.7590   37.3880 C   0  0  0  0  0  0  0  0  0  0  0  0
   36.7411  -16.4247   36.2041 N   0  0  0  0  0  0  0  0  0  0  0  0
   35.9855  -17.6240   36.3018 C   0  0  0  0  0  0  0  0  0  0  0  0
   35.7016  -18.1362   37.3987 O   0  0  0  0  0  0  0  0  0  0  0  0
   36.9616  -16.0159   35.2483 H   0  0  0  0  0  0  0  0  0  0  0  0
   35.5622  -18.2223   34.9845 C   0  0  0  0  0  0  0  0  0  0  0  0
   36.4827  -19.3106   34.7135 N   0  0  0  0  0  0  0  0  0  0  0  0
   37.6046  -18.9803   33.9059 C   0  0  0  0  0  0  0  0  0  0  0  0
   37.7399  -17.7883   33.4759 O   0  0  0  0  0  0  0  0  0  0  0  0
   36.3723  -20.2681   35.0657 H   0  0  0  0  0  0  0  0  0  0  0  0
   38.5988  -20.0251   33.5772 C   0  0  0  0  0  0  0  0  0  0  0  0
   39.3613  -19.6434   32.4290 N   0  0  0  0  0  0  0  0  0  0  0  0
   38.8926  -19.8653   31.5260 H   0  0  0  0  0  0  0  0  0  0  0  0
   39.5347  -18.5948   32.4461 H   0  0  0  0  0  0  0  0  0  0  0  0
   39.5145  -20.3123   34.7736 C   0  0  0  0  0  0  0  0  0  0  0  0
   39.7516  -21.7649   34.8309 C   0  0  0  0  0  0  0  0  0  0  0  0
   39.0138  -22.6237   35.6102 C   0  0  0  0  0  0  0  0  0  0  0  0
   39.5085  -23.8672   35.4204 N   0  0  0  0  0  0  0  0  0  0  0  0
   40.5247  -23.8573   34.5636 C   0  0  0  0  0  0  0  0  0  0  0  0
   41.3539  -24.8209   34.0496 C   0  0  0  0  0  0  0  0  0  0  0  0
   42.3599  -24.4861   33.1479 C   0  0  0  0  0  0  0  0  0  0  0  0
   42.5368  -23.1637   32.7568 C   0  0  0  0  0  0  0  0  0  0  0  0
   41.6846  -22.1984   33.2890 C   0  0  0  0  0  0  0  0  0  0  0  0
   40.6867  -22.5252   34.1827 C   0  0  0  0  0  0  0  0  0  0  0  0
   39.1198  -24.7125   35.9024 H   0  0  0  0  0  0  0  0  0  0  0  0
   34.1620  -18.7238   35.1876 C   0  0  0  0  0  0  0  0  0  0  0  0
   33.1386  -17.6221   35.2143 C   0  0  0  0  0  0  0  0  0  0  0  0
   33.7875  -19.7617   34.1118 C   0  0  0  0  0  0  0  0  0  0  0  0
   34.7956  -12.2421   36.3620 C   0  0  0  0  0  0  0  0  0  0  0  0
   34.7095  -10.7969   36.3153 C   0  0  0  0  0  0  0  0  0  0  0  0
   35.5341   -9.9183   35.6411 C   0  0  0  0  0  0  0  0  0  0  0  0
   35.3607   -8.5256   35.6875 C   0  0  0  0  0  0  0  0  0  0  0  0
   34.3168   -8.0047   36.4400 C   0  0  0  0  0  0  0  0  0  0  0  0
   33.4868   -8.8423   37.1154 C   0  0  0  0  0  0  0  0  0  0  0  0
   33.6782  -10.1870   37.0531 C   0  0  0  0  0  0  0  0  0  0  0  0
 24 25  1  0  0  0
 25 26  1  0  0  0
 25 23  1  0  0  0
 23  6  1  0  0  0
  6  2  1  0  0  0
  2  3  1  0  0  0
  3  4  2  0  0  0
  3  1  1  0  0  0
  1 59  1  0  0  0
 59 60  1  0  0  0
 60 61  2  0  0  0
 61 62  1  0  0  0
 62 63  2  0  0  0
 63 64  1  0  0  0
 64 65  2  0  0  0
  1 27  1  0  0  0
 27 28  1  0  0  0
 28 29  2  0  0  0
 28 31  1  0  0  0
 31 32  1  0  0  0
 32 33  1  0  0  0
 33 34  2  0  0  0
 33 36  1  0  0  0
 36 37  1  0  0  0
 37 38  1  0  0  0
 38 39  2  0  0  0
 38 41  1  0  0  0
 41 42  1  0  0  0
 41 45  1  0  0  0
 45 46  1  0  0  0
 46 47  2  0  0  0
 47 48  1  0  0  0
 48 49  1  0  0  0
 49 50  2  0  0  0
 50 51  1  0  0  0
 51 52  2  0  0  0
 52 53  1  0  0  0
 53 54  2  0  0  0
 36 56  1  0  0  0
 56 57  1  0  0  0
 56 58  1  0  0  0
  6  7  1  0  0  0
  7  8  2  0  0  0
  7  9  1  0  0  0
  9 11  1  0  0  0
 11 16  1  0  0  0
 16 17  1  0  0  0
 17 18  2  0  0  0
 18 19  1  0  0  0
 19 20  2  0  0  0
 20 21  1  0  0  0
 21 22  2  0  0  0
 11 12  1  0  0  0
 12 13  1  0  0  0
 12 14  2  0  0  0
 65 60  1  0  0  0
 54 46  1  0  0  0
 22 17  1  0  0  0
 54 49  1  0  0  0
  2  5  1  0  0  0
 27 30  1  0  0  0
 32 35  1  0  0  0
 37 40  1  0  0  0
 42 43  1  0  0  0
 42 44  1  0  0  0
 48 55  1  0  0  0
  9 10  1  0  0  0
 13 15  1  0  0  0
M  END
> <minimizedAffinity>
-8.20946

> <CNNscore>
0.1470748931

> <CNNaffinity>
6.9634284973

> <CNN_VS>
1.0241454840

> <CNNaffinity_variance>
0.1939660460

$$$$
[H]OC(=O)[C@@]([H])(N([H])C(=O)[C@@]([H])(N([H])C(=O)[C@@]([H])(N([H])C(=O)C([H])([H])N([H])C(=O)[C@@]([H])(N([H])C(=O)[C@@]([H])(N([H])[H])C([H])([H])c1c([H])n([H])c2c([H])c([H])c([H])c([H])c12)C([H])(C([H])([H])[H])C([H])([H])[H])C([H])([H])c1c([H])c([H])c([H])c([H])c1[H])C([H])([H])C([H])(C([H])([H])[H])C([H])([H])[H])C([H])([H])c1c([H])c([H])c([H])c([H])c1[H]


 65 68  0  0  0  0  0  0  0  0999 V2000
   34.4623  -12.6635   37.8509 C   0  0  0  0  0  0  0  0  0  0  0  0
   32.2800  -12.5299   39.1305 N   0  0  0  0  0  0  0  0  0  0  0  0
   33.0963  -12.9960   38.0974 C   0  0  0  0  0  0  0  0  0  0  0  0
   32.5426  -13.8272   37.2703 O   0  0  0  0  0  0  0  0  0  0  0  0
   32.6247  -11.9021   39.8491 H   0  0  0  0  0  0  0  0  0  0  0  0
   30.9146  -13.0023   39.1815 C   0  0  0  0  0  0  0  0  0  0  0  0
   29.9946  -11.9417   38.6309 C   0  0  0  0  0  0  0  0  0  0  0  0
   30.0349  -11.6962   37.4205 O   0  0  0  0  0  0  0  0  0  0  0  0
   29.1055  -11.2532   39.4666 N   0  0  0  0  0  0  0  0  0  0  0  0
   29.0901  -11.4436   40.4801 H   0  0  0  0  0  0  0  0  0  0  0  0
   28.1953  -10.2624   38.9320 C   0  0  0  0  0  0  0  0  0  0  0  0
   28.5111   -8.8851   39.3072 C   0  0  0  0  0  0  0  0  0  0  0  0
   29.7722   -8.3620   39.0463 O   0  0  0  0  0  0  0  0  0  0  0  0
   27.6698   -8.1450   39.8657 O   0  0  0  0  0  0  0  0  0  0  0  0
   30.6175   -8.6126   39.5174 H   0  0  0  0  0  0  0  0  0  0  0  0
   26.7750  -10.6867   39.2977 C   0  0  0  0  0  0  0  0  0  0  0  0
   26.7233  -11.5015   40.5378 C   0  0  0  0  0  0  0  0  0  0  0  0
   27.4910  -11.1966   41.6409 C   0  0  0  0  0  0  0  0  0  0  0  0
   27.4489  -11.9556   42.7755 C   0  0  0  0  0  0  0  0  0  0  0  0
   26.6180  -13.0505   42.8130 C   0  0  0  0  0  0  0  0  0  0  0  0
   25.8262  -13.4013   41.7321 C   0  0  0  0  0  0  0  0  0  0  0  0
   25.9000  -12.6066   40.6059 C   0  0  0  0  0  0  0  0  0  0  0  0
   30.4292  -13.6465   40.3861 C   0  0  0  0  0  0  0  0  0  0  0  0
   28.3201  -14.9013   39.6605 C   0  0  0  0  0  0  0  0  0  0  0  0
   29.6020  -14.8431   40.3730 C   0  0  0  0  0  0  0  0  0  0  0  0
   29.3908  -15.3235   41.8205 C   0  0  0  0  0  0  0  0  0  0  0  0
   35.2810  -13.9100   38.0216 N   0  0  0  0  0  0  0  0  0  0  0  0
   35.7519  -14.6086   36.8829 C   0  0  0  0  0  0  0  0  0  0  0  0
   35.4294  -14.1421   35.7529 O   0  0  0  0  0  0  0  0  0  0  0  0
   35.5065  -14.2736   38.9675 H   0  0  0  0  0  0  0  0  0  0  0  0
   36.5704  -15.8096   37.1107 C   0  0  0  0  0  0  0  0  0  0  0  0
   36.0791  -16.9161   36.3388 N   0  0  0  0  0  0  0  0  0  0  0  0
   36.8675  -18.0867   36.1744 C   0  0  0  0  0  0  0  0  0  0  0  0
   37.9959  -18.1980   36.6848 O   0  0  0  0  0  0  0  0  0  0  0  0
   35.1179  -16.8595   35.8891 H   0  0  0  0  0  0  0  0  0  0  0  0
   36.2362  -19.1708   35.3386 C   0  0  0  0  0  0  0  0  0  0  0  0
   34.8399  -18.8083   35.1830 N   0  0  0  0  0  0  0  0  0  0  0  0
   33.9109  -19.6250   35.8831 C   0  0  0  0  0  0  0  0  0  0  0  0
   34.3362  -20.5992   36.5860 O   0  0  0  0  0  0  0  0  0  0  0  0
   34.5022  -18.0198   34.6196 H   0  0  0  0  0  0  0  0  0  0  0  0
   32.4645  -19.3312   35.7858 C   0  0  0  0  0  0  0  0  0  0  0  0
   32.2372  -17.9207   35.8515 N   0  0  0  0  0  0  0  0  0  0  0  0
   32.2038  -17.5497   36.8239 H   0  0  0  0  0  0  0  0  0  0  0  0
   33.0177  -17.4078   35.3438 H   0  0  0  0  0  0  0  0  0  0  0  0
   31.8651  -19.9248   34.5049 C   0  0  0  0  0  0  0  0  0  0  0  0
   31.3341  -21.2611   34.8238 C   0  0  0  0  0  0  0  0  0  0  0  0
   31.9376  -22.4312   34.4289 C   0  0  0  0  0  0  0  0  0  0  0  0
   31.1790  -23.4516   34.8874 N   0  0  0  0  0  0  0  0  0  0  0  0
   30.1197  -23.0043   35.5544 C   0  0  0  0  0  0  0  0  0  0  0  0
   29.0670  -23.6057   36.1949 C   0  0  0  0  0  0  0  0  0  0  0  0
   28.0821  -22.8424   36.8149 C   0  0  0  0  0  0  0  0  0  0  0  0
   28.1545  -21.4541   36.7907 C   0  0  0  0  0  0  0  0  0  0  0  0
   29.2316  -20.8608   36.1357 C   0  0  0  0  0  0  0  0  0  0  0  0
   30.2097  -21.6128   35.5199 C   0  0  0  0  0  0  0  0  0  0  0  0
   31.4206  -24.4577   34.7217 H   0  0  0  0  0  0  0  0  0  0  0  0
   36.9587  -19.1539   34.0228 C   0  0  0  0  0  0  0  0  0  0  0  0
   37.3153  -17.7670   33.5633 C   0  0  0  0  0  0  0  0  0  0  0  0
   38.2253  -20.0299   34.0789 C   0  0  0  0  0  0  0  0  0  0  0  0
   34.8514  -12.0685   36.5406 C   0  0  0  0  0  0  0  0  0  0  0  0
   34.7452  -10.6380   36.3388 C   0  0  0  0  0  0  0  0  0  0  0  0
   35.5360   -9.8314   35.5448 C   0  0  0  0  0  0  0  0  0  0  0  0
   35.3463   -8.4437   35.4442 C   0  0  0  0  0  0  0  0  0  0  0  0
   34.3210   -7.8528   36.1701 C   0  0  0  0  0  0  0  0  0  0  0  0
   33.5244   -8.6187   36.9610 C   0  0  0  0  0  0  0  0  0  0  0  0
   33.7309   -9.9602   37.0399 C   0  0  0  0  0  0  0  0  0  0  0  0
 24 25  1  0  0  0
 25 26  1  0  0  0
 25 23  1  0  0  0
 23  6  1  0  0  0
  6  2  1  0  0  0
  2  3  1  0  0  0
  3  4  2  0  0  0
  3  1  1  0  0  0
  1 59  1  0  0  0
 59 60  1  0  0  0
 60 61  2  0  0  0
 61 62  1  0  0  0
 62 63  2  0  0  0
 63 64  1  0  0  0
 64 65  2  0  0  0
  1 27  1  0  0  0
 27 28  1  0  0  0
 28 29  2  0  0  0
 28 31  1  0  0  0
 31 32  1  0  0  0
 32 33  1  0  0  0
 33 34  2  0  0  0
 33 36  1  0  0  0
 36 37  1  0  0  0
 37 38  1  0  0  0
 38 39  2  0  0  0
 38 41  1  0  0  0
 41 42  1  0  0  0
 41 45  1  0  0  0
 45 46  1  0  0  0
 46 47  2  0  0  0
 47 48  1  0  0  0
 48 49  1  0  0  0
 49 50  2  0  0  0
 50 51  1  0  0  0
 51 52  2  0  0  0
 52 53  1  0  0  0
 53 54  2  0  0  0
 36 56  1  0  0  0
 56 57  1  0  0  0
 56 58  1  0  0  0
  6  7  1  0  0  0
  7  8  2  0  0  0
  7  9  1  0  0  0
  9 11  1  0  0  0
 11 16  1  0  0  0
 16 17  1  0  0  0
 17 18  2  0  0  0
 18 19  1  0  0  0
 19 20  2  0  0  0
 20 21  1  0  0  0
 21 22  2  0  0  0
 11 12  1  0  0  0
 12 13  1  0  0  0
 12 14  2  0  0  0
 65 60  1  0  0  0
 54 46  1  0  0  0
 22 17  1  0  0  0
 54 49  1  0  0  0
  2  5  1  0  0  0
 27 30  1  0  0  0
 32 35  1  0  0  0
 37 40  1  0  0  0
 42 43  1  0  0  0
 42 44  1  0  0  0
 48 55  1  0  0  0
  9 10  1  0  0  0
 13 15  1  0  0  0
M  END
> <minimizedAffinity>
-8.58629

> <CNNscore>
0.1261282712

> <CNNaffinity>
6.7264776230

> <CNN_VS>
0.8483989835

> <CNNaffinity_variance>
0.6704167128

$$$$
[H]OC(=O)[C@@]([H])(N([H])C(=O)[C@@]([H])(N([H])C(=O)[C@@]([H])(N([H])C(=O)C([H])([H])N([H])C(=O)[C@@]([H])(N([H])C(=O)[C@@]([H])(N([H])[H])C([H])([H])c1c([H])n([H])c2c([H])c([H])c([H])c([H])c12)C([H])(C([H])([H])[H])C([H])([H])[H])C([H])([H])c1c([H])c([H])c([H])c([H])c1[H])C([H])([H])C([H])(C([H])([H])[H])C([H])([H])[H])C([H])([H])c1c([H])c([H])c([H])c([H])c1[H]


 65 68  0  0  0  0  0  0  0  0999 V2000
   35.4364  -19.4569   36.5407 C   0  0  0  0  0  0  0  0  0  0  0  0
   34.7893  -21.8785   36.9079 N   0  0  0  0  0  0  0  0  0  0  0  0
   34.5445  -20.5034   36.9235 C   0  0  0  0  0  0  0  0  0  0  0  0
   33.3684  -20.1430   37.3340 O   0  0  0  0  0  0  0  0  0  0  0  0
   35.6650  -22.2669   36.5739 H   0  0  0  0  0  0  0  0  0  0  0  0
   33.7317  -22.7605   37.3479 C   0  0  0  0  0  0  0  0  0  0  0  0
   33.8666  -23.0073   38.8296 C   0  0  0  0  0  0  0  0  0  0  0  0
   34.4125  -24.0498   39.2068 O   0  0  0  0  0  0  0  0  0  0  0  0
   33.3936  -22.0750   39.7623 N   0  0  0  0  0  0  0  0  0  0  0  0
   32.9177  -21.2166   39.4453 H   0  0  0  0  0  0  0  0  0  0  0  0
   33.5576  -22.2937   41.1841 C   0  0  0  0  0  0  0  0  0  0  0  0
   32.3961  -22.8888   41.8430 C   0  0  0  0  0  0  0  0  0  0  0  0
   31.1245  -22.7129   41.3097 O   0  0  0  0  0  0  0  0  0  0  0  0
   32.5077  -23.5648   42.8908 O   0  0  0  0  0  0  0  0  0  0  0  0
   30.6033  -21.8600   41.3110 H   0  0  0  0  0  0  0  0  0  0  0  0
   34.0095  -20.9767   41.8106 C   0  0  0  0  0  0  0  0  0  0  0  0
   35.4550  -20.9714   42.1497 C   0  0  0  0  0  0  0  0  0  0  0  0
   36.3900  -21.6027   41.3583 C   0  0  0  0  0  0  0  0  0  0  0  0
   37.7172  -21.6052   41.6800 C   0  0  0  0  0  0  0  0  0  0  0  0
   38.1257  -20.9600   42.8236 C   0  0  0  0  0  0  0  0  0  0  0  0
   37.2272  -20.3109   43.6540 C   0  0  0  0  0  0  0  0  0  0  0  0
   35.8957  -20.3334   43.2909 C   0  0  0  0  0  0  0  0  0  0  0  0
   33.4241  -23.9452   36.5712 C   0  0  0  0  0  0  0  0  0  0  0  0
   31.8463  -25.3786   35.1550 C   0  0  0  0  0  0  0  0  0  0  0  0
   32.1463  -24.1551   35.9083 C   0  0  0  0  0  0  0  0  0  0  0  0
   31.8331  -22.9346   35.0234 C   0  0  0  0  0  0  0  0  0  0  0  0
   34.6267  -18.2099   36.3346 N   0  0  0  0  0  0  0  0  0  0  0  0
   34.6184  -17.5728   35.0695 C   0  0  0  0  0  0  0  0  0  0  0  0
   35.3309  -18.0926   34.1636 O   0  0  0  0  0  0  0  0  0  0  0  0
   34.0713  -17.8013   37.1107 H   0  0  0  0  0  0  0  0  0  0  0  0
   33.7872  -16.3683   34.9186 C   0  0  0  0  0  0  0  0  0  0  0  0
   34.0037  -15.4590   36.0085 N   0  0  0  0  0  0  0  0  0  0  0  0
   35.1482  -14.6171   36.0281 C   0  0  0  0  0  0  0  0  0  0  0  0
   35.9938  -14.6336   35.1166 O   0  0  0  0  0  0  0  0  0  0  0  0
   33.3015  -15.4141   36.8049 H   0  0  0  0  0  0  0  0  0  0  0  0
   35.2571  -13.7138   37.2300 C   0  0  0  0  0  0  0  0  0  0  0  0
   34.0840  -13.9711   38.0443 N   0  0  0  0  0  0  0  0  0  0  0  0
   33.2243  -12.8586   38.2528 C   0  0  0  0  0  0  0  0  0  0  0  0
   33.5172  -11.7324   37.7333 O   0  0  0  0  0  0  0  0  0  0  0  0
   33.8496  -14.8810   38.4568 H   0  0  0  0  0  0  0  0  0  0  0  0
   32.0021  -13.0251   39.0691 C   0  0  0  0  0  0  0  0  0  0  0  0
   32.2003  -12.4851   40.3785 N   0  0  0  0  0  0  0  0  0  0  0  0
   32.6750  -13.1424   41.0319 H   0  0  0  0  0  0  0  0  0  0  0  0
   32.8009  -11.6101   40.3183 H   0  0  0  0  0  0  0  0  0  0  0  0
   30.7897  -12.3793   38.3867 C   0  0  0  0  0  0  0  0  0  0  0  0
   29.6518  -12.4412   39.3199 C   0  0  0  0  0  0  0  0  0  0  0  0
   28.9310  -11.3383   39.7113 C   0  0  0  0  0  0  0  0  0  0  0  0
   27.9760  -11.7632   40.5683 N   0  0  0  0  0  0  0  0  0  0  0  0
   28.0423  -13.0781   40.7521 C   0  0  0  0  0  0  0  0  0  0  0  0
   27.3309  -13.9773   41.5042 C   0  0  0  0  0  0  0  0  0  0  0  0
   27.6556  -15.3306   41.4896 C   0  0  0  0  0  0  0  0  0  0  0  0
   28.7111  -15.7882   40.7087 C   0  0  0  0  0  0  0  0  0  0  0  0
   29.4221  -14.8601   39.9508 C   0  0  0  0  0  0  0  0  0  0  0  0
   29.1044  -13.5184   39.9623 C   0  0  0  0  0  0  0  0  0  0  0  0
   27.2855  -11.1145   41.0160 H   0  0  0  0  0  0  0  0  0  0  0  0
   36.5176  -14.1167   37.9388 C   0  0  0  0  0  0  0  0  0  0  0  0
   36.8118  -15.5874   37.8293 C   0  0  0  0  0  0  0  0  0  0  0  0
   37.7213  -13.3014   37.4276 C   0  0  0  0  0  0  0  0  0  0  0  0
   36.5710  -19.0909   37.4358 C   0  0  0  0  0  0  0  0  0  0  0  0
   37.9186  -19.4975   37.0940 C   0  0  0  0  0  0  0  0  0  0  0  0
   38.7473  -18.9637   36.1271 C   0  0  0  0  0  0  0  0  0  0  0  0
   40.0364  -19.4592   35.8733 C   0  0  0  0  0  0  0  0  0  0  0  0
   40.5033  -20.5295   36.6241 C   0  0  0  0  0  0  0  0  0  0  0  0
   39.7126  -21.0777   37.5839 C   0  0  0  0  0  0  0  0  0  0  0  0
   38.4681  -20.5782   37.8082 C   0  0  0  0  0  0  0  0  0  0  0  0
 24 25  1  0  0  0
 25 26  1  0  0  0
 25 23  1  0  0  0
 23  6  1  0  0  0
  6  2  1  0  0  0
  2  3  1  0  0  0
  3  4  2  0  0  0
  3  1  1  0  0  0
  1 59  1  0  0  0
 59 60  1  0  0  0
 60 61  2  0  0  0
 61 62  1  0  0  0
 62 63  2  0  0  0
 63 64  1  0  0  0
 64 65  2  0  0  0
  1 27  1  0  0  0
 27 28  1  0  0  0
 28 29  2  0  0  0
 28 31  1  0  0  0
 31 32  1  0  0  0
 32 33  1  0  0  0
 33 34  2  0  0  0
 33 36  1  0  0  0
 36 37  1  0  0  0
 37 38  1  0  0  0
 38 39  2  0  0  0
 38 41  1  0  0  0
 41 42  1  0  0  0
 41 45  1  0  0  0
 45 46  1  0  0  0
 46 47  2  0  0  0
 47 48  1  0  0  0
 48 49  1  0  0  0
 49 50  2  0  0  0
 50 51  1  0  0  0
 51 52  2  0  0  0
 52 53  1  0  0  0
 53 54  2  0  0  0
 36 56  1  0  0  0
 56 57  1  0  0  0
 56 58  1  0  0  0
  6  7  1  0  0  0
  7  8  2  0  0  0
  7  9  1  0  0  0
  9 11  1  0  0  0
 11 16  1  0  0  0
 16 17  1  0  0  0
 17 18  2  0  0  0
 18 19  1  0  0  0
 19 20  2  0  0  0
 20 21  1  0  0  0
 21 22  2  0  0  0
 11 12  1  0  0  0
 12 13  1  0  0  0
 12 14  2  0  0  0
 65 60  1  0  0  0
 54 46  1  0  0  0
 22 17  1  0  0  0
 54 49  1  0  0  0
  2  5  1  0  0  0
 27 30  1  0  0  0
 32 35  1  0  0  0
 37 40  1  0  0  0
 42 43  1  0  0  0
 42 44  1  0  0  0
 48 55  1  0  0  0
  9 10  1  0  0  0
 13 15  1  0  0  0
M  END
> <minimizedAffinity>
-7.03965

> <CNNscore>
0.1141212657

> <CNNaffinity>
6.3577551842

> <CNN_VS>
0.7255550623

> <CNNaffinity_variance>
0.4655694962

$$$$
[H]C1=C([H])C([H])(F)C([H])([H])C([H])=C1N([H])C(=O)C1(C(=O)N([H])c2c([H])c([H])c(Oc3c([H])c([H])nc4c([H])c(OC([H])([H])C([H])([H])C([H])([H])N5C([H])([H])C([H])([H])N(C([H])([H])[H])C([H])([H])C5([H])[H])c(OC([H])([H])[H])c([H])c34)c(F)c2[H])C([H])([H])C1([H])[H]


 49 54  0  0  0  0  0  0  0  0999 V2000
   35.6146  -15.2770   36.9456 C   0  0  0  0  0  0  0  0  0  0  0  0
   34.3704  -15.3367   36.3387 C   0  0  0  0  0  0  0  0  0  0  0  0
   33.5446  -14.2567   36.3255 C   0  0  0  0  0  0  0  0  0  0  0  0
   33.8663  -13.0177   36.9093 C   0  0  0  0  0  0  0  0  0  0  0  0
   35.0968  -12.9748   37.5046 C   0  0  0  0  0  0  0  0  0  0  0  0
   35.9627  -14.0892   37.5231 C   0  0  0  0  0  0  0  0  0  0  0  0
   37.1907  -13.9233   38.1215 F   0  0  0  0  0  0  0  0  0  0  0  0
   32.9476  -11.9730   36.8359 N   0  0  0  0  0  0  0  0  0  0  0  0
   31.8719  -11.7584   37.6982 C   0  0  0  0  0  0  0  0  0  0  0  0
   31.5382  -12.4738   38.6977 O   0  0  0  0  0  0  0  0  0  0  0  0
   33.0626  -11.2595   36.0513 H   0  0  0  0  0  0  0  0  0  0  0  0
   30.9586  -10.5712   37.5014 C   0  0  0  0  0  0  0  0  0  0  0  0
   31.2743   -9.6141   36.4404 C   0  0  0  0  0  0  0  0  0  0  0  0
   31.5959   -9.2252   37.8276 C   0  0  0  0  0  0  0  0  0  0  0  0
   29.5653  -10.7396   37.9711 C   0  0  0  0  0  0  0  0  0  0  0  0
   28.6869  -11.1414   37.1410 O   0  0  0  0  0  0  0  0  0  0  0  0
   29.1305  -10.4870   39.2715 N   0  0  0  0  0  0  0  0  0  0  0  0
   29.7644  -10.1820   40.0148 H   0  0  0  0  0  0  0  0  0  0  0  0
   27.7472  -10.6471   39.6729 C   0  0  0  0  0  0  0  0  0  0  0  0
   27.3861  -11.8011   40.1867 C   0  0  0  0  0  0  0  0  0  0  0  0
   26.0445  -12.1202   40.6339 C   0  0  0  0  0  0  0  0  0  0  0  0
   25.0516  -11.0355   40.5670 C   0  0  0  0  0  0  0  0  0  0  0  0
   24.5655  -10.8035   41.8827 F   0  0  0  0  0  0  0  0  0  0  0  0
   25.5242   -9.7863   39.9806 C   0  0  0  0  0  0  0  0  0  0  0  0
   26.7581   -9.6132   39.5749 C   0  0  0  0  0  0  0  0  0  0  0  0
   36.4773  -16.3324   36.9804 O   0  0  0  0  0  0  0  0  0  0  0  0
   35.1119  -19.9178   38.4838 C   0  0  0  0  0  0  0  0  0  0  0  0
   35.5720  -18.7356   37.9654 C   0  0  0  0  0  0  0  0  0  0  0  0
   35.9958  -18.6746   36.6596 C   0  0  0  0  0  0  0  0  0  0  0  0
   36.4513  -17.4625   36.1763 C   0  0  0  0  0  0  0  0  0  0  0  0
   36.8737  -17.4038   34.8810 C   0  0  0  0  0  0  0  0  0  0  0  0
   36.8268  -18.5653   34.0989 C   0  0  0  0  0  0  0  0  0  0  0  0
   36.3759  -19.7189   34.6119 N   0  0  0  0  0  0  0  0  0  0  0  0
   35.9431  -19.8262   35.9057 C   0  0  0  0  0  0  0  0  0  0  0  0
   35.4855  -21.0124   36.4116 C   0  0  0  0  0  0  0  0  0  0  0  0
   35.0419  -21.1126   37.7451 C   0  0  0  0  0  0  0  0  0  0  0  0
   35.5741  -20.5044   40.7649 C   0  0  0  0  0  0  0  0  0  0  0  0
   34.6832  -19.9881   39.7953 O   0  0  0  0  0  0  0  0  0  0  0  0
   34.5959  -22.2051   38.2876 O   0  0  0  0  0  0  0  0  0  0  0  0
   34.1439  -23.2843   38.8185 C   0  0  0  0  0  0  0  0  0  0  0  0
   32.9436  -23.9285   38.1078 C   0  0  0  0  0  0  0  0  0  0  0  0
   33.3416  -24.5129   36.7784 C   0  0  0  0  0  0  0  0  0  0  0  0
   32.1709  -25.0360   36.0650 N   0  0  0  0  0  0  0  0  0  0  0  0
   31.7441  -23.9745   35.1771 C   0  0  0  0  0  0  0  0  0  0  0  0
   30.7720  -24.4624   34.1359 C   0  0  0  0  0  0  0  0  0  0  0  0
   31.4278  -25.5233   33.4045 N   0  0  0  0  0  0  0  0  0  0  0  0
   30.7001  -25.8885   32.2006 C   0  0  0  0  0  0  0  0  0  0  0  0
   31.5890  -26.6459   34.3056 C   0  0  0  0  0  0  0  0  0  0  0  0
   32.5575  -26.2275   35.3909 C   0  0  0  0  0  0  0  0  0  0  0  0
 37 38  1  0  0  0
 38 27  1  0  0  0
 27 28  2  0  0  0
 28 29  1  0  0  0
 29 30  2  0  0  0
 30 26  1  0  0  0
 26  1  1  0  0  0
  1  2  2  0  0  0
  2  3  1  0  0  0
  3  4  2  0  0  0
  4  8  1  0  0  0
  8  9  1  0  0  0
  9 10  2  0  0  0
  9 12  1  0  0  0
 12 13  1  0  0  0
 13 14  1  0  0  0
 12 15  1  0  0  0
 15 16  2  0  0  0
 15 17  1  0  0  0
 17 19  1  0  0  0
 19 20  2  0  0  0
 20 21  1  0  0  0
 21 22  1  0  0  0
 22 23  1  0  0  0
 22 24  1  0  0  0
 24 25  2  0  0  0
  4  5  1  0  0  0
  5  6  2  0  0  0
  6  7  1  0  0  0
 30 31  1  0  0  0
 31 32  2  0  0  0
 32 33  1  0  0  0
 33 34  2  0  0  0
 34 35  1  0  0  0
 35 36  2  0  0  0
 36 39  1  0  0  0
 39 40  1  0  0  0
 40 41  1  0  0  0
 41 42  1  0  0  0
 42 43  1  0  0  0
 43 44  1  0  0  0
 44 45  1  0  0  0
 45 46  1  0  0  0
 46 47  1  0  0  0
 46 48  1  0  0  0
 48 49  1  0  0  0
 36 27  1  0  0  0
 49 43  1  0  0  0
 34 29  1  0  0  0
  6  1  1  0  0  0
 14 12  1  0  0  0
 25 19  1  0  0  0
  8 11  1  0  0  0
 17 18  1  0  0  0
M  END
> <minimizedAffinity>
-7.85263

> <CNNscore>
0.3693948388

> <CNNaffinity>
7.0231733322

> <CNN_VS>
2.5943238735

> <CNNaffinity_variance>
0.0522602312

$$$$
[H]C1=C([H])C([H])(F)C([H])([H])C([H])=C1N([H])C(=O)C1(C(=O)N([H])c2c([H])c([H])c(Oc3c([H])c([H])nc4c([H])c(OC([H])([H])C([H])([H])C([H])([H])N5C([H])([H])C([H])([H])N(C([H])([H])[H])C([H])([H])C5([H])[H])c(OC([H])([H])[H])c([H])c34)c(F)c2[H])C([H])([H])C1([H])[H]


 49 54  0  0  0  0  0  0  0  0999 V2000
   35.6255  -15.2844   36.9400 C   0  0  0  0  0  0  0  0  0  0  0  0
   34.3944  -15.3423   36.3067 C   0  0  0  0  0  0  0  0  0  0  0  0
   33.5645  -14.2655   36.2884 C   0  0  0  0  0  0  0  0  0  0  0  0
   33.8688  -13.0319   36.8924 C   0  0  0  0  0  0  0  0  0  0  0  0
   35.0864  -12.9907   37.5136 C   0  0  0  0  0  0  0  0  0  0  0  0
   35.9565  -14.1018   37.5377 C   0  0  0  0  0  0  0  0  0  0  0  0
   37.1711  -13.9376   38.1634 F   0  0  0  0  0  0  0  0  0  0  0  0
   32.9473  -11.9901   36.8115 N   0  0  0  0  0  0  0  0  0  0  0  0
   31.9050  -11.7396   37.7046 C   0  0  0  0  0  0  0  0  0  0  0  0
   31.6100  -12.4135   38.7443 O   0  0  0  0  0  0  0  0  0  0  0  0
   33.0320  -11.3092   35.9948 H   0  0  0  0  0  0  0  0  0  0  0  0
   30.9843  -10.5605   37.4945 C   0  0  0  0  0  0  0  0  0  0  0  0
   31.2928   -9.6145   36.4216 C   0  0  0  0  0  0  0  0  0  0  0  0
   31.6137   -9.2067   37.8035 C   0  0  0  0  0  0  0  0  0  0  0  0
   29.5926  -10.7317   37.9680 C   0  0  0  0  0  0  0  0  0  0  0  0
   28.7125  -11.1340   37.1401 O   0  0  0  0  0  0  0  0  0  0  0  0
   29.1611  -10.4810   39.2700 N   0  0  0  0  0  0  0  0  0  0  0  0
   29.7966  -10.1758   40.0118 H   0  0  0  0  0  0  0  0  0  0  0  0
   27.7792  -10.6439   39.6752 C   0  0  0  0  0  0  0  0  0  0  0  0
   27.4290  -11.7873   40.2193 C   0  0  0  0  0  0  0  0  0  0  0  0
   26.0904  -12.1074   40.6745 C   0  0  0  0  0  0  0  0  0  0  0  0
   25.0870  -11.0345   40.5787 C   0  0  0  0  0  0  0  0  0  0  0  0
   24.5981  -10.7724   41.8877 F   0  0  0  0  0  0  0  0  0  0  0  0
   25.5479   -9.7967   39.9595 C   0  0  0  0  0  0  0  0  0  0  0  0
   26.7803   -9.6225   39.5496 C   0  0  0  0  0  0  0  0  0  0  0  0
   36.4918  -16.3367   36.9810 O   0  0  0  0  0  0  0  0  0  0  0  0
   35.1101  -19.9430   38.4182 C   0  0  0  0  0  0  0  0  0  0  0  0
   35.5760  -18.7536   37.9218 C   0  0  0  0  0  0  0  0  0  0  0  0
   36.0262  -18.6770   36.6257 C   0  0  0  0  0  0  0  0  0  0  0  0
   36.4868  -17.4583   36.1646 C   0  0  0  0  0  0  0  0  0  0  0  0
   36.9353  -17.3842   34.8789 C   0  0  0  0  0  0  0  0  0  0  0  0
   36.9090  -18.5375   34.0838 C   0  0  0  0  0  0  0  0  0  0  0  0
   36.4522  -19.6981   34.5753 N   0  0  0  0  0  0  0  0  0  0  0  0
   35.9936  -19.8208   35.8587 C   0  0  0  0  0  0  0  0  0  0  0  0
   35.5304  -21.0140   36.3426 C   0  0  0  0  0  0  0  0  0  0  0  0
   35.0599  -21.1300   37.6656 C   0  0  0  0  0  0  0  0  0  0  0  0
   35.5443  -20.5056   40.7107 C   0  0  0  0  0  0  0  0  0  0  0  0
   34.6549  -20.0287   39.7198 O   0  0  0  0  0  0  0  0  0  0  0  0
   34.6072  -22.2299   38.1872 O   0  0  0  0  0  0  0  0  0  0  0  0
   34.1479  -23.3138   38.7021 C   0  0  0  0  0  0  0  0  0  0  0  0
   35.0406  -24.5557   38.5553 C   0  0  0  0  0  0  0  0  0  0  0  0
   35.5494  -24.7025   37.1457 C   0  0  0  0  0  0  0  0  0  0  0  0
   36.9451  -25.1557   37.1375 N   0  0  0  0  0  0  0  0  0  0  0  0
   37.4891  -24.7325   35.8639 C   0  0  0  0  0  0  0  0  0  0  0  0
   38.9921  -24.8169   35.8328 C   0  0  0  0  0  0  0  0  0  0  0  0
   39.4875  -23.9924   36.9123 N   0  0  0  0  0  0  0  0  0  0  0  0
   40.9211  -23.7726   36.8190 C   0  0  0  0  0  0  0  0  0  0  0  0
   39.1136  -24.6273   38.1595 C   0  0  0  0  0  0  0  0  0  0  0  0
   37.6039  -24.5845   38.2614 C   0  0  0  0  0  0  0  0  0  0  0  0
 37 38  1  0  0  0
 38 27  1  0  0  0
 27 28  2  0  0  0
 28 29  1  0  0  0
 29 30  2  0  0  0
 30 26  1  0  0  0
 26  1  1  0  0  0
  1  2  2  0  0  0
  2  3  1  0  0  0
  3  4  2  0  0  0
  4  8  1  0  0  0
  8  9  1  0  0  0
  9 10  2  0  0  0
  9 12  1  0  0  0
 12 13  1  0  0  0
 13 14  1  0  0  0
 12 15  1  0  0  0
 15 16  2  0  0  0
 15 17  1  0  0  0
 17 19  1  0  0  0
 19 20  2  0  0  0
 20 21  1  0  0  0
 21 22  1  0  0  0
 22 23  1  0  0  0
 22 24  1  0  0  0
 24 25  2  0  0  0
  4  5  1  0  0  0
  5  6  2  0  0  0
  6  7  1  0  0  0
 30 31  1  0  0  0
 31 32  2  0  0  0
 32 33  1  0  0  0
 33 34  2  0  0  0
 34 35  1  0  0  0
 35 36  2  0  0  0
 36 39  1  0  0  0
 39 40  1  0  0  0
 40 41  1  0  0  0
 41 42  1  0  0  0
 42 43  1  0  0  0
 43 44  1  0  0  0
 44 45  1  0  0  0
 45 46  1  0  0  0
 46 47  1  0  0  0
 46 48  1  0  0  0
 48 49  1  0  0  0
 36 27  1  0  0  0
 49 43  1  0  0  0
 34 29  1  0  0  0
  6  1  1  0  0  0
 14 12  1  0  0  0
 25 19  1  0  0  0
  8 11  1  0  0  0
 17 18  1  0  0  0
M  END
> <minimizedAffinity>
-7.31521

> <CNNscore>
0.3315882683

> <CNNaffinity>
7.0121469498

> <CNN_VS>
2.3251457214

> <CNNaffinity_variance>
0.1242717654

$$$$
[H]C1=C([H])C([H])(F)C([H])([H])C([H])=C1N([H])C(=O)C1(C(=O)N([H])c2c([H])c([H])c(Oc3c([H])c([H])nc4c([H])c(OC([H])([H])C([H])([H])C([H])([H])N5C([H])([H])C([H])([H])N(C([H])([H])[H])C([H])([H])C5([H])[H])c(OC([H])([H])[H])c([H])c34)c(F)c2[H])C([H])([H])C1([H])[H]


 49 54  0  0  0  0  0  0  0  0999 V2000
   35.6070  -15.2823   37.0041 C   0  0  0  0  0  0  0  0  0  0  0  0
   34.3404  -15.3565   36.4470 C   0  0  0  0  0  0  0  0  0  0  0  0
   33.5264  -14.2681   36.4097 C   0  0  0  0  0  0  0  0  0  0  0  0
   33.8832  -13.0056   36.9180 C   0  0  0  0  0  0  0  0  0  0  0  0
   35.1353  -12.9486   37.4649 C   0  0  0  0  0  0  0  0  0  0  0  0
   35.9892  -14.0716   37.5078 C   0  0  0  0  0  0  0  0  0  0  0  0
   37.2404  -13.8916   38.0517 F   0  0  0  0  0  0  0  0  0  0  0  0
   32.9737  -11.9543   36.8257 N   0  0  0  0  0  0  0  0  0  0  0  0
   31.8985  -11.7162   37.6824 C   0  0  0  0  0  0  0  0  0  0  0  0
   31.5569  -12.4121   38.6930 O   0  0  0  0  0  0  0  0  0  0  0  0
   33.0962  -11.2549   36.0297 H   0  0  0  0  0  0  0  0  0  0  0  0
   30.9959  -10.5245   37.4644 C   0  0  0  0  0  0  0  0  0  0  0  0
   31.3203   -9.5892   36.3868 C   0  0  0  0  0  0  0  0  0  0  0  0
   31.6452   -9.1787   37.7669 C   0  0  0  0  0  0  0  0  0  0  0  0
   29.6011  -10.6720   37.9367 C   0  0  0  0  0  0  0  0  0  0  0  0
   28.7361  -11.1590   37.1389 O   0  0  0  0  0  0  0  0  0  0  0  0
   29.1512  -10.3121   39.2064 N   0  0  0  0  0  0  0  0  0  0  0  0
   29.7740   -9.9331   39.9246 H   0  0  0  0  0  0  0  0  0  0  0  0
   27.7669  -10.4574   39.6100 C   0  0  0  0  0  0  0  0  0  0  0  0
   27.3842  -11.6208   40.0855 C   0  0  0  0  0  0  0  0  0  0  0  0
   26.0386  -11.9272   40.5292 C   0  0  0  0  0  0  0  0  0  0  0  0
   25.0682  -10.8204   40.5056 C   0  0  0  0  0  0  0  0  0  0  0  0
   24.5938  -10.6242   41.8314 F   0  0  0  0  0  0  0  0  0  0  0  0
   25.5640   -9.5617   39.9601 C   0  0  0  0  0  0  0  0  0  0  0  0
   26.7993   -9.4003   39.5535 C   0  0  0  0  0  0  0  0  0  0  0  0
   36.4589  -16.3455   37.0604 O   0  0  0  0  0  0  0  0  0  0  0  0
   36.3714  -20.3030   38.2052 C   0  0  0  0  0  0  0  0  0  0  0  0
   36.4059  -18.9931   37.8042 C   0  0  0  0  0  0  0  0  0  0  0  0
   36.5813  -18.6832   36.4769 C   0  0  0  0  0  0  0  0  0  0  0  0
   36.6091  -17.3496   36.1151 C   0  0  0  0  0  0  0  0  0  0  0  0
   36.7854  -17.0435   34.7980 C   0  0  0  0  0  0  0  0  0  0  0  0
   36.9278  -18.0857   33.8725 C   0  0  0  0  0  0  0  0  0  0  0  0
   36.8933  -19.3653   34.2711 N   0  0  0  0  0  0  0  0  0  0  0  0
   36.7200  -19.7205   35.5812 C   0  0  0  0  0  0  0  0  0  0  0  0
   36.6868  -21.0323   35.9691 C   0  0  0  0  0  0  0  0  0  0  0  0
   36.5077  -21.3879   37.3205 C   0  0  0  0  0  0  0  0  0  0  0  0
   34.9494  -20.3268   40.1386 C   0  0  0  0  0  0  0  0  0  0  0  0
   36.1947  -20.6235   39.5374 O   0  0  0  0  0  0  0  0  0  0  0  0
   36.4662  -22.6107   37.7560 O   0  0  0  0  0  0  0  0  0  0  0  0
   36.4131  -23.8210   38.1843 C   0  0  0  0  0  0  0  0  0  0  0  0
   36.9420  -24.0512   39.6083 C   0  0  0  0  0  0  0  0  0  0  0  0
   35.8478  -23.8997   40.6315 C   0  0  0  0  0  0  0  0  0  0  0  0
   34.6466  -24.6390   40.2267 N   0  0  0  0  0  0  0  0  0  0  0  0
   34.7730  -25.9526   40.8231 C   0  0  0  0  0  0  0  0  0  0  0  0
   33.4766  -26.7176   40.7902 C   0  0  0  0  0  0  0  0  0  0  0  0
   32.4931  -25.9196   41.4878 N   0  0  0  0  0  0  0  0  0  0  0  0
   31.2773  -26.6671   41.7623 C   0  0  0  0  0  0  0  0  0  0  0  0
   32.2380  -24.7377   40.6901 C   0  0  0  0  0  0  0  0  0  0  0  0
   33.5073  -23.9133   40.6728 C   0  0  0  0  0  0  0  0  0  0  0  0
 37 38  1  0  0  0
 38 27  1  0  0  0
 27 28  2  0  0  0
 28 29  1  0  0  0
 29 30  2  0  0  0
 30 26  1  0  0  0
 26  1  1  0  0  0
  1  2  2  0  0  0
  2  3  1  0  0  0
  3  4  2  0  0  0
  4  8  1  0  0  0
  8  9  1  0  0  0
  9 10  2  0  0  0
  9 12  1  0  0  0
 12 13  1  0  0  0
 13 14  1  0  0  0
 12 15  1  0  0  0
 15 16  2  0  0  0
 15 17  1  0  0  0
 17 19  1  0  0  0
 19 20  2  0  0  0
 20 21  1  0  0  0
 21 22  1  0  0  0
 22 23  1  0  0  0
 22 24  1  0  0  0
 24 25  2  0  0  0
  4  5  1  0  0  0
  5  6  2  0  0  0
  6  7  1  0  0  0
 30 31  1  0  0  0
 31 32  2  0  0  0
 32 33  1  0  0  0
 33 34  2  0  0  0
 34 35  1  0  0  0
 35 36  2  0  0  0
 36 39  1  0  0  0
 39 40  1  0  0  0
 40 41  1  0  0  0
 41 42  1  0  0  0
 42 43  1  0  0  0
 43 44  1  0  0  0
 44 45  1  0  0  0
 45 46  1  0  0  0
 46 47  1  0  0  0
 46 48  1  0  0  0
 48 49  1  0  0  0
 36 27  1  0  0  0
 49 43  1  0  0  0
 34 29  1  0  0  0
  6  1  1  0  0  0
 14 12  1  0  0  0
 25 19  1  0  0  0
  8 11  1  0  0  0
 17 18  1  0  0  0
M  END
> <minimizedAffinity>
-6.99445

> <CNNscore>
0.3215517998

> <CNNaffinity>
6.7794318199

> <CNN_VS>
2.1799385548

> <CNNaffinity_variance>
0.2537060380

$$$$
[H]C1=C([H])C([H])(F)C([H])([H])C([H])=C1N([H])C(=O)C1(C(=O)N([H])c2c([H])c([H])c(Oc3c([H])c([H])nc4c([H])c(OC([H])([H])C([H])([H])C([H])([H])N5C([H])([H])C([H])([H])N(C([H])([H])[H])C([H])([H])C5([H])[H])c(OC([H])([H])[H])c([H])c34)c(F)c2[H])C([H])([H])C1([H])[H]


 49 54  0  0  0  0  0  0  0  0999 V2000
   35.5246  -15.4045   36.7228 C   0  0  0  0  0  0  0  0  0  0  0  0
   34.2854  -15.3600   36.1046 C   0  0  0  0  0  0  0  0  0  0  0  0
   33.5125  -14.2429   36.1635 C   0  0  0  0  0  0  0  0  0  0  0  0
   33.8874  -13.0660   36.8371 C   0  0  0  0  0  0  0  0  0  0  0  0
   35.1122  -13.1257   37.4425 C   0  0  0  0  0  0  0  0  0  0  0  0
   35.9233  -14.2794   37.3867 C   0  0  0  0  0  0  0  0  0  0  0  0
   37.1517  -14.2166   38.0040 F   0  0  0  0  0  0  0  0  0  0  0  0
   33.0206  -11.9753   36.8328 N   0  0  0  0  0  0  0  0  0  0  0  0
   31.8813  -11.8239   37.6238 C   0  0  0  0  0  0  0  0  0  0  0  0
   31.4315  -12.6493   38.4832 O   0  0  0  0  0  0  0  0  0  0  0  0
   33.2334  -11.1696   36.1669 H   0  0  0  0  0  0  0  0  0  0  0  0
   31.0367  -10.5758   37.5178 C   0  0  0  0  0  0  0  0  0  0  0  0
   31.3809   -9.5826   36.4998 C   0  0  0  0  0  0  0  0  0  0  0  0
   31.7630   -9.2896   37.8952 C   0  0  0  0  0  0  0  0  0  0  0  0
   29.6490  -10.6870   38.0201 C   0  0  0  0  0  0  0  0  0  0  0  0
   28.7369  -11.0592   37.2128 O   0  0  0  0  0  0  0  0  0  0  0  0
   29.2541  -10.4099   39.3283 N   0  0  0  0  0  0  0  0  0  0  0  0
   29.9162  -10.1255   40.0550 H   0  0  0  0  0  0  0  0  0  0  0  0
   27.8752  -10.5136   39.7620 C   0  0  0  0  0  0  0  0  0  0  0  0
   27.1162   -9.4464   39.6572 C   0  0  0  0  0  0  0  0  0  0  0  0
   25.7214   -9.3859   40.0477 C   0  0  0  0  0  0  0  0  0  0  0  0
   25.1144  -10.6402   40.5224 C   0  0  0  0  0  0  0  0  0  0  0  0
   24.0244  -10.9526   39.6646 F   0  0  0  0  0  0  0  0  0  0  0  0
   26.0197  -11.7801   40.6166 C   0  0  0  0  0  0  0  0  0  0  0  0
   27.2808  -11.7175   40.2661 C   0  0  0  0  0  0  0  0  0  0  0  0
   36.3353  -16.5004   36.6875 O   0  0  0  0  0  0  0  0  0  0  0  0
   39.5366  -19.0758   36.3733 C   0  0  0  0  0  0  0  0  0  0  0  0
   38.4630  -18.2286   36.4602 C   0  0  0  0  0  0  0  0  0  0  0  0
   37.3804  -18.4012   35.6315 C   0  0  0  0  0  0  0  0  0  0  0  0
   36.3183  -17.5252   35.7527 C   0  0  0  0  0  0  0  0  0  0  0  0
   35.2455  -17.6963   34.9283 C   0  0  0  0  0  0  0  0  0  0  0  0
   35.2633  -18.7464   34.0010 C   0  0  0  0  0  0  0  0  0  0  0  0
   36.3167  -19.5718   33.9208 N   0  0  0  0  0  0  0  0  0  0  0  0
   37.4153  -19.4384   34.7257 C   0  0  0  0  0  0  0  0  0  0  0  0
   38.4811  -20.2912   34.6297 C   0  0  0  0  0  0  0  0  0  0  0  0
   39.6076  -20.1458   35.4632 C   0  0  0  0  0  0  0  0  0  0  0  0
   40.7147  -19.7104   38.3659 C   0  0  0  0  0  0  0  0  0  0  0  0
   40.6289  -18.9100   37.2030 O   0  0  0  0  0  0  0  0  0  0  0  0
   40.6506  -20.9187   35.4250 O   0  0  0  0  0  0  0  0  0  0  0  0
   41.6890  -21.6748   35.3933 C   0  0  0  0  0  0  0  0  0  0  0  0
   41.5928  -22.9065   34.4799 C   0  0  0  0  0  0  0  0  0  0  0  0
   42.4105  -22.7272   33.2284 C   0  0  0  0  0  0  0  0  0  0  0  0
   42.3093  -23.9081   32.3633 N   0  0  0  0  0  0  0  0  0  0  0  0
   41.2888  -24.7459   32.9582 C   0  0  0  0  0  0  0  0  0  0  0  0
   40.8235  -25.8267   32.0189 C   0  0  0  0  0  0  0  0  0  0  0  0
   40.3328  -25.1727   30.8264 N   0  0  0  0  0  0  0  0  0  0  0  0
   39.6067  -26.0868   29.9607 C   0  0  0  0  0  0  0  0  0  0  0  0
   41.4667  -24.5711   30.1550 C   0  0  0  0  0  0  0  0  0  0  0  0
   41.9960  -23.4687   31.0471 C   0  0  0  0  0  0  0  0  0  0  0  0
 37 38  1  0  0  0
 38 27  1  0  0  0
 27 28  2  0  0  0
 28 29  1  0  0  0
 29 30  2  0  0  0
 30 26  1  0  0  0
 26  1  1  0  0  0
  1  2  2  0  0  0
  2  3  1  0  0  0
  3  4  2  0  0  0
  4  8  1  0  0  0
  8  9  1  0  0  0
  9 10  2  0  0  0
  9 12  1  0  0  0
 12 13  1  0  0  0
 13 14  1  0  0  0
 12 15  1  0  0  0
 15 16  2  0  0  0
 15 17  1  0  0  0
 17 19  1  0  0  0
 19 20  2  0  0  0
 20 21  1  0  0  0
 21 22  1  0  0  0
 22 23  1  0  0  0
 22 24  1  0  0  0
 24 25  2  0  0  0
  4  5  1  0  0  0
  5  6  2  0  0  0
  6  7  1  0  0  0
 30 31  1  0  0  0
 31 32  2  0  0  0
 32 33  1  0  0  0
 33 34  2  0  0  0
 34 35  1  0  0  0
 35 36  2  0  0  0
 36 39  1  0  0  0
 39 40  1  0  0  0
 40 41  1  0  0  0
 41 42  1  0  0  0
 42 43  1  0  0  0
 43 44  1  0  0  0
 44 45  1  0  0  0
 45 46  1  0  0  0
 46 47  1  0  0  0
 46 48  1  0  0  0
 48 49  1  0  0  0
 36 27  1  0  0  0
 49 43  1  0  0  0
 34 29  1  0  0  0
  6  1  1  0  0  0
 14 12  1  0  0  0
 25 19  1  0  0  0
  8 11  1  0  0  0
 17 18  1  0  0  0
M  END
> <minimizedAffinity>
-8.33184

> <CNNscore>
0.3020523489

> <CNNaffinity>
6.7850623131

> <CNN_VS>
2.0494439602

> <CNNaffinity_variance>
0.3421363235

$$$$
[H]C1=C([H])C([H])(F)C([H])([H])C([H])=C1N([H])C(=O)C1(C(=O)N([H])c2c([H])c([H])c(Oc3c([H])c([H])nc4c([H])c(OC([H])([H])C([H])([H])C([H])([H])N5C([H])([H])C([H])([H])N(C([H])([H])[H])C([H])([H])C5([H])[H])c(OC([H])([H])[H])c([H])c34)c(F)c2[H])C([H])([H])C1([H])[H]


 49 54  0  0  0  0  0  0  0  0999 V2000
   35.6018  -15.2865   36.9964 C   0  0  0  0  0  0  0  0  0  0  0  0
   34.3302  -15.3751   36.4531 C   0  0  0  0  0  0  0  0  0  0  0  0
   33.5062  -14.2941   36.4185 C   0  0  0  0  0  0  0  0  0  0  0  0
   33.8569  -13.0258   36.9162 C   0  0  0  0  0  0  0  0  0  0  0  0
   35.1141  -12.9546   37.4495 C   0  0  0  0  0  0  0  0  0  0  0  0
   35.9784  -14.0698   37.4894 C   0  0  0  0  0  0  0  0  0  0  0  0
   37.2337  -13.8756   38.0191 F   0  0  0  0  0  0  0  0  0  0  0  0
   32.9371  -11.9831   36.8278 N   0  0  0  0  0  0  0  0  0  0  0  0
   31.8732  -11.7458   37.6987 C   0  0  0  0  0  0  0  0  0  0  0  0
   31.5532  -12.4346   38.7211 O   0  0  0  0  0  0  0  0  0  0  0  0
   33.0413  -11.2905   36.0233 H   0  0  0  0  0  0  0  0  0  0  0  0
   30.9572  -10.5639   37.4832 C   0  0  0  0  0  0  0  0  0  0  0  0
   31.2619   -9.6315   36.3974 C   0  0  0  0  0  0  0  0  0  0  0  0
   31.5966   -9.2103   37.7720 C   0  0  0  0  0  0  0  0  0  0  0  0
   29.5686  -10.7221   37.9702 C   0  0  0  0  0  0  0  0  0  0  0  0
   28.6930  -11.1903   37.1727 O   0  0  0  0  0  0  0  0  0  0  0  0
   29.1354  -10.3915   39.2536 N   0  0  0  0  0  0  0  0  0  0  0  0
   29.7677  -10.0291   39.9721 H   0  0  0  0  0  0  0  0  0  0  0  0
   27.7564  -10.5457   39.6718 C   0  0  0  0  0  0  0  0  0  0  0  0
   27.4015  -11.6912   40.2083 C   0  0  0  0  0  0  0  0  0  0  0  0
   26.0648  -12.0036   40.6745 C   0  0  0  0  0  0  0  0  0  0  0  0
   25.0704  -10.9207   40.5998 C   0  0  0  0  0  0  0  0  0  0  0  0
   24.5977  -10.6671   41.9164 F   0  0  0  0  0  0  0  0  0  0  0  0
   25.5361   -9.6811   39.9879 C   0  0  0  0  0  0  0  0  0  0  0  0
   26.7657   -9.5141   39.5667 C   0  0  0  0  0  0  0  0  0  0  0  0
   36.4638  -16.3418   37.0494 O   0  0  0  0  0  0  0  0  0  0  0  0
   36.3854  -20.2946   38.2108 C   0  0  0  0  0  0  0  0  0  0  0  0
   36.4168  -18.9863   37.8043 C   0  0  0  0  0  0  0  0  0  0  0  0
   36.5883  -18.6817   36.4753 C   0  0  0  0  0  0  0  0  0  0  0  0
   36.6132  -17.3496   36.1079 C   0  0  0  0  0  0  0  0  0  0  0  0
   36.7857  -17.0487   34.7891 C   0  0  0  0  0  0  0  0  0  0  0  0
   36.9274  -18.0945   33.8676 C   0  0  0  0  0  0  0  0  0  0  0  0
   36.8959  -19.3725   34.2716 N   0  0  0  0  0  0  0  0  0  0  0  0
   36.7265  -19.7225   35.5835 C   0  0  0  0  0  0  0  0  0  0  0  0
   36.6963  -21.0327   35.9770 C   0  0  0  0  0  0  0  0  0  0  0  0
   36.5211  -21.3830   37.3304 C   0  0  0  0  0  0  0  0  0  0  0  0
   34.9659  -20.3191   40.1461 C   0  0  0  0  0  0  0  0  0  0  0  0
   36.2126  -20.6099   39.5448 O   0  0  0  0  0  0  0  0  0  0  0  0
   36.4827  -22.6041   37.7710 O   0  0  0  0  0  0  0  0  0  0  0  0
   36.4323  -23.8122   38.2055 C   0  0  0  0  0  0  0  0  0  0  0  0
   37.5378  -24.2150   39.1937 C   0  0  0  0  0  0  0  0  0  0  0  0
   37.1487  -23.8956   40.6128 C   0  0  0  0  0  0  0  0  0  0  0  0
   38.3376  -23.7232   41.4554 N   0  0  0  0  0  0  0  0  0  0  0  0
   38.6824  -22.3194   41.3674 C   0  0  0  0  0  0  0  0  0  0  0  0
   39.6655  -21.9090   42.4315 C   0  0  0  0  0  0  0  0  0  0  0  0
   39.0648  -22.2203   43.7094 N   0  0  0  0  0  0  0  0  0  0  0  0
   39.7936  -21.6234   44.8161 C   0  0  0  0  0  0  0  0  0  0  0  0
   38.9891  -23.6626   43.8214 C   0  0  0  0  0  0  0  0  0  0  0  0
   38.0147  -24.1535   42.7722 C   0  0  0  0  0  0  0  0  0  0  0  0
 37 38  1  0  0  0
 38 27  1  0  0  0
 27 28  2  0  0  0
 28 29  1  0  0  0
 29 30  2  0  0  0
 30 26  1  0  0  0
 26  1  1  0  0  0
  1  2  2  0  0  0
  2  3  1  0  0  0
  3  4  2  0  0  0
  4  8  1  0  0  0
  8  9  1  0  0  0
  9 10  2  0  0  0
  9 12  1  0  0  0
 12 13  1  0  0  0
 13 14  1  0  0  0
 12 15  1  0  0  0
 15 16  2  0  0  0
 15 17  1  0  0  0
 17 19  1  0  0  0
 19 20  2  0  0  0
 20 21  1  0  0  0
 21 22  1  0  0  0
 22 23  1  0  0  0
 22 24  1  0  0  0
 24 25  2  0  0  0
  4  5  1  0  0  0
  5  6  2  0  0  0
  6  7  1  0  0  0
 30 31  1  0  0  0
 31 32  2  0  0  0
 32 33  1  0  0  0
 33 34  2  0  0  0
 34 35  1  0  0  0
 35 36  2  0  0  0
 36 39  1  0  0  0
 39 40  1  0  0  0
 40 41  1  0  0  0
 41 42  1  0  0  0
 42 43  1  0  0  0
 43 44  1  0  0  0
 44 45  1  0  0  0
 45 46  1  0  0  0
 46 47  1  0  0  0
 46 48  1  0  0  0
 48 49  1  0  0  0
 36 27  1  0  0  0
 49 43  1  0  0  0
 34 29  1  0  0  0
  6  1  1  0  0  0
 14 12  1  0  0  0
 25 19  1  0  0  0
  8 11  1  0  0  0
 17 18  1  0  0  0
M  END
> <minimizedAffinity>
-7.06339

> <CNNscore>
0.2888548970

> <CNNaffinity>
6.7658743858

> <CNN_VS>
1.9543559551

> <CNNaffinity_variance>
0.0893330947

$$$$
[H]C1=C([H])C([H])(F)C([H])([H])C([H])=C1N([H])C(=O)C1(C(=O)N([H])c2c([H])c([H])c(Oc3c([H])c([H])nc4c([H])c(OC([H])([H])C([H])([H])C([H])([H])N5C([H])([H])C([H])([H])N(C([H])([H])[H])C([H])([H])C5([H])[H])c(OC([H])([H])[H])c([H])c34)c(F)c2[H])C([H])([H])C1([H])[H]


 49 54  0  0  0  0  0  0  0  0999 V2000
   35.6798  -15.3669   36.6636 C   0  0  0  0  0  0  0  0  0  0  0  0
   34.3311  -15.4172   36.3497 C   0  0  0  0  0  0  0  0  0  0  0  0
   33.5576  -14.3002   36.4009 C   0  0  0  0  0  0  0  0  0  0  0  0
   34.0395  -13.0300   36.7666 C   0  0  0  0  0  0  0  0  0  0  0  0
   35.3716  -12.9967   37.0739 C   0  0  0  0  0  0  0  0  0  0  0  0
   36.1843  -14.1496   37.0229 C   0  0  0  0  0  0  0  0  0  0  0  0
   37.5188  -13.9936   37.3208 F   0  0  0  0  0  0  0  0  0  0  0  0
   33.1609  -11.9489   36.7831 N   0  0  0  0  0  0  0  0  0  0  0  0
   32.0172  -11.8275   37.5730 C   0  0  0  0  0  0  0  0  0  0  0  0
   31.5735  -12.6765   38.4123 O   0  0  0  0  0  0  0  0  0  0  0  0
   33.3672  -11.1264   36.1361 H   0  0  0  0  0  0  0  0  0  0  0  0
   31.1594  -10.5865   37.4916 C   0  0  0  0  0  0  0  0  0  0  0  0
   31.4926   -9.5701   36.4930 C   0  0  0  0  0  0  0  0  0  0  0  0
   31.8722   -9.3003   37.8937 C   0  0  0  0  0  0  0  0  0  0  0  0
   29.7732  -10.7222   37.9919 C   0  0  0  0  0  0  0  0  0  0  0  0
   28.8614  -11.0696   37.1735 O   0  0  0  0  0  0  0  0  0  0  0  0
   29.3795  -10.4937   39.3098 N   0  0  0  0  0  0  0  0  0  0  0  0
   30.0417  -10.2323   40.0451 H   0  0  0  0  0  0  0  0  0  0  0  0
   28.0019  -10.6194   39.7419 C   0  0  0  0  0  0  0  0  0  0  0  0
   27.2011   -9.5962   39.5474 C   0  0  0  0  0  0  0  0  0  0  0  0
   25.8014   -9.5624   39.9231 C   0  0  0  0  0  0  0  0  0  0  0  0
   25.2414  -10.7989   40.4930 C   0  0  0  0  0  0  0  0  0  0  0  0
   24.1733  -11.2234   39.6563 F   0  0  0  0  0  0  0  0  0  0  0  0
   26.1914  -11.8892   40.6837 C   0  0  0  0  0  0  0  0  0  0  0  0
   27.4522  -11.8028   40.3371 C   0  0  0  0  0  0  0  0  0  0  0  0
   36.4949  -16.4593   36.6228 O   0  0  0  0  0  0  0  0  0  0  0  0
   39.6913  -19.0406   36.3064 C   0  0  0  0  0  0  0  0  0  0  0  0
   38.6193  -18.1914   36.3940 C   0  0  0  0  0  0  0  0  0  0  0  0
   37.5348  -18.3634   35.5676 C   0  0  0  0  0  0  0  0  0  0  0  0
   36.4744  -17.4854   35.6894 C   0  0  0  0  0  0  0  0  0  0  0  0
   35.3999  -17.6558   34.8672 C   0  0  0  0  0  0  0  0  0  0  0  0
   35.4142  -18.7072   33.9414 C   0  0  0  0  0  0  0  0  0  0  0  0
   36.4661  -19.5344   33.8604 N   0  0  0  0  0  0  0  0  0  0  0  0
   37.5663  -19.4018   34.6631 C   0  0  0  0  0  0  0  0  0  0  0  0
   38.6305  -20.2566   34.5664 C   0  0  0  0  0  0  0  0  0  0  0  0
   39.7588  -20.1119   35.3977 C   0  0  0  0  0  0  0  0  0  0  0  0
   40.8108  -19.5804   38.3597 C   0  0  0  0  0  0  0  0  0  0  0  0
   40.7853  -18.8755   37.1339 O   0  0  0  0  0  0  0  0  0  0  0  0
   40.8004  -20.8866   35.3587 O   0  0  0  0  0  0  0  0  0  0  0  0
   41.8238  -21.6627   35.3230 C   0  0  0  0  0  0  0  0  0  0  0  0
   41.5434  -23.1526   35.5731 C   0  0  0  0  0  0  0  0  0  0  0  0
   40.6283  -23.3485   36.7527 C   0  0  0  0  0  0  0  0  0  0  0  0
   39.6860  -24.4463   36.5076 N   0  0  0  0  0  0  0  0  0  0  0  0
   38.8773  -24.0271   35.3817 C   0  0  0  0  0  0  0  0  0  0  0  0
   38.0946  -25.1688   34.7892 C   0  0  0  0  0  0  0  0  0  0  0  0
   39.0490  -26.1822   34.3984 N   0  0  0  0  0  0  0  0  0  0  0  0
   38.4452  -27.2109   33.5682 C   0  0  0  0  0  0  0  0  0  0  0  0
   39.6312  -26.7291   35.6068 C   0  0  0  0  0  0  0  0  0  0  0  0
   40.4367  -25.6301   36.2659 C   0  0  0  0  0  0  0  0  0  0  0  0
 37 38  1  0  0  0
 38 27  1  0  0  0
 27 28  2  0  0  0
 28 29  1  0  0  0
 29 30  2  0  0  0
 30 26  1  0  0  0
 26  1  1  0  0  0
  1  2  2  0  0  0
  2  3  1  0  0  0
  3  4  2  0  0  0
  4  8  1  0  0  0
  8  9  1  0  0  0
  9 10  2  0  0  0
  9 12  1  0  0  0
 12 13  1  0  0  0
 13 14  1  0  0  0
 12 15  1  0  0  0
 15 16  2  0  0  0
 15 17  1  0  0  0
 17 19  1  0  0  0
 19 20  2  0  0  0
 20 21  1  0  0  0
 21 22  1  0  0  0
 22 23  1  0  0  0
 22 24  1  0  0  0
 24 25  2  0  0  0
  4  5  1  0  0  0
  5  6  2  0  0  0
  6  7  1  0  0  0
 30 31  1  0  0  0
 31 32  2  0  0  0
 32 33  1  0  0  0
 33 34  2  0  0  0
 34 35  1  0  0  0
 35 36  2  0  0  0
 36 39  1  0  0  0
 39 40  1  0  0  0
 40 41  1  0  0  0
 41 42  1  0  0  0
 42 43  1  0  0  0
 43 44  1  0  0  0
 44 45  1  0  0  0
 45 46  1  0  0  0
 46 47  1  0  0  0
 46 48  1  0  0  0
 48 49  1  0  0  0
 36 27  1  0  0  0
 49 43  1  0  0  0
 34 29  1  0  0  0
  6  1  1  0  0  0
 14 12  1  0  0  0
 25 19  1  0  0  0
  8 11  1  0  0  0
 17 18  1  0  0  0
M  END
> <minimizedAffinity>
-7.70001

> <CNNscore>
0.2849515080

> <CNNaffinity>
6.8195099831

> <CNN_VS>
1.9432296753

> <CNNaffinity_variance>
0.1523578167

$$$$
[H]C1=C([H])C([H])(F)C([H])([H])C([H])=C1N([H])C(=O)C1(C(=O)N([H])c2c([H])c([H])c(Oc3c([H])c([H])nc4c([H])c(OC([H])([H])C([H])([H])C([H])([H])N5C([H])([H])C([H])([H])N(C([H])([H])[H])C([H])([H])C5([H])[H])c(OC([H])([H])[H])c([H])c34)c(F)c2[H])C([H])([H])C1([H])[H]


 49 54  0  0  0  0  0  0  0  0999 V2000
   35.7923  -15.7201   36.7451 C   0  0  0  0  0  0  0  0  0  0  0  0
   34.6265  -15.8020   36.0007 C   0  0  0  0  0  0  0  0  0  0  0  0
   33.6906  -14.8171   36.0534 C   0  0  0  0  0  0  0  0  0  0  0  0
   33.8150  -13.6603   36.8444 C   0  0  0  0  0  0  0  0  0  0  0  0
   34.9701  -13.5943   37.5735 C   0  0  0  0  0  0  0  0  0  0  0  0
   35.9489  -14.6101   37.5254 C   0  0  0  0  0  0  0  0  0  0  0  0
   37.0878  -14.4238   38.2752 F   0  0  0  0  0  0  0  0  0  0  0  0
   32.7969  -12.7095   36.8224 N   0  0  0  0  0  0  0  0  0  0  0  0
   31.9582  -12.3744   37.8858 C   0  0  0  0  0  0  0  0  0  0  0  0
   31.9710  -12.8743   39.0572 O   0  0  0  0  0  0  0  0  0  0  0  0
   32.6287  -12.1773   35.9135 H   0  0  0  0  0  0  0  0  0  0  0  0
   30.8982  -11.3110   37.7184 C   0  0  0  0  0  0  0  0  0  0  0  0
   30.9814  -10.4160   36.5637 C   0  0  0  0  0  0  0  0  0  0  0  0
   31.4087   -9.8827   37.8722 C   0  0  0  0  0  0  0  0  0  0  0  0
   29.5946  -11.5875   38.3622 C   0  0  0  0  0  0  0  0  0  0  0  0
   28.5621  -11.6978   37.6248 O   0  0  0  0  0  0  0  0  0  0  0  0
   29.4037  -11.7371   39.7353 N   0  0  0  0  0  0  0  0  0  0  0  0
   30.1741  -11.6875   40.4071 H   0  0  0  0  0  0  0  0  0  0  0  0
   28.0991  -11.9849   40.3157 C   0  0  0  0  0  0  0  0  0  0  0  0
   27.7835  -13.2256   40.6108 C   0  0  0  0  0  0  0  0  0  0  0  0
   26.5216  -13.6386   41.1927 C   0  0  0  0  0  0  0  0  0  0  0  0
   25.5722  -12.5676   41.5371 C   0  0  0  0  0  0  0  0  0  0  0  0
   25.3157  -12.6407   42.9336 F   0  0  0  0  0  0  0  0  0  0  0  0
   25.9896  -11.2176   41.1750 C   0  0  0  0  0  0  0  0  0  0  0  0
   27.1467  -10.9563   40.6182 C   0  0  0  0  0  0  0  0  0  0  0  0
   36.7599  -16.6806   36.7213 O   0  0  0  0  0  0  0  0  0  0  0  0
   39.8319  -19.3304   35.9991 C   0  0  0  0  0  0  0  0  0  0  0  0
   38.7974  -18.4659   36.2452 C   0  0  0  0  0  0  0  0  0  0  0  0
   37.6360  -18.9264   36.8175 C   0  0  0  0  0  0  0  0  0  0  0  0
   36.6179  -18.0210   37.0495 C   0  0  0  0  0  0  0  0  0  0  0  0
   35.4651  -18.4797   37.6155 C   0  0  0  0  0  0  0  0  0  0  0  0
   35.3619  -19.8392   37.9379 C   0  0  0  0  0  0  0  0  0  0  0  0
   36.3775  -20.6800   37.6945 N   0  0  0  0  0  0  0  0  0  0  0  0
   37.5520  -20.2659   37.1274 C   0  0  0  0  0  0  0  0  0  0  0  0
   38.5779  -21.1389   36.8871 C   0  0  0  0  0  0  0  0  0  0  0  0
   39.7836  -20.7028   36.3029 C   0  0  0  0  0  0  0  0  0  0  0  0
   41.0093  -18.6099   34.0356 C   0  0  0  0  0  0  0  0  0  0  0  0
   41.0033  -18.8758   35.4247 O   0  0  0  0  0  0  0  0  0  0  0  0
   40.7951  -21.4766   36.0485 O   0  0  0  0  0  0  0  0  0  0  0  0
   41.7892  -22.2518   35.8004 C   0  0  0  0  0  0  0  0  0  0  0  0
   42.7463  -22.5103   36.9743 C   0  0  0  0  0  0  0  0  0  0  0  0
   43.1260  -21.2277   37.6656 C   0  0  0  0  0  0  0  0  0  0  0  0
   42.7361  -21.2599   39.0798 N   0  0  0  0  0  0  0  0  0  0  0  0
   43.9300  -20.9196   39.8254 C   0  0  0  0  0  0  0  0  0  0  0  0
   43.6248  -20.5770   41.2595 C   0  0  0  0  0  0  0  0  0  0  0  0
   42.6869  -19.4766   41.2444 N   0  0  0  0  0  0  0  0  0  0  0  0
   42.5260  -18.8771   42.5585 C   0  0  0  0  0  0  0  0  0  0  0  0
   41.4333  -19.9730   40.7147 C   0  0  0  0  0  0  0  0  0  0  0  0
   41.6630  -20.3447   39.2654 C   0  0  0  0  0  0  0  0  0  0  0  0
 37 38  1  0  0  0
 38 27  1  0  0  0
 27 28  2  0  0  0
 28 29  1  0  0  0
 29 30  2  0  0  0
 30 26  1  0  0  0
 26  1  1  0  0  0
  1  2  2  0  0  0
  2  3  1  0  0  0
  3  4  2  0  0  0
  4  8  1  0  0  0
  8  9  1  0  0  0
  9 10  2  0  0  0
  9 12  1  0  0  0
 12 13  1  0  0  0
 13 14  1  0  0  0
 12 15  1  0  0  0
 15 16  2  0  0  0
 15 17  1  0  0  0
 17 19  1  0  0  0
 19 20  2  0  0  0
 20 21  1  0  0  0
 21 22  1  0  0  0
 22 23  1  0  0  0
 22 24  1  0  0  0
 24 25  2  0  0  0
  4  5  1  0  0  0
  5  6  2  0  0  0
  6  7  1  0  0  0
 30 31  1  0  0  0
 31 32  2  0  0  0
 32 33  1  0  0  0
 33 34  2  0  0  0
 34 35  1  0  0  0
 35 36  2  0  0  0
 36 39  1  0  0  0
 39 40  1  0  0  0
 40 41  1  0  0  0
 41 42  1  0  0  0
 42 43  1  0  0  0
 43 44  1  0  0  0
 44 45  1  0  0  0
 45 46  1  0  0  0
 46 47  1  0  0  0
 46 48  1  0  0  0
 48 49  1  0  0  0
 36 27  1  0  0  0
 49 43  1  0  0  0
 34 29  1  0  0  0
  6  1  1  0  0  0
 14 12  1  0  0  0
 25 19  1  0  0  0
  8 11  1  0  0  0
 17 18  1  0  0  0
M  END
> <minimizedAffinity>
-7.65575

> <CNNscore>
0.2723784149

> <CNNaffinity>
6.8137922287

> <CNN_VS>
1.8559299707

> <CNNaffinity_variance>
0.0815409496

$$$$
[H]C1=C([H])C([H])(F)C([H])([H])C([H])=C1N([H])C(=O)C1(C(=O)N([H])c2c([H])c([H])c(Oc3c([H])c([H])nc4c([H])c(OC([H])([H])C([H])([H])C([H])([H])N5C([H])([H])C([H])([H])N(C([H])([H])[H])C([H])([H])C5([H])[H])c(OC([H])([H])[H])c([H])c34)c(F)c2[H])C([H])([H])C1([H])[H]


 49 54  0  0  0  0  0  0  0  0999 V2000
   35.6314  -15.2109   36.9501 C   0  0  0  0  0  0  0  0  0  0  0  0
   34.3538  -15.2830   36.4187 C   0  0  0  0  0  0  0  0  0  0  0  0
   33.5385  -14.1949   36.4040 C   0  0  0  0  0  0  0  0  0  0  0  0
   33.9048  -12.9350   36.9118 C   0  0  0  0  0  0  0  0  0  0  0  0
   35.1678  -12.8801   37.4332 C   0  0  0  0  0  0  0  0  0  0  0  0
   36.0231  -14.0027   37.4524 C   0  0  0  0  0  0  0  0  0  0  0  0
   37.2851  -13.8247   37.9715 F   0  0  0  0  0  0  0  0  0  0  0  0
   32.9929  -11.8839   36.8440 N   0  0  0  0  0  0  0  0  0  0  0  0
   31.8874  -11.6962   37.6741 C   0  0  0  0  0  0  0  0  0  0  0  0
   31.5151  -12.4464   38.6337 O   0  0  0  0  0  0  0  0  0  0  0  0
   33.1389  -11.1425   36.0911 H   0  0  0  0  0  0  0  0  0  0  0  0
   30.9860  -10.4981   37.4886 C   0  0  0  0  0  0  0  0  0  0  0  0
   31.2907   -9.5533   36.4135 C   0  0  0  0  0  0  0  0  0  0  0  0
   31.6484   -9.1585   37.7902 C   0  0  0  0  0  0  0  0  0  0  0  0
   29.6014  -10.6440   37.9904 C   0  0  0  0  0  0  0  0  0  0  0  0
   28.7105  -11.0925   37.1985 O   0  0  0  0  0  0  0  0  0  0  0  0
   29.1877  -10.3220   39.2824 N   0  0  0  0  0  0  0  0  0  0  0  0
   29.8330   -9.9756   39.9971 H   0  0  0  0  0  0  0  0  0  0  0  0
   27.8119  -10.4634   39.7154 C   0  0  0  0  0  0  0  0  0  0  0  0
   27.4598  -11.5942   40.2841 C   0  0  0  0  0  0  0  0  0  0  0  0
   26.1265  -11.8925   40.7688 C   0  0  0  0  0  0  0  0  0  0  0  0
   25.1329  -10.8104   40.6742 C   0  0  0  0  0  0  0  0  0  0  0  0
   24.6711  -10.5224   41.9876 F   0  0  0  0  0  0  0  0  0  0  0  0
   25.5953   -9.5877   40.0269 C   0  0  0  0  0  0  0  0  0  0  0  0
   26.8217   -9.4334   39.5918 C   0  0  0  0  0  0  0  0  0  0  0  0
   36.4850  -16.2738   36.9831 O   0  0  0  0  0  0  0  0  0  0  0  0
   35.1458  -19.8934   38.4269 C   0  0  0  0  0  0  0  0  0  0  0  0
   35.5972  -18.6995   37.9282 C   0  0  0  0  0  0  0  0  0  0  0  0
   36.0184  -18.6132   36.6229 C   0  0  0  0  0  0  0  0  0  0  0  0
   36.4651  -17.3901   36.1597 C   0  0  0  0  0  0  0  0  0  0  0  0
   36.8849  -17.3064   34.8650 C   0  0  0  0  0  0  0  0  0  0  0  0
   36.8443  -18.4546   34.0631 C   0  0  0  0  0  0  0  0  0  0  0  0
   36.4019  -19.6197   34.5570 N   0  0  0  0  0  0  0  0  0  0  0  0
   35.9721  -19.7521   35.8494 C   0  0  0  0  0  0  0  0  0  0  0  0
   35.5231  -20.9497   36.3357 C   0  0  0  0  0  0  0  0  0  0  0  0
   35.0824  -21.0758   37.6679 C   0  0  0  0  0  0  0  0  0  0  0  0
   35.6445  -20.4307   40.7124 C   0  0  0  0  0  0  0  0  0  0  0  0
   34.7198  -19.9890   39.7377 O   0  0  0  0  0  0  0  0  0  0  0  0
   34.6445  -22.1803   38.1923 O   0  0  0  0  0  0  0  0  0  0  0  0
   34.1999  -23.2687   38.7104 C   0  0  0  0  0  0  0  0  0  0  0  0
   32.8456  -23.1640   39.4287 C   0  0  0  0  0  0  0  0  0  0  0  0
   32.7055  -24.2199   40.4929 C   0  0  0  0  0  0  0  0  0  0  0  0
   32.1763  -23.6446   41.7348 N   0  0  0  0  0  0  0  0  0  0  0  0
   32.6156  -24.5268   42.7960 C   0  0  0  0  0  0  0  0  0  0  0  0
   32.4493  -23.9039   44.1567 C   0  0  0  0  0  0  0  0  0  0  0  0
   33.2045  -22.6709   44.1561 N   0  0  0  0  0  0  0  0  0  0  0  0
   33.3479  -22.1168   45.4920 C   0  0  0  0  0  0  0  0  0  0  0  0
   32.5455  -21.7506   43.2521 C   0  0  0  0  0  0  0  0  0  0  0  0
   32.6681  -22.3151   41.8530 C   0  0  0  0  0  0  0  0  0  0  0  0
 37 38  1  0  0  0
 38 27  1  0  0  0
 27 28  2  0  0  0
 28 29  1  0  0  0
 29 30  2  0  0  0
 30 26  1  0  0  0
 26  1  1  0  0  0
  1  2  2  0  0  0
  2  3  1  0  0  0
  3  4  2  0  0  0
  4  8  1  0  0  0
  8  9  1  0  0  0
  9 10  2  0  0  0
  9 12  1  0  0  0
 12 13  1  0  0  0
 13 14  1  0  0  0
 12 15  1  0  0  0
 15 16  2  0  0  0
 15 17  1  0  0  0
 17 19  1  0  0  0
 19 20  2  0  0  0
 20 21  1  0  0  0
 21 22  1  0  0  0
 22 23  1  0  0  0
 22 24  1  0  0  0
 24 25  2  0  0  0
  4  5  1  0  0  0
  5  6  2  0  0  0
  6  7  1  0  0  0
 30 31  1  0  0  0
 31 32  2  0  0  0
 32 33  1  0  0  0
 33 34  2  0  0  0
 34 35  1  0  0  0
 35 36  2  0  0  0
 36 39  1  0  0  0
 39 40  1  0  0  0
 40 41  1  0  0  0
 41 42  1  0  0  0
 42 43  1  0  0  0
 43 44  1  0  0  0
 44 45  1  0  0  0
 45 46  1  0  0  0
 46 47  1  0  0  0
 46 48  1  0  0  0
 48 49  1  0  0  0
 36 27  1  0  0  0
 49 43  1  0  0  0
 34 29  1  0  0  0
  6  1  1  0  0  0
 14 12  1  0  0  0
 25 19  1  0  0  0
  8 11  1  0  0  0
 17 18  1  0  0  0
M  END
> <minimizedAffinity>
-7.31497

> <CNNscore>
0.2620353997

> <CNNaffinity>
6.7930345535

> <CNN_VS>
1.7800154686

> <CNNaffinity_variance>
0.0643729717

$$$$
[H]C1=C([H])C([H])(F)C([H])([H])C([H])=C1N([H])C(=O)C1(C(=O)N([H])c2c([H])c([H])c(Oc3c([H])c([H])nc4c([H])c(OC([H])([H])C([H])([H])C([H])([H])N5C([H])([H])C([H])([H])N(C([H])([H])[H])C([H])([H])C5([H])[H])c(OC([H])([H])[H])c([H])c34)c(F)c2[H])C([H])([H])C1([H])[H]


 49 54  0  0  0  0  0  0  0  0999 V2000
   35.5636  -16.8741   35.8370 C   0  0  0  0  0  0  0  0  0  0  0  0
   36.3155  -15.7718   36.2106 C   0  0  0  0  0  0  0  0  0  0  0  0
   35.7405  -14.5485   36.3573 C   0  0  0  0  0  0  0  0  0  0  0  0
   34.3722  -14.2962   36.1491 C   0  0  0  0  0  0  0  0  0  0  0  0
   33.6439  -15.3935   35.7804 C   0  0  0  0  0  0  0  0  0  0  0  0
   34.2299  -16.6682   35.6265 C   0  0  0  0  0  0  0  0  0  0  0  0
   33.3959  -17.7081   35.2843 F   0  0  0  0  0  0  0  0  0  0  0  0
   33.8842  -13.0040   36.3304 N   0  0  0  0  0  0  0  0  0  0  0  0
   33.3206  -12.4916   37.4994 C   0  0  0  0  0  0  0  0  0  0  0  0
   33.1508  -13.1082   38.6008 O   0  0  0  0  0  0  0  0  0  0  0  0
   33.9387  -12.3282   35.5069 H   0  0  0  0  0  0  0  0  0  0  0  0
   32.8401  -11.0603   37.5535 C   0  0  0  0  0  0  0  0  0  0  0  0
   33.6700  -10.0203   36.9445 C   0  0  0  0  0  0  0  0  0  0  0  0
   33.6972  -10.1401   38.4155 C   0  0  0  0  0  0  0  0  0  0  0  0
   31.3786  -10.8714   37.6897 C   0  0  0  0  0  0  0  0  0  0  0  0
   30.7713  -10.1688   36.8182 O   0  0  0  0  0  0  0  0  0  0  0  0
   30.6013  -11.4089   38.7149 N   0  0  0  0  0  0  0  0  0  0  0  0
   30.9933  -12.0044   39.4491 H   0  0  0  0  0  0  0  0  0  0  0  0
   29.1747  -11.1733   38.8132 C   0  0  0  0  0  0  0  0  0  0  0  0
   28.3653  -12.1277   38.4130 C   0  0  0  0  0  0  0  0  0  0  0  0
   26.9181  -12.0475   38.4440 C   0  0  0  0  0  0  0  0  0  0  0  0
   26.3375  -10.8323   39.0383 C   0  0  0  0  0  0  0  0  0  0  0  0
   25.5333  -11.2251   40.1430 F   0  0  0  0  0  0  0  0  0  0  0  0
   27.2976   -9.8161   39.4546 C   0  0  0  0  0  0  0  0  0  0  0  0
   28.5939   -9.9775   39.3511 C   0  0  0  0  0  0  0  0  0  0  0  0
   36.0955  -18.1200   35.6814 O   0  0  0  0  0  0  0  0  0  0  0  0
   40.0463  -19.2693   35.9056 C   0  0  0  0  0  0  0  0  0  0  0  0
   38.7276  -18.9012   35.8471 C   0  0  0  0  0  0  0  0  0  0  0  0
   37.8369  -19.3793   36.7780 C   0  0  0  0  0  0  0  0  0  0  0  0
   36.5164  -18.9824   36.6833 C   0  0  0  0  0  0  0  0  0  0  0  0
   35.6331  -19.4593   37.6063 C   0  0  0  0  0  0  0  0  0  0  0  0
   36.0975  -20.3237   38.6063 C   0  0  0  0  0  0  0  0  0  0  0  0
   37.3889  -20.6803   38.6580 N   0  0  0  0  0  0  0  0  0  0  0  0
   38.3109  -20.2284   37.7535 C   0  0  0  0  0  0  0  0  0  0  0  0
   39.6251  -20.6030   37.8228 C   0  0  0  0  0  0  0  0  0  0  0  0
   40.5670  -20.1321   36.8868 C   0  0  0  0  0  0  0  0  0  0  0  0
   40.7195  -19.0835   33.6093 C   0  0  0  0  0  0  0  0  0  0  0  0
   40.9488  -18.7928   34.9744 O   0  0  0  0  0  0  0  0  0  0  0  0
   41.8270  -20.4469   36.8950 O   0  0  0  0  0  0  0  0  0  0  0  0
   43.0705  -20.7702   36.9044 C   0  0  0  0  0  0  0  0  0  0  0  0
   43.7067  -21.0243   35.5291 C   0  0  0  0  0  0  0  0  0  0  0  0
   43.5054  -22.4491   35.0859 C   0  0  0  0  0  0  0  0  0  0  0  0
   42.4020  -22.5471   34.1236 N   0  0  0  0  0  0  0  0  0  0  0  0
   42.9358  -23.2633   32.9838 C   0  0  0  0  0  0  0  0  0  0  0  0
   41.8508  -23.7440   32.0570 C   0  0  0  0  0  0  0  0  0  0  0  0
   40.9672  -24.5837   32.8346 N   0  0  0  0  0  0  0  0  0  0  0  0
   40.0403  -25.3259   31.9967 C   0  0  0  0  0  0  0  0  0  0  0  0
   40.2812  -23.7372   33.7891 C   0  0  0  0  0  0  0  0  0  0  0  0
   41.3154  -23.2089   34.7599 C   0  0  0  0  0  0  0  0  0  0  0  0
 37 38  1  0  0  0
 38 27  1  0  0  0
 27 28  2  0  0  0
 28 29  1  0  0  0
 29 30  2  0  0  0
 30 26  1  0  0  0
 26  1  1  0  0  0
  1  2  2  0  0  0
  2  3  1  0  0  0
  3  4  2  0  0  0
  4  8  1  0  0  0
  8  9  1  0  0  0
  9 10  2  0  0  0
  9 12  1  0  0  0
 12 13  1  0  0  0
 13 14  1  0  0  0
 12 15  1  0  0  0
 15 16  2  0  0  0
 15 17  1  0  0  0
 17 19  1  0  0  0
 19 20  2  0  0  0
 20 21  1  0  0  0
 21 22  1  0  0  0
 22 23  1  0  0  0
 22 24  1  0  0  0
 24 25  2  0  0  0
  4  5  1  0  0  0
  5  6  2  0  0  0
  6  7  1  0  0  0
 30 31  1  0  0  0
 31 32  2  0  0  0
 32 33  1  0  0  0
 33 34  2  0  0  0
 34 35  1  0  0  0
 35 36  2  0  0  0
 36 39  1  0  0  0
 39 40  1  0  0  0
 40 41  1  0  0  0
 41 42  1  0  0  0
 42 43  1  0  0  0
 43 44  1  0  0  0
 44 45  1  0  0  0
 45 46  1  0  0  0
 46 47  1  0  0  0
 46 48  1  0  0  0
 48 49  1  0  0  0
 36 27  1  0  0  0
 49 43  1  0  0  0
 34 29  1  0  0  0
  6  1  1  0  0  0
 14 12  1  0  0  0
 25 19  1  0  0  0
  8 11  1  0  0  0
 17 18  1  0  0  0
M  END
> <minimizedAffinity>
-7.56981

> <CNNscore>
0.2616815269

> <CNNaffinity>
6.8338193893

> <CNN_VS>
1.7882843018

> <CNNaffinity_variance>
0.1048601121

$$$$
[H]N([H])C(=O)C([H])([H])C([H])([H])[C@@]([H])(C(=O)N([H])[C@]([H])(C(=O)N([H])[C@]([H])(C(=O)N([H])[C@]([H])(C(=O)N([H])[C@]([H])(C(=O)N([H])[C@]([H])(C(=O)N([H])[C@]([H])(C(=O)N([H])[H])C([H])([H])C([H])(C([H])([H])[H])C([H])([H])[H])C([H])([H])C([H])([H])C(=O)N([H])[H])C([H])([H])C([H])([H])C(=O)N([H])[H])C([H])([H])C([H])([H])C(=O)N([H])[H])C([H])([H])C([H])([H])C(=O)N([H])[H])C([H])([H])C([H])([H])C(=O)N([H])[H])N([H])C(=O)C([H])([H])[H]


 87 86  0  0  0  0  0  0  0  0999 V2000
   33.2924  -12.5600   37.9427 C   0  0  0  0  0  0  0  0  0  0  0  0
   33.2933  -13.7984   37.1337 N   0  0  0  0  0  0  0  0  0  0  0  0
   34.5151  -14.3841   36.7511 C   0  0  0  0  0  0  0  0  0  0  0  0
   35.5963  -13.7793   37.1387 O   0  0  0  0  0  0  0  0  0  0  0  0
   32.4022  -14.2085   36.8691 H   0  0  0  0  0  0  0  0  0  0  0  0
   34.6571  -15.6229   35.9514 C   0  0  0  0  0  0  0  0  0  0  0  0
   35.5492  -16.5758   36.6395 N   0  0  0  0  0  0  0  0  0  0  0  0
   36.4944  -17.3572   35.9501 C   0  0  0  0  0  0  0  0  0  0  0  0
   36.6756  -17.3105   34.7714 O   0  0  0  0  0  0  0  0  0  0  0  0
   35.4584  -16.6417   37.6616 H   0  0  0  0  0  0  0  0  0  0  0  0
   37.3355  -18.3396   36.8464 C   0  0  0  0  0  0  0  0  0  0  0  0
   36.4789  -19.3514   37.1908 N   0  0  0  0  0  0  0  0  0  0  0  0
   35.4697  -20.0887   37.9168 C   0  0  0  0  0  0  0  0  0  0  0  0
   34.8419  -19.8112   38.8607 O   0  0  0  0  0  0  0  0  0  0  0  0
   36.1048  -18.3657   38.2211 H   0  0  0  0  0  0  0  0  0  0  0  0
   35.1825  -21.5121   37.3050 C   0  0  0  0  0  0  0  0  0  0  0  0
   35.6362  -22.4355   38.3152 N   0  0  0  0  0  0  0  0  0  0  0  0
   36.6060  -23.4501   38.0210 C   0  0  0  0  0  0  0  0  0  0  0  0
   37.0153  -24.3576   39.1267 C   0  0  0  0  0  0  0  0  0  0  0  0
   37.0971  -23.5790   36.8879 O   0  0  0  0  0  0  0  0  0  0  0  0
   35.2650  -22.4093   39.3036 H   0  0  0  0  0  0  0  0  0  0  0  0
   33.7197  -21.5444   37.1244 C   0  0  0  0  0  0  0  0  0  0  0  0
   33.1410  -22.6024   36.2752 C   0  0  0  0  0  0  0  0  0  0  0  0
   32.1804  -22.1150   35.2841 C   0  0  0  0  0  0  0  0  0  0  0  0
   32.4141  -22.1519   33.8846 N   0  0  0  0  0  0  0  0  0  0  0  0
   31.0911  -21.6405   35.7038 O   0  0  0  0  0  0  0  0  0  0  0  0
   32.4982  -23.0569   33.3596 H   0  0  0  0  0  0  0  0  0  0  0  0
   32.4908  -21.2673   33.3710 H   0  0  0  0  0  0  0  0  0  0  0  0
   38.4093  -18.8213   35.9080 C   0  0  0  0  0  0  0  0  0  0  0  0
   38.5774  -20.2379   35.6346 C   0  0  0  0  0  0  0  0  0  0  0  0
   38.9090  -20.7127   34.3132 C   0  0  0  0  0  0  0  0  0  0  0  0
   38.7630  -19.9061   33.1528 N   0  0  0  0  0  0  0  0  0  0  0  0
   39.3591  -21.8936   34.1092 O   0  0  0  0  0  0  0  0  0  0  0  0
   39.0279  -18.9172   33.0716 H   0  0  0  0  0  0  0  0  0  0  0  0
   38.3340  -20.3975   32.3013 H   0  0  0  0  0  0  0  0  0  0  0  0
   33.3200  -16.3571   35.7941 C   0  0  0  0  0  0  0  0  0  0  0  0
   33.2909  -17.0114   34.4151 C   0  0  0  0  0  0  0  0  0  0  0  0
   32.8346  -18.4207   34.5830 C   0  0  0  0  0  0  0  0  0  0  0  0
   31.5873  -18.6929   35.1909 N   0  0  0  0  0  0  0  0  0  0  0  0
   33.5636  -19.3766   34.1795 O   0  0  0  0  0  0  0  0  0  0  0  0
   31.4363  -19.3143   36.0141 H   0  0  0  0  0  0  0  0  0  0  0  0
   30.7412  -18.2179   34.7743 H   0  0  0  0  0  0  0  0  0  0  0  0
   30.8627  -12.5774   38.4679 N   0  0  0  0  0  0  0  0  0  0  0  0
   32.1207  -12.7130   38.9218 C   0  0  0  0  0  0  0  0  0  0  0  0
   32.4680  -12.9514   40.1015 O   0  0  0  0  0  0  0  0  0  0  0  0
   30.8532  -12.3600   37.3363 H   0  0  0  0  0  0  0  0  0  0  0  0
   29.5274  -12.6142   38.9622 C   0  0  0  0  0  0  0  0  0  0  0  0
   27.8237  -10.9257   39.5128 N   0  0  0  0  0  0  0  0  0  0  0  0
   28.6160  -11.5570   38.5043 C   0  0  0  0  0  0  0  0  0  0  0  0
   28.5076  -11.2237   37.3338 O   0  0  0  0  0  0  0  0  0  0  0  0
   28.0126  -11.2296   40.5144 H   0  0  0  0  0  0  0  0  0  0  0  0
   26.8337   -9.9370   39.3493 C   0  0  0  0  0  0  0  0  0  0  0  0
   26.4502   -8.6889   41.4940 N   0  0  0  0  0  0  0  0  0  0  0  0
   27.0309   -8.7545   40.2263 C   0  0  0  0  0  0  0  0  0  0  0  0
   27.7352   -7.8170   39.7969 O   0  0  0  0  0  0  0  0  0  0  0  0
   25.8474   -9.5372   41.7643 H   0  0  0  0  0  0  0  0  0  0  0  0
   26.5155   -7.6725   42.4936 C   0  0  0  0  0  0  0  0  0  0  0  0
   26.6958   -8.1963   43.8481 C   0  0  0  0  0  0  0  0  0  0  0  0
   26.9336   -7.4630   45.0108 N   0  0  0  0  0  0  0  0  0  0  0  0
   26.6273   -9.4842   43.9650 O   0  0  0  0  0  0  0  0  0  0  0  0
   27.6842   -6.7617   45.0753 H   0  0  0  0  0  0  0  0  0  0  0  0
   26.3341   -7.6232   45.8744 H   0  0  0  0  0  0  0  0  0  0  0  0
   25.4041   -6.6830   42.3909 C   0  0  0  0  0  0  0  0  0  0  0  0
   23.2068   -7.3785   41.6547 C   0  0  0  0  0  0  0  0  0  0  0  0
   24.0807   -7.1075   42.9067 C   0  0  0  0  0  0  0  0  0  0  0  0
   23.3196   -6.0536   43.6659 C   0  0  0  0  0  0  0  0  0  0  0  0
   25.4474  -10.5489   39.6913 C   0  0  0  0  0  0  0  0  0  0  0  0
   24.4696  -10.1372   38.6212 C   0  0  0  0  0  0  0  0  0  0  0  0
   24.2893  -11.1942   37.6116 C   0  0  0  0  0  0  0  0  0  0  0  0
   24.8752  -12.4425   37.8542 N   0  0  0  0  0  0  0  0  0  0  0  0
   23.6404  -10.9674   36.5830 O   0  0  0  0  0  0  0  0  0  0  0  0
   24.2864  -13.2223   38.2821 H   0  0  0  0  0  0  0  0  0  0  0  0
   25.8669  -12.7082   37.6534 H   0  0  0  0  0  0  0  0  0  0  0  0
   29.4801  -12.8949   40.4375 C   0  0  0  0  0  0  0  0  0  0  0  0
   29.2831  -14.3710   40.6931 C   0  0  0  0  0  0  0  0  0  0  0  0
   29.6290  -14.7861   42.0606 C   0  0  0  0  0  0  0  0  0  0  0  0
   29.2534  -16.0390   42.6316 N   0  0  0  0  0  0  0  0  0  0  0  0
   30.3014  -13.9984   42.7809 O   0  0  0  0  0  0  0  0  0  0  0  0
   29.1496  -16.1327   43.6680 H   0  0  0  0  0  0  0  0  0  0  0  0
   29.0703  -16.8826   42.0407 H   0  0  0  0  0  0  0  0  0  0  0  0
   33.0773  -11.4209   37.0105 C   0  0  0  0  0  0  0  0  0  0  0  0
   33.4314  -10.1148   37.7573 C   0  0  0  0  0  0  0  0  0  0  0  0
   32.4209   -9.1054   37.4148 C   0  0  0  0  0  0  0  0  0  0  0  0
   31.0456   -9.1360   37.7738 N   0  0  0  0  0  0  0  0  0  0  0  0
   32.8177   -8.0924   36.7293 O   0  0  0  0  0  0  0  0  0  0  0  0
   30.4558   -8.3210   37.4947 H   0  0  0  0  0  0  0  0  0  0  0  0
   30.6103   -9.9278   38.2824 H   0  0  0  0  0  0  0  0  0  0  0  0
 64 65  1  0  0  0
 65 66  1  0  0  0
 65 63  1  0  0  0
 63 57  1  0  0  0
 57 53  1  0  0  0
 53 54  1  0  0  0
 54 55  2  0  0  0
 54 52  1  0  0  0
 52 67  1  0  0  0
 67 68  1  0  0  0
 68 69  1  0  0  0
 69 70  1  0  0  0
 69 71  2  0  0  0
 52 48  1  0  0  0
 48 49  1  0  0  0
 49 50  2  0  0  0
 49 47  1  0  0  0
 47 74  1  0  0  0
 74 75  1  0  0  0
 75 76  1  0  0  0
 76 77  1  0  0  0
 76 78  2  0  0  0
 47 43  1  0  0  0
 43 44  1  0  0  0
 44 45  2  0  0  0
 44  1  1  0  0  0
  1 81  1  0  0  0
 81 82  1  0  0  0
 82 83  1  0  0  0
 83 84  1  0  0  0
 83 85  2  0  0  0
  1  2  1  0  0  0
  2  3  1  0  0  0
  3  4  2  0  0  0
  3  6  1  0  0  0
  6 36  1  0  0  0
 36 37  1  0  0  0
 37 38  1  0  0  0
 38 39  1  0  0  0
 38 40  2  0  0  0
  6  7  1  0  0  0
  7  8  1  0  0  0
  8  9  2  0  0  0
  8 11  1  0  0  0
 11 29  1  0  0  0
 29 30  1  0  0  0
 30 31  1  0  0  0
 31 32  1  0  0  0
 31 33  2  0  0  0
 11 12  1  0  0  0
 12 13  1  0  0  0
 13 14  2  0  0  0
 13 16  1  0  0  0
 16 22  1  0  0  0
 22 23  1  0  0  0
 23 24  1  0  0  0
 24 25  1  0  0  0
 24 26  2  0  0  0
 16 17  1  0  0  0
 17 18  1  0  0  0
 18 19  1  0  0  0
 18 20  2  0  0  0
 57 58  1  0  0  0
 58 59  1  0  0  0
 58 60  2  0  0  0
 53 56  1  0  0  0
 70 72  1  0  0  0
 70 73  1  0  0  0
 48 51  1  0  0  0
 77 79  1  0  0  0
 77 80  1  0  0  0
 43 46  1  0  0  0
 84 86  1  0  0  0
 84 87  1  0  0  0
  2  5  1  0  0  0
 39 41  1  0  0  0
 39 42  1  0  0  0
  7 10  1  0  0  0
 32 34  1  0  0  0
 32 35  1  0  0  0
 12 15  1  0  0  0
 25 27  1  0  0  0
 25 28  1  0  0  0
 17 21  1  0  0  0
 59 61  1  0  0  0
 59 62  1  0  0  0
M  END
> <minimizedAffinity>
-7.70888

> <CNNscore>
0.3857004046

> <CNNaffinity>
7.5638151169

> <CNN_VS>
2.9173665047

> <CNNaffinity_variance>
0.0473587960

$$$$
[H]N([H])C(=O)C([H])([H])C([H])([H])[C@@]([H])(C(=O)N([H])[C@]([H])(C(=O)N([H])[C@]([H])(C(=O)N([H])[C@]([H])(C(=O)N([H])[C@]([H])(C(=O)N([H])[C@]([H])(C(=O)N([H])[C@]([H])(C(=O)N([H])[H])C([H])([H])C([H])(C([H])([H])[H])C([H])([H])[H])C([H])([H])C([H])([H])C(=O)N([H])[H])C([H])([H])C([H])([H])C(=O)N([H])[H])C([H])([H])C([H])([H])C(=O)N([H])[H])C([H])([H])C([H])([H])C(=O)N([H])[H])C([H])([H])C([H])([H])C(=O)N([H])[H])N([H])C(=O)C([H])([H])[H]


 87 86  0  0  0  0  0  0  0  0999 V2000
   32.0474  -11.2890   37.5070 C   0  0  0  0  0  0  0  0  0  0  0  0
   31.0794  -11.2667   38.6254 N   0  0  0  0  0  0  0  0  0  0  0  0
   29.7008  -11.1708   38.3565 C   0  0  0  0  0  0  0  0  0  0  0  0
   29.3556  -11.0999   37.1072 O   0  0  0  0  0  0  0  0  0  0  0  0
   31.4320  -11.3243   39.5765 H   0  0  0  0  0  0  0  0  0  0  0  0
   28.6290  -11.1468   39.3790 C   0  0  0  0  0  0  0  0  0  0  0  0
   29.0745  -11.8408   40.6025 N   0  0  0  0  0  0  0  0  0  0  0  0
   28.5018  -13.0511   41.0345 C   0  0  0  0  0  0  0  0  0  0  0  0
   27.6343  -13.6304   40.4546 O   0  0  0  0  0  0  0  0  0  0  0  0
   29.8393  -11.4031   41.1323 H   0  0  0  0  0  0  0  0  0  0  0  0
   29.0839  -13.6277   42.3779 C   0  0  0  0  0  0  0  0  0  0  0  0
   28.6861  -12.7567   43.3573 N   0  0  0  0  0  0  0  0  0  0  0  0
   28.6588  -12.0516   44.6187 C   0  0  0  0  0  0  0  0  0  0  0  0
   29.3521  -12.1195   45.5550 O   0  0  0  0  0  0  0  0  0  0  0  0
   29.8781  -13.3219   44.0153 H   0  0  0  0  0  0  0  0  0  0  0  0
   27.4787  -11.0124   44.7219 C   0  0  0  0  0  0  0  0  0  0  0  0
   27.8588  -10.1439   45.8082 N   0  0  0  0  0  0  0  0  0  0  0  0
   26.8900   -9.6378   46.7365 C   0  0  0  0  0  0  0  0  0  0  0  0
   27.3745   -8.7486   47.8265 C   0  0  0  0  0  0  0  0  0  0  0  0
   25.6849   -9.9235   46.6475 O   0  0  0  0  0  0  0  0  0  0  0  0
   28.8588   -9.8374   45.9551 H   0  0  0  0  0  0  0  0  0  0  0  0
   27.4827  -10.3238   43.4183 C   0  0  0  0  0  0  0  0  0  0  0  0
   27.8696   -8.9011   43.3779 C   0  0  0  0  0  0  0  0  0  0  0  0
   26.8411   -8.0173   42.8267 C   0  0  0  0  0  0  0  0  0  0  0  0
   27.1245   -6.7505   42.2526 N   0  0  0  0  0  0  0  0  0  0  0  0
   25.6444   -8.4098   42.8670 O   0  0  0  0  0  0  0  0  0  0  0  0
   27.6825   -6.6541   41.3689 H   0  0  0  0  0  0  0  0  0  0  0  0
   26.7623   -5.9066   42.7095 H   0  0  0  0  0  0  0  0  0  0  0  0
   28.3897  -14.9570   42.5066 C   0  0  0  0  0  0  0  0  0  0  0  0
   29.0440  -16.0777   43.1589 C   0  0  0  0  0  0  0  0  0  0  0  0
   29.9454  -15.8783   44.2677 C   0  0  0  0  0  0  0  0  0  0  0  0
   29.5083  -15.3938   45.5297 N   0  0  0  0  0  0  0  0  0  0  0  0
   31.1973  -16.1306   44.1789 O   0  0  0  0  0  0  0  0  0  0  0  0
   28.6594  -15.6905   46.0257 H   0  0  0  0  0  0  0  0  0  0  0  0
   30.1378  -14.6521   45.9815 H   0  0  0  0  0  0  0  0  0  0  0  0
   28.2934   -9.7171   39.8204 C   0  0  0  0  0  0  0  0  0  0  0  0
   26.9036   -9.3662   39.2953 C   0  0  0  0  0  0  0  0  0  0  0  0
   26.0526  -10.5863   39.3919 C   0  0  0  0  0  0  0  0  0  0  0  0
   25.7766  -11.3500   38.2343 N   0  0  0  0  0  0  0  0  0  0  0  0
   25.5767  -10.9416   40.5122 O   0  0  0  0  0  0  0  0  0  0  0  0
   24.8270  -11.6027   37.8863 H   0  0  0  0  0  0  0  0  0  0  0  0
   26.6079  -11.6844   37.6756 H   0  0  0  0  0  0  0  0  0  0  0  0
   33.5072  -13.0629   36.5576 N   0  0  0  0  0  0  0  0  0  0  0  0
   32.7037  -12.6749   37.5630 C   0  0  0  0  0  0  0  0  0  0  0  0
   32.4059  -13.3410   38.5813 O   0  0  0  0  0  0  0  0  0  0  0  0
   33.5936  -12.2390   35.7566 H   0  0  0  0  0  0  0  0  0  0  0  0
   34.2859  -14.1917   36.1729 C   0  0  0  0  0  0  0  0  0  0  0  0
   34.0563  -16.5480   35.5005 N   0  0  0  0  0  0  0  0  0  0  0  0
   33.6334  -15.1944   35.3205 C   0  0  0  0  0  0  0  0  0  0  0  0
   32.7851  -14.9173   34.4859 O   0  0  0  0  0  0  0  0  0  0  0  0
   34.7568  -16.7191   36.2824 H   0  0  0  0  0  0  0  0  0  0  0  0
   33.6489  -17.6896   34.7828 C   0  0  0  0  0  0  0  0  0  0  0  0
   33.3837  -19.8500   36.0345 N   0  0  0  0  0  0  0  0  0  0  0  0
   32.8452  -18.6400   35.5935 C   0  0  0  0  0  0  0  0  0  0  0  0
   31.6696  -18.3244   35.8724 O   0  0  0  0  0  0  0  0  0  0  0  0
   34.3966  -20.0378   35.7269 H   0  0  0  0  0  0  0  0  0  0  0  0
   32.8066  -20.8907   36.8222 C   0  0  0  0  0  0  0  0  0  0  0  0
   33.7141  -21.4260   37.8378 C   0  0  0  0  0  0  0  0  0  0  0  0
   34.8329  -22.2324   37.6276 N   0  0  0  0  0  0  0  0  0  0  0  0
   33.4341  -21.1106   39.0621 O   0  0  0  0  0  0  0  0  0  0  0  0
   34.7924  -23.0946   37.0670 H   0  0  0  0  0  0  0  0  0  0  0  0
   35.7688  -21.9687   38.0583 H   0  0  0  0  0  0  0  0  0  0  0  0
   32.1570  -21.9515   35.9990 C   0  0  0  0  0  0  0  0  0  0  0  0
   30.3583  -23.4485   35.3850 C   0  0  0  0  0  0  0  0  0  0  0  0
   30.7344  -22.2484   36.2920 C   0  0  0  0  0  0  0  0  0  0  0  0
   29.7597  -21.1704   35.8993 C   0  0  0  0  0  0  0  0  0  0  0  0
   34.9089  -18.4482   34.2827 C   0  0  0  0  0  0  0  0  0  0  0  0
   36.1157  -17.8770   34.9815 C   0  0  0  0  0  0  0  0  0  0  0  0
   37.3047  -18.7265   34.7982 C   0  0  0  0  0  0  0  0  0  0  0  0
   37.2799  -19.6804   33.7735 N   0  0  0  0  0  0  0  0  0  0  0  0
   38.2858  -18.5912   35.5394 O   0  0  0  0  0  0  0  0  0  0  0  0
   37.7206  -19.4467   32.8307 H   0  0  0  0  0  0  0  0  0  0  0  0
   36.8614  -20.6374   33.8314 H   0  0  0  0  0  0  0  0  0  0  0  0
   35.0700  -14.7544   37.3245 C   0  0  0  0  0  0  0  0  0  0  0  0
   36.1539  -13.7923   37.7519 C   0  0  0  0  0  0  0  0  0  0  0  0
   37.5081  -14.2189   37.3698 C   0  0  0  0  0  0  0  0  0  0  0  0
   38.5941  -13.3194   37.1497 N   0  0  0  0  0  0  0  0  0  0  0  0
   37.7379  -15.4514   37.2291 O   0  0  0  0  0  0  0  0  0  0  0  0
   39.3778  -13.5898   36.5122 H   0  0  0  0  0  0  0  0  0  0  0  0
   38.6345  -12.3797   37.6077 H   0  0  0  0  0  0  0  0  0  0  0  0
   33.0379  -10.2073   37.7556 C   0  0  0  0  0  0  0  0  0  0  0  0
   32.4745   -8.8944   37.1660 C   0  0  0  0  0  0  0  0  0  0  0  0
   33.5587   -8.2172   36.4426 C   0  0  0  0  0  0  0  0  0  0  0  0
   33.4415   -7.0290   35.6709 N   0  0  0  0  0  0  0  0  0  0  0  0
   34.7288   -8.7451   36.5184 O   0  0  0  0  0  0  0  0  0  0  0  0
   34.3136   -6.6395   35.2492 H   0  0  0  0  0  0  0  0  0  0  0  0
   32.5379   -6.5491   35.5032 H   0  0  0  0  0  0  0  0  0  0  0  0
 64 65  1  0  0  0
 65 66  1  0  0  0
 65 63  1  0  0  0
 63 57  1  0  0  0
 57 53  1  0  0  0
 53 54  1  0  0  0
 54 55  2  0  0  0
 54 52  1  0  0  0
 52 67  1  0  0  0
 67 68  1  0  0  0
 68 69  1  0  0  0
 69 70  1  0  0  0
 69 71  2  0  0  0
 52 48  1  0  0  0
 48 49  1  0  0  0
 49 50  2  0  0  0
 49 47  1  0  0  0
 47 74  1  0  0  0
 74 75  1  0  0  0
 75 76  1  0  0  0
 76 77  1  0  0  0
 76 78  2  0  0  0
 47 43  1  0  0  0
 43 44  1  0  0  0
 44 45  2  0  0  0
 44  1  1  0  0  0
  1 81  1  0  0  0
 81 82  1  0  0  0
 82 83  1  0  0  0
 83 84  1  0  0  0
 83 85  2  0  0  0
  1  2  1  0  0  0
  2  3  1  0  0  0
  3  4  2  0  0  0
  3  6  1  0  0  0
  6 36  1  0  0  0
 36 37  1  0  0  0
 37 38  1  0  0  0
 38 39  1  0  0  0
 38 40  2  0  0  0
  6  7  1  0  0  0
  7  8  1  0  0  0
  8  9  2  0  0  0
  8 11  1  0  0  0
 11 29  1  0  0  0
 29 30  1  0  0  0
 30 31  1  0  0  0
 31 32  1  0  0  0
 31 33  2  0  0  0
 11 12  1  0  0  0
 12 13  1  0  0  0
 13 14  2  0  0  0
 13 16  1  0  0  0
 16 22  1  0  0  0
 22 23  1  0  0  0
 23 24  1  0  0  0
 24 25  1  0  0  0
 24 26  2  0  0  0
 16 17  1  0  0  0
 17 18  1  0  0  0
 18 19  1  0  0  0
 18 20  2  0  0  0
 57 58  1  0  0  0
 58 59  1  0  0  0
 58 60  2  0  0  0
 53 56  1  0  0  0
 70 72  1  0  0  0
 70 73  1  0  0  0
 48 51  1  0  0  0
 77 79  1  0  0  0
 77 80  1  0  0  0
 43 46  1  0  0  0
 84 86  1  0  0  0
 84 87  1  0  0  0
  2  5  1  0  0  0
 39 41  1  0  0  0
 39 42  1  0  0  0
  7 10  1  0  0  0
 32 34  1  0  0  0
 32 35  1  0  0  0
 12 15  1  0  0  0
 25 27  1  0  0  0
 25 28  1  0  0  0
 17 21  1  0  0  0
 59 61  1  0  0  0
 59 62  1  0  0  0
M  END
> <minimizedAffinity>
-7.03366

> <CNNscore>
0.3547773361

> <CNNaffinity>
8.0048742294

> <CNN_VS>
2.8399479389

> <CNNaffinity_variance>
0.1334687024

$$$$
[H]N([H])C(=O)C([H])([H])C([H])([H])[C@@]([H])(C(=O)N([H])[C@]([H])(C(=O)N([H])[C@]([H])(C(=O)N([H])[C@]([H])(C(=O)N([H])[C@]([H])(C(=O)N([H])[C@]([H])(C(=O)N([H])[C@]([H])(C(=O)N([H])[H])C([H])([H])C([H])(C([H])([H])[H])C([H])([H])[H])C([H])([H])C([H])([H])C(=O)N([H])[H])C([H])([H])C([H])([H])C(=O)N([H])[H])C([H])([H])C([H])([H])C(=O)N([H])[H])C([H])([H])C([H])([H])C(=O)N([H])[H])C([H])([H])C([H])([H])C(=O)N([H])[H])N([H])C(=O)C([H])([H])[H]


 87 86  0  0  0  0  0  0  0  0999 V2000
   34.7054  -13.7693   37.3151 C   0  0  0  0  0  0  0  0  0  0  0  0
   35.0279  -15.0208   36.5955 N   0  0  0  0  0  0  0  0  0  0  0  0
   36.0945  -15.8271   37.0363 C   0  0  0  0  0  0  0  0  0  0  0  0
   36.7515  -15.4062   38.0737 O   0  0  0  0  0  0  0  0  0  0  0  0
   34.4653  -15.2786   35.7897 H   0  0  0  0  0  0  0  0  0  0  0  0
   36.5165  -17.1035   36.4139 C   0  0  0  0  0  0  0  0  0  0  0  0
   35.5200  -18.1577   36.6842 N   0  0  0  0  0  0  0  0  0  0  0  0
   35.8634  -19.3863   37.2774 C   0  0  0  0  0  0  0  0  0  0  0  0
   36.9653  -19.6793   37.6300 O   0  0  0  0  0  0  0  0  0  0  0  0
   34.5461  -17.9531   36.4260 H   0  0  0  0  0  0  0  0  0  0  0  0
   34.6736  -20.4000   37.4592 C   0  0  0  0  0  0  0  0  0  0  0  0
   34.5452  -20.5811   38.8108 N   0  0  0  0  0  0  0  0  0  0  0  0
   34.0401  -21.0697   40.0738 C   0  0  0  0  0  0  0  0  0  0  0  0
   33.1789  -21.8171   40.3225 O   0  0  0  0  0  0  0  0  0  0  0  0
   33.5021  -21.5145   38.3483 H   0  0  0  0  0  0  0  0  0  0  0  0
   34.8048  -20.4771   41.3176 C   0  0  0  0  0  0  0  0  0  0  0  0
   33.7585  -20.0247   42.2004 N   0  0  0  0  0  0  0  0  0  0  0  0
   33.9373  -18.8840   43.0509 C   0  0  0  0  0  0  0  0  0  0  0  0
   32.8021  -18.4898   43.9280 C   0  0  0  0  0  0  0  0  0  0  0  0
   34.9969  -18.2367   43.0655 O   0  0  0  0  0  0  0  0  0  0  0  0
   32.8280  -20.5203   42.2645 H   0  0  0  0  0  0  0  0  0  0  0  0
   35.5532  -21.6225   41.8668 C   0  0  0  0  0  0  0  0  0  0  0  0
   36.6269  -22.2161   41.0483 C   0  0  0  0  0  0  0  0  0  0  0  0
   37.9191  -21.5401   41.1759 C   0  0  0  0  0  0  0  0  0  0  0  0
   38.4731  -21.1407   42.4201 N   0  0  0  0  0  0  0  0  0  0  0  0
   38.5672  -21.3055   40.1211 O   0  0  0  0  0  0  0  0  0  0  0  0
   38.7654  -21.8390   43.1472 H   0  0  0  0  0  0  0  0  0  0  0  0
   38.6019  -20.1405   42.6075 H   0  0  0  0  0  0  0  0  0  0  0  0
   33.4989  -19.6515   36.8889 C   0  0  0  0  0  0  0  0  0  0  0  0
   32.7774  -20.1654   35.7377 C   0  0  0  0  0  0  0  0  0  0  0  0
   33.0857  -19.7218   34.3999 C   0  0  0  0  0  0  0  0  0  0  0  0
   33.1590  -20.6145   33.2971 N   0  0  0  0  0  0  0  0  0  0  0  0
   33.3092  -18.4912   34.1272 O   0  0  0  0  0  0  0  0  0  0  0  0
   32.5016  -21.3778   33.0977 H   0  0  0  0  0  0  0  0  0  0  0  0
   33.9844  -20.4564   32.6306 H   0  0  0  0  0  0  0  0  0  0  0  0
   36.5921  -16.9959   34.8861 C   0  0  0  0  0  0  0  0  0  0  0  0
   36.7784  -18.3993   34.3146 C   0  0  0  0  0  0  0  0  0  0  0  0
   38.2285  -18.5913   34.0271 C   0  0  0  0  0  0  0  0  0  0  0  0
   38.7127  -18.4501   32.7061 N   0  0  0  0  0  0  0  0  0  0  0  0
   39.0295  -18.8797   34.9668 O   0  0  0  0  0  0  0  0  0  0  0  0
   39.2607  -19.1648   32.1811 H   0  0  0  0  0  0  0  0  0  0  0  0
   38.4912  -17.5432   32.2125 H   0  0  0  0  0  0  0  0  0  0  0  0
   32.4558  -13.5665   38.3533 N   0  0  0  0  0  0  0  0  0  0  0  0
   33.1803  -13.6267   37.2226 C   0  0  0  0  0  0  0  0  0  0  0  0
   32.7406  -13.5874   36.0502 O   0  0  0  0  0  0  0  0  0  0  0  0
   33.1348  -13.6272   39.2824 H   0  0  0  0  0  0  0  0  0  0  0  0
   31.0947  -13.4558   38.7581 C   0  0  0  0  0  0  0  0  0  0  0  0
   30.0266  -11.4017   39.5927 N   0  0  0  0  0  0  0  0  0  0  0  0
   30.4109  -12.1896   38.4635 C   0  0  0  0  0  0  0  0  0  0  0  0
   30.1575  -11.8106   37.3299 O   0  0  0  0  0  0  0  0  0  0  0  0
   30.3296  -11.7686   40.5439 H   0  0  0  0  0  0  0  0  0  0  0  0
   29.3103  -10.1888   39.6040 C   0  0  0  0  0  0  0  0  0  0  0  0
   26.9001  -10.5921   39.0276 N   0  0  0  0  0  0  0  0  0  0  0  0
   27.8843  -10.3496   39.9874 C   0  0  0  0  0  0  0  0  0  0  0  0
   27.5891  -10.2631   41.1976 O   0  0  0  0  0  0  0  0  0  0  0  0
   27.2521  -10.6307   38.0125 H   0  0  0  0  0  0  0  0  0  0  0  0
   25.4937  -10.7886   39.1693 C   0  0  0  0  0  0  0  0  0  0  0  0
   24.9512  -11.8010   38.2626 C   0  0  0  0  0  0  0  0  0  0  0  0
   25.5352  -13.0186   37.9124 N   0  0  0  0  0  0  0  0  0  0  0  0
   23.8036  -11.5213   37.7319 O   0  0  0  0  0  0  0  0  0  0  0  0
   26.5028  -13.0862   37.5685 H   0  0  0  0  0  0  0  0  0  0  0  0
   24.9761  -13.9200   37.9898 H   0  0  0  0  0  0  0  0  0  0  0  0
   24.7229   -9.5117   39.1506 C   0  0  0  0  0  0  0  0  0  0  0  0
   24.0388  -10.2602   41.3472 C   0  0  0  0  0  0  0  0  0  0  0  0
   24.2332   -9.0066   40.4555 C   0  0  0  0  0  0  0  0  0  0  0  0
   22.8730   -8.3621   40.4248 C   0  0  0  0  0  0  0  0  0  0  0  0
   29.3466   -9.5675   38.1807 C   0  0  0  0  0  0  0  0  0  0  0  0
   30.3804   -8.4712   38.1672 C   0  0  0  0  0  0  0  0  0  0  0  0
   31.5553   -8.8397   37.3593 C   0  0  0  0  0  0  0  0  0  0  0  0
   31.5909   -8.4246   36.0226 N   0  0  0  0  0  0  0  0  0  0  0  0
   32.4725   -9.5009   37.8613 O   0  0  0  0  0  0  0  0  0  0  0  0
   32.1179   -7.5335   35.7655 H   0  0  0  0  0  0  0  0  0  0  0  0
   31.1411   -8.9113   35.2131 H   0  0  0  0  0  0  0  0  0  0  0  0
   30.8750  -13.9851   40.1470 C   0  0  0  0  0  0  0  0  0  0  0  0
   29.5036  -14.6074   40.2695 C   0  0  0  0  0  0  0  0  0  0  0  0
   28.8081  -14.2655   41.5191 C   0  0  0  0  0  0  0  0  0  0  0  0
   27.9607  -15.1665   42.2310 N   0  0  0  0  0  0  0  0  0  0  0  0
   28.9652  -13.1113   42.0035 O   0  0  0  0  0  0  0  0  0  0  0  0
   27.1960  -14.7959   42.8407 H   0  0  0  0  0  0  0  0  0  0  0  0
   28.0751  -16.2040   42.1614 H   0  0  0  0  0  0  0  0  0  0  0  0
   35.3995  -12.6594   36.6085 C   0  0  0  0  0  0  0  0  0  0  0  0
   34.6812  -11.3383   36.9656 C   0  0  0  0  0  0  0  0  0  0  0  0
   35.1751  -10.2918   36.0609 C   0  0  0  0  0  0  0  0  0  0  0  0
   34.8781   -8.9036   36.1385 N   0  0  0  0  0  0  0  0  0  0  0  0
   35.9564  -10.6643   35.1100 O   0  0  0  0  0  0  0  0  0  0  0  0
   35.3407   -8.2719   35.4478 H   0  0  0  0  0  0  0  0  0  0  0  0
   34.2222   -8.5025   36.8341 H   0  0  0  0  0  0  0  0  0  0  0  0
 64 65  1  0  0  0
 65 66  1  0  0  0
 65 63  1  0  0  0
 63 57  1  0  0  0
 57 53  1  0  0  0
 53 54  1  0  0  0
 54 55  2  0  0  0
 54 52  1  0  0  0
 52 67  1  0  0  0
 67 68  1  0  0  0
 68 69  1  0  0  0
 69 70  1  0  0  0
 69 71  2  0  0  0
 52 48  1  0  0  0
 48 49  1  0  0  0
 49 50  2  0  0  0
 49 47  1  0  0  0
 47 74  1  0  0  0
 74 75  1  0  0  0
 75 76  1  0  0  0
 76 77  1  0  0  0
 76 78  2  0  0  0
 47 43  1  0  0  0
 43 44  1  0  0  0
 44 45  2  0  0  0
 44  1  1  0  0  0
  1 81  1  0  0  0
 81 82  1  0  0  0
 82 83  1  0  0  0
 83 84  1  0  0  0
 83 85  2  0  0  0
  1  2  1  0  0  0
  2  3  1  0  0  0
  3  4  2  0  0  0
  3  6  1  0  0  0
  6 36  1  0  0  0
 36 37  1  0  0  0
 37 38  1  0  0  0
 38 39  1  0  0  0
 38 40  2  0  0  0
  6  7  1  0  0  0
  7  8  1  0  0  0
  8  9  2  0  0  0
  8 11  1  0  0  0
 11 29  1  0  0  0
 29 30  1  0  0  0
 30 31  1  0  0  0
 31 32  1  0  0  0
 31 33  2  0  0  0
 11 12  1  0  0  0
 12 13  1  0  0  0
 13 14  2  0  0  0
 13 16  1  0  0  0
 16 22  1  0  0  0
 22 23  1  0  0  0
 23 24  1  0  0  0
 24 25  1  0  0  0
 24 26  2  0  0  0
 16 17  1  0  0  0
 17 18  1  0  0  0
 18 19  1  0  0  0
 18 20  2  0  0  0
 57 58  1  0  0  0
 58 59  1  0  0  0
 58 60  2  0  0  0
 53 56  1  0  0  0
 70 72  1  0  0  0
 70 73  1  0  0  0
 48 51  1  0  0  0
 77 79  1  0  0  0
 77 80  1  0  0  0
 43 46  1  0  0  0
 84 86  1  0  0  0
 84 87  1  0  0  0
  2  5  1  0  0  0
 39 41  1  0  0  0
 39 42  1  0  0  0
  7 10  1  0  0  0
 32 34  1  0  0  0
 32 35  1  0  0  0
 12 15  1  0  0  0
 25 27  1  0  0  0
 25 28  1  0  0  0
 17 21  1  0  0  0
 59 61  1  0  0  0
 59 62  1  0  0  0
M  END
> <minimizedAffinity>
-6.43768

> <CNNscore>
0.2484298497

> <CNNaffinity>
7.6761107445

> <CNN_VS>
1.9069750309

> <CNNaffinity_variance>
0.0613172539

$$$$
[H]N([H])C(=O)C([H])([H])C([H])([H])[C@@]([H])(C(=O)N([H])[C@]([H])(C(=O)N([H])[C@]([H])(C(=O)N([H])[C@]([H])(C(=O)N([H])[C@]([H])(C(=O)N([H])[C@]([H])(C(=O)N([H])[C@]([H])(C(=O)N([H])[H])C([H])([H])C([H])(C([H])([H])[H])C([H])([H])[H])C([H])([H])C([H])([H])C(=O)N([H])[H])C([H])([H])C([H])([H])C(=O)N([H])[H])C([H])([H])C([H])([H])C(=O)N([H])[H])C([H])([H])C([H])([H])C(=O)N([H])[H])C([H])([H])C([H])([H])C(=O)N([H])[H])N([H])C(=O)C([H])([H])[H]


 87 86  0  0  0  0  0  0  0  0999 V2000
   34.7969  -14.6137   36.5008 C   0  0  0  0  0  0  0  0  0  0  0  0
   33.6833  -13.7661   36.9802 N   0  0  0  0  0  0  0  0  0  0  0  0
   33.8222  -12.3651   36.9865 C   0  0  0  0  0  0  0  0  0  0  0  0
   34.9546  -11.8911   36.5643 O   0  0  0  0  0  0  0  0  0  0  0  0
   32.8293  -14.2163   37.2966 H   0  0  0  0  0  0  0  0  0  0  0  0
   32.7862  -11.4043   37.4314 C   0  0  0  0  0  0  0  0  0  0  0  0
   32.0563  -11.9426   38.5954 N   0  0  0  0  0  0  0  0  0  0  0  0
   30.6656  -12.1548   38.5817 C   0  0  0  0  0  0  0  0  0  0  0  0
   29.9614  -11.9440   37.6414 O   0  0  0  0  0  0  0  0  0  0  0  0
   32.6140  -12.1693   39.4288 H   0  0  0  0  0  0  0  0  0  0  0  0
   30.0570  -12.7051   39.9244 C   0  0  0  0  0  0  0  0  0  0  0  0
   29.0084  -11.8758   40.2225 N   0  0  0  0  0  0  0  0  0  0  0  0
   28.2849  -10.7159   40.6920 C   0  0  0  0  0  0  0  0  0  0  0  0
   28.6563   -9.7102   41.1531 O   0  0  0  0  0  0  0  0  0  0  0  0
   30.1236  -10.9959   40.6169 H   0  0  0  0  0  0  0  0  0  0  0  0
   26.7229  -10.8576   40.5411 C   0  0  0  0  0  0  0  0  0  0  0  0
   26.2057   -9.5706   40.9350 N   0  0  0  0  0  0  0  0  0  0  0  0
   25.0119   -9.4517   41.7206 C   0  0  0  0  0  0  0  0  0  0  0  0
   24.5537   -8.0827   42.0805 C   0  0  0  0  0  0  0  0  0  0  0  0
   24.3721  -10.4475   42.0958 O   0  0  0  0  0  0  0  0  0  0  0  0
   26.6763   -8.6685   40.6515 H   0  0  0  0  0  0  0  0  0  0  0  0
   26.5174  -11.1358   39.1079 C   0  0  0  0  0  0  0  0  0  0  0  0
   25.3151  -11.8889   38.7050 C   0  0  0  0  0  0  0  0  0  0  0  0
   24.3271  -11.0922   37.9755 C   0  0  0  0  0  0  0  0  0  0  0  0
   23.7737   -9.8844   38.4750 N   0  0  0  0  0  0  0  0  0  0  0  0
   23.9550  -11.5071   36.8454 O   0  0  0  0  0  0  0  0  0  0  0  0
   24.3586   -9.0255   38.6231 H   0  0  0  0  0  0  0  0  0  0  0  0
   22.7704   -9.8483   38.6854 H   0  0  0  0  0  0  0  0  0  0  0  0
   29.5809  -14.0812   39.5433 C   0  0  0  0  0  0  0  0  0  0  0  0
   28.3050  -14.5853   40.0203 C   0  0  0  0  0  0  0  0  0  0  0  0
   28.1742  -15.1771   41.3296 C   0  0  0  0  0  0  0  0  0  0  0  0
   29.2980  -15.5251   42.1262 N   0  0  0  0  0  0  0  0  0  0  0  0
   27.0319  -15.4214   41.8533 O   0  0  0  0  0  0  0  0  0  0  0  0
   30.1400  -14.9524   42.2595 H   0  0  0  0  0  0  0  0  0  0  0  0
   29.2364  -16.4756   42.6194 H   0  0  0  0  0  0  0  0  0  0  0  0
   33.4007  -10.0837   37.9107 C   0  0  0  0  0  0  0  0  0  0  0  0
   32.7596   -8.9426   37.1249 C   0  0  0  0  0  0  0  0  0  0  0  0
   33.8225   -8.2921   36.3066 C   0  0  0  0  0  0  0  0  0  0  0  0
   34.9911   -9.0108   35.9641 N   0  0  0  0  0  0  0  0  0  0  0  0
   33.6791   -7.0944   35.9154 O   0  0  0  0  0  0  0  0  0  0  0  0
   35.9692   -8.7047   36.1545 H   0  0  0  0  0  0  0  0  0  0  0  0
   34.8540   -9.9391   35.4798 H   0  0  0  0  0  0  0  0  0  0  0  0
   34.6479  -16.9855   35.7714 N   0  0  0  0  0  0  0  0  0  0  0  0
   34.1344  -15.7451   35.7032 C   0  0  0  0  0  0  0  0  0  0  0  0
   33.1415  -15.3830   35.0307 O   0  0  0  0  0  0  0  0  0  0  0  0
   35.5634  -17.0155   36.4705 H   0  0  0  0  0  0  0  0  0  0  0  0
   34.4087  -18.2832   35.2353 C   0  0  0  0  0  0  0  0  0  0  0  0
   35.1649  -20.4695   36.0751 N   0  0  0  0  0  0  0  0  0  0  0  0
   34.2440  -19.3828   36.1953 C   0  0  0  0  0  0  0  0  0  0  0  0
   33.3706  -19.4038   37.0496 O   0  0  0  0  0  0  0  0  0  0  0  0
   35.9305  -20.3552   35.3456 H   0  0  0  0  0  0  0  0  0  0  0  0
   35.1974  -21.6681   36.8142 C   0  0  0  0  0  0  0  0  0  0  0  0
   32.9796  -22.2340   35.7821 N   0  0  0  0  0  0  0  0  0  0  0  0
   33.9015  -22.3940   36.8180 C   0  0  0  0  0  0  0  0  0  0  0  0
   33.6591  -23.1561   37.7770 O   0  0  0  0  0  0  0  0  0  0  0  0
   33.2730  -21.5425   35.0128 H   0  0  0  0  0  0  0  0  0  0  0  0
   31.6998  -22.8315   35.5777 C   0  0  0  0  0  0  0  0  0  0  0  0
   31.7605  -24.1195   34.8857 C   0  0  0  0  0  0  0  0  0  0  0  0
   31.6317  -24.3470   33.5154 N   0  0  0  0  0  0  0  0  0  0  0  0
   31.9526  -25.1535   35.6412 O   0  0  0  0  0  0  0  0  0  0  0  0
   30.8421  -23.9779   32.9680 H   0  0  0  0  0  0  0  0  0  0  0  0
   32.3604  -24.9252   32.9999 H   0  0  0  0  0  0  0  0  0  0  0  0
   30.7074  -21.8915   34.9807 C   0  0  0  0  0  0  0  0  0  0  0  0
   28.9169  -20.8709   36.2479 C   0  0  0  0  0  0  0  0  0  0  0  0
   30.3782  -20.6784   35.7665 C   0  0  0  0  0  0  0  0  0  0  0  0
   30.3408  -19.3950   34.9804 C   0  0  0  0  0  0  0  0  0  0  0  0
   35.5570  -21.3420   38.2899 C   0  0  0  0  0  0  0  0  0  0  0  0
   36.9846  -21.7582   38.5340 C   0  0  0  0  0  0  0  0  0  0  0  0
   37.9172  -21.0629   37.6307 C   0  0  0  0  0  0  0  0  0  0  0  0
   38.7448  -21.8420   36.8131 N   0  0  0  0  0  0  0  0  0  0  0  0
   37.9584  -19.8267   37.6109 O   0  0  0  0  0  0  0  0  0  0  0  0
   38.4507  -22.0382   35.8067 H   0  0  0  0  0  0  0  0  0  0  0  0
   39.6584  -22.2702   37.0893 H   0  0  0  0  0  0  0  0  0  0  0  0
   35.3111  -18.5880   34.0732 C   0  0  0  0  0  0  0  0  0  0  0  0
   36.6758  -17.9743   34.2829 C   0  0  0  0  0  0  0  0  0  0  0  0
   37.7850  -18.8346   33.8453 C   0  0  0  0  0  0  0  0  0  0  0  0
   38.7733  -18.4382   32.8950 N   0  0  0  0  0  0  0  0  0  0  0  0
   37.8826  -19.9931   34.3350 O   0  0  0  0  0  0  0  0  0  0  0  0
   39.2683  -19.1593   32.3216 H   0  0  0  0  0  0  0  0  0  0  0  0
   39.0232  -17.4335   32.7444 H   0  0  0  0  0  0  0  0  0  0  0  0
   35.5053  -15.1360   37.7001 C   0  0  0  0  0  0  0  0  0  0  0  0
   37.0052  -15.2709   37.3518 C   0  0  0  0  0  0  0  0  0  0  0  0
   37.6293  -13.9500   37.5044 C   0  0  0  0  0  0  0  0  0  0  0  0
   37.5723  -12.8795   36.5705 N   0  0  0  0  0  0  0  0  0  0  0  0
   38.2860  -13.7373   38.5893 O   0  0  0  0  0  0  0  0  0  0  0  0
   38.0302  -11.9804   36.8387 H   0  0  0  0  0  0  0  0  0  0  0  0
   37.1123  -12.9592   35.6447 H   0  0  0  0  0  0  0  0  0  0  0  0
 64 65  1  0  0  0
 65 66  1  0  0  0
 65 63  1  0  0  0
 63 57  1  0  0  0
 57 53  1  0  0  0
 53 54  1  0  0  0
 54 55  2  0  0  0
 54 52  1  0  0  0
 52 67  1  0  0  0
 67 68  1  0  0  0
 68 69  1  0  0  0
 69 70  1  0  0  0
 69 71  2  0  0  0
 52 48  1  0  0  0
 48 49  1  0  0  0
 49 50  2  0  0  0
 49 47  1  0  0  0
 47 74  1  0  0  0
 74 75  1  0  0  0
 75 76  1  0  0  0
 76 77  1  0  0  0
 76 78  2  0  0  0
 47 43  1  0  0  0
 43 44  1  0  0  0
 44 45  2  0  0  0
 44  1  1  0  0  0
  1 81  1  0  0  0
 81 82  1  0  0  0
 82 83  1  0  0  0
 83 84  1  0  0  0
 83 85  2  0  0  0
  1  2  1  0  0  0
  2  3  1  0  0  0
  3  4  2  0  0  0
  3  6  1  0  0  0
  6 36  1  0  0  0
 36 37  1  0  0  0
 37 38  1  0  0  0
 38 39  1  0  0  0
 38 40  2  0  0  0
  6  7  1  0  0  0
  7  8  1  0  0  0
  8  9  2  0  0  0
  8 11  1  0  0  0
 11 29  1  0  0  0
 29 30  1  0  0  0
 30 31  1  0  0  0
 31 32  1  0  0  0
 31 33  2  0  0  0
 11 12  1  0  0  0
 12 13  1  0  0  0
 13 14  2  0  0  0
 13 16  1  0  0  0
 16 22  1  0  0  0
 22 23  1  0  0  0
 23 24  1  0  0  0
 24 25  1  0  0  0
 24 26  2  0  0  0
 16 17  1  0  0  0
 17 18  1  0  0  0
 18 19  1  0  0  0
 18 20  2  0  0  0
 57 58  1  0  0  0
 58 59  1  0  0  0
 58 60  2  0  0  0
 53 56  1  0  0  0
 70 72  1  0  0  0
 70 73  1  0  0  0
 48 51  1  0  0  0
 77 79  1  0  0  0
 77 80  1  0  0  0
 43 46  1  0  0  0
 84 86  1  0  0  0
 84 87  1  0  0  0
  2  5  1  0  0  0
 39 41  1  0  0  0
 39 42  1  0  0  0
  7 10  1  0  0  0
 32 34  1  0  0  0
 32 35  1  0  0  0
 12 15  1  0  0  0
 25 27  1  0  0  0
 25 28  1  0  0  0
 17 21  1  0  0  0
 59 61  1  0  0  0
 59 62  1  0  0  0
M  END
> <minimizedAffinity>
-7.03751

> <CNNscore>
0.2252737880

> <CNNaffinity>
7.9144492149

> <CNN_VS>
1.7829179764

> <CNNaffinity_variance>
0.1963813603

$$$$
[H]N([H])C(=O)C([H])([H])C([H])([H])[C@@]([H])(C(=O)N([H])[C@]([H])(C(=O)N([H])[C@]([H])(C(=O)N([H])[C@]([H])(C(=O)N([H])[C@]([H])(C(=O)N([H])[C@]([H])(C(=O)N([H])[C@]([H])(C(=O)N([H])[H])C([H])([H])C([H])(C([H])([H])[H])C([H])([H])[H])C([H])([H])C([H])([H])C(=O)N([H])[H])C([H])([H])C([H])([H])C(=O)N([H])[H])C([H])([H])C([H])([H])C(=O)N([H])[H])C([H])([H])C([H])([H])C(=O)N([H])[H])C([H])([H])C([H])([H])C(=O)N([H])[H])N([H])C(=O)C([H])([H])[H]


 87 86  0  0  0  0  0  0  0  0999 V2000
   33.1973  -12.7669   37.6528 C   0  0  0  0  0  0  0  0  0  0  0  0
   33.3315  -13.8907   36.7003 N   0  0  0  0  0  0  0  0  0  0  0  0
   34.4659  -14.7228   36.7544 C   0  0  0  0  0  0  0  0  0  0  0  0
   35.3521  -14.4396   37.6596 O   0  0  0  0  0  0  0  0  0  0  0  0
   32.5929  -14.0437   36.0197 H   0  0  0  0  0  0  0  0  0  0  0  0
   34.7196  -15.8826   35.8684 C   0  0  0  0  0  0  0  0  0  0  0  0
   35.7003  -16.7942   36.4884 N   0  0  0  0  0  0  0  0  0  0  0  0
   36.7016  -17.4446   35.7442 C   0  0  0  0  0  0  0  0  0  0  0  0
   36.8631  -17.3085   34.5696 O   0  0  0  0  0  0  0  0  0  0  0  0
   35.6286  -16.9317   37.5048 H   0  0  0  0  0  0  0  0  0  0  0  0
   37.6367  -18.4032   36.5705 C   0  0  0  0  0  0  0  0  0  0  0  0
   36.8016  -19.1294   37.3775 N   0  0  0  0  0  0  0  0  0  0  0  0
   35.5835  -19.6822   37.9249 C   0  0  0  0  0  0  0  0  0  0  0  0
   34.4675  -19.5510   37.6095 O   0  0  0  0  0  0  0  0  0  0  0  0
   35.8028  -18.5684   36.4498 H   0  0  0  0  0  0  0  0  0  0  0  0
   35.8329  -20.6267   39.1613 C   0  0  0  0  0  0  0  0  0  0  0  0
   34.8414  -21.6648   39.0262 N   0  0  0  0  0  0  0  0  0  0  0  0
   33.7064  -21.7345   39.8999 C   0  0  0  0  0  0  0  0  0  0  0  0
   32.7345  -22.8403   39.6849 C   0  0  0  0  0  0  0  0  0  0  0  0
   33.5265  -20.9076   40.8085 O   0  0  0  0  0  0  0  0  0  0  0  0
   34.9179  -22.4183   38.2902 H   0  0  0  0  0  0  0  0  0  0  0  0
   37.2063  -21.1269   38.9684 C   0  0  0  0  0  0  0  0  0  0  0  0
   37.9965  -21.4843   40.1614 C   0  0  0  0  0  0  0  0  0  0  0  0
   39.4393  -21.2963   40.0012 C   0  0  0  0  0  0  0  0  0  0  0  0
   40.3911  -21.6755   40.9835 N   0  0  0  0  0  0  0  0  0  0  0  0
   39.8492  -20.7707   38.9319 O   0  0  0  0  0  0  0  0  0  0  0  0
   40.5498  -22.6798   41.2439 H   0  0  0  0  0  0  0  0  0  0  0  0
   40.9476  -20.9462   41.4425 H   0  0  0  0  0  0  0  0  0  0  0  0
   38.2644  -19.2651   35.5080 C   0  0  0  0  0  0  0  0  0  0  0  0
   39.6312  -19.0339   35.0743 C   0  0  0  0  0  0  0  0  0  0  0  0
   39.9421  -18.7458   33.6953 C   0  0  0  0  0  0  0  0  0  0  0  0
   38.9369  -18.5269   32.7153 N   0  0  0  0  0  0  0  0  0  0  0  0
   41.1481  -18.6675   33.2732 O   0  0  0  0  0  0  0  0  0  0  0  0
   38.0886  -17.9619   32.8410 H   0  0  0  0  0  0  0  0  0  0  0  0
   39.1025  -19.0069   31.7705 H   0  0  0  0  0  0  0  0  0  0  0  0
   33.4565  -16.7258   35.6563 C   0  0  0  0  0  0  0  0  0  0  0  0
   33.5073  -17.3218   34.2517 C   0  0  0  0  0  0  0  0  0  0  0  0
   33.5347  -18.8066   34.3815 C   0  0  0  0  0  0  0  0  0  0  0  0
   32.5688  -19.4652   35.1770 N   0  0  0  0  0  0  0  0  0  0  0  0
   34.4228  -19.4806   33.7776 O   0  0  0  0  0  0  0  0  0  0  0  0
   32.7736  -20.1223   35.9600 H   0  0  0  0  0  0  0  0  0  0  0  0
   31.5554  -19.2651   34.9580 H   0  0  0  0  0  0  0  0  0  0  0  0
   31.0906  -12.4976   38.9446 N   0  0  0  0  0  0  0  0  0  0  0  0
   31.6914  -12.4854   37.7422 C   0  0  0  0  0  0  0  0  0  0  0  0
   31.1448  -12.2709   36.6356 O   0  0  0  0  0  0  0  0  0  0  0  0
   31.8483  -12.7249   39.7825 H   0  0  0  0  0  0  0  0  0  0  0  0
   29.7929  -12.3202   39.5042 C   0  0  0  0  0  0  0  0  0  0  0  0
   27.7540  -10.9534   39.6813 N   0  0  0  0  0  0  0  0  0  0  0  0
   29.0545  -11.1131   39.1099 C   0  0  0  0  0  0  0  0  0  0  0  0
   29.4932  -10.2821   38.3290 O   0  0  0  0  0  0  0  0  0  0  0  0
   27.4628  -11.6874   40.3939 H   0  0  0  0  0  0  0  0  0  0  0  0
   26.8134   -9.9347   39.4325 C   0  0  0  0  0  0  0  0  0  0  0  0
   26.4649   -8.6309   41.5498 N   0  0  0  0  0  0  0  0  0  0  0  0
   27.0175   -8.7260   40.2714 C   0  0  0  0  0  0  0  0  0  0  0  0
   27.7015   -7.7937   39.8001 O   0  0  0  0  0  0  0  0  0  0  0  0
   25.8776   -9.4773   41.8573 H   0  0  0  0  0  0  0  0  0  0  0  0
   26.5416   -7.5861   42.5190 C   0  0  0  0  0  0  0  0  0  0  0  0
   27.0148   -8.0376   43.8280 C   0  0  0  0  0  0  0  0  0  0  0  0
   28.0085   -8.9824   44.0853 N   0  0  0  0  0  0  0  0  0  0  0  0
   26.4366   -7.4940   44.8513 O   0  0  0  0  0  0  0  0  0  0  0  0
   28.0044   -9.9168   43.6540 H   0  0  0  0  0  0  0  0  0  0  0  0
   28.8038   -8.7516   44.7525 H   0  0  0  0  0  0  0  0  0  0  0  0
   25.2950   -6.7707   42.5956 C   0  0  0  0  0  0  0  0  0  0  0  0
   22.9926   -6.2841   42.0336 C   0  0  0  0  0  0  0  0  0  0  0  0
   24.0416   -7.4207   42.1436 C   0  0  0  0  0  0  0  0  0  0  0  0
   23.4328   -8.3904   43.1211 C   0  0  0  0  0  0  0  0  0  0  0  0
   25.3892  -10.4783   39.7311 C   0  0  0  0  0  0  0  0  0  0  0  0
   24.4287   -9.8583   38.7494 C   0  0  0  0  0  0  0  0  0  0  0  0
   24.0917  -10.7861   37.6564 C   0  0  0  0  0  0  0  0  0  0  0  0
   24.6636  -12.0639   37.6784 N   0  0  0  0  0  0  0  0  0  0  0  0
   23.3279  -10.4291   36.7511 O   0  0  0  0  0  0  0  0  0  0  0  0
   24.1081  -12.8786   38.0852 H   0  0  0  0  0  0  0  0  0  0  0  0
   25.6140  -12.3207   37.3245 H   0  0  0  0  0  0  0  0  0  0  0  0
   29.7670  -12.6252   40.9752 C   0  0  0  0  0  0  0  0  0  0  0  0
   29.2734  -14.0323   41.2191 C   0  0  0  0  0  0  0  0  0  0  0  0
   27.8552  -14.1042   41.6006 C   0  0  0  0  0  0  0  0  0  0  0  0
   26.9613  -15.1236   41.1550 N   0  0  0  0  0  0  0  0  0  0  0  0
   27.3896  -13.2202   42.3708 O   0  0  0  0  0  0  0  0  0  0  0  0
   25.9347  -14.9323   41.0977 H   0  0  0  0  0  0  0  0  0  0  0  0
   27.3013  -16.0722   40.8741 H   0  0  0  0  0  0  0  0  0  0  0  0
   33.9342  -11.6087   37.0796 C   0  0  0  0  0  0  0  0  0  0  0  0
   33.6124  -10.3626   37.9356 C   0  0  0  0  0  0  0  0  0  0  0  0
   33.5957   -9.1920   37.0485 C   0  0  0  0  0  0  0  0  0  0  0  0
   34.6274   -8.8009   36.1520 N   0  0  0  0  0  0  0  0  0  0  0  0
   32.5448   -8.4517   37.0801 O   0  0  0  0  0  0  0  0  0  0  0  0
   34.4529   -7.9655   35.5505 H   0  0  0  0  0  0  0  0  0  0  0  0
   35.5353   -9.2968   36.0819 H   0  0  0  0  0  0  0  0  0  0  0  0
 64 65  1  0  0  0
 65 66  1  0  0  0
 65 63  1  0  0  0
 63 57  1  0  0  0
 57 53  1  0  0  0
 53 54  1  0  0  0
 54 55  2  0  0  0
 54 52  1  0  0  0
 52 67  1  0  0  0
 67 68  1  0  0  0
 68 69  1  0  0  0
 69 70  1  0  0  0
 69 71  2  0  0  0
 52 48  1  0  0  0
 48 49  1  0  0  0
 49 50  2  0  0  0
 49 47  1  0  0  0
 47 74  1  0  0  0
 74 75  1  0  0  0
 75 76  1  0  0  0
 76 77  1  0  0  0
 76 78  2  0  0  0
 47 43  1  0  0  0
 43 44  1  0  0  0
 44 45  2  0  0  0
 44  1  1  0  0  0
  1 81  1  0  0  0
 81 82  1  0  0  0
 82 83  1  0  0  0
 83 84  1  0  0  0
 83 85  2  0  0  0
  1  2  1  0  0  0
  2  3  1  0  0  0
  3  4  2  0  0  0
  3  6  1  0  0  0
  6 36  1  0  0  0
 36 37  1  0  0  0
 37 38  1  0  0  0
 38 39  1  0  0  0
 38 40  2  0  0  0
  6  7  1  0  0  0
  7  8  1  0  0  0
  8  9  2  0  0  0
  8 11  1  0  0  0
 11 29  1  0  0  0
 29 30  1  0  0  0
 30 31  1  0  0  0
 31 32  1  0  0  0
 31 33  2  0  0  0
 11 12  1  0  0  0
 12 13  1  0  0  0
 13 14  2  0  0  0
 13 16  1  0  0  0
 16 22  1  0  0  0
 22 23  1  0  0  0
 23 24  1  0  0  0
 24 25  1  0  0  0
 24 26  2  0  0  0
 16 17  1  0  0  0
 17 18  1  0  0  0
 18 19  1  0  0  0
 18 20  2  0  0  0
 57 58  1  0  0  0
 58 59  1  0  0  0
 58 60  2  0  0  0
 53 56  1  0  0  0
 70 72  1  0  0  0
 70 73  1  0  0  0
 48 51  1  0  0  0
 77 79  1  0  0  0
 77 80  1  0  0  0
 43 46  1  0  0  0
 84 86  1  0  0  0
 84 87  1  0  0  0
  2  5  1  0  0  0
 39 41  1  0  0  0
 39 42  1  0  0  0
  7 10  1  0  0  0
 32 34  1  0  0  0
 32 35  1  0  0  0
 12 15  1  0  0  0
 25 27  1  0  0  0
 25 28  1  0  0  0
 17 21  1  0  0  0
 59 61  1  0  0  0
 59 62  1  0  0  0
M  END
> <minimizedAffinity>
-7.64532

> <CNNscore>
0.2089145631

> <CNNaffinity>
7.4050469398

> <CNN_VS>
1.5470221043

> <CNNaffinity_variance>
0.1405123770

$$$$
[H]N([H])C(=O)C([H])([H])C([H])([H])[C@@]([H])(C(=O)N([H])[C@]([H])(C(=O)N([H])[C@]([H])(C(=O)N([H])[C@]([H])(C(=O)N([H])[C@]([H])(C(=O)N([H])[C@]([H])(C(=O)N([H])[C@]([H])(C(=O)N([H])[H])C([H])([H])C([H])(C([H])([H])[H])C([H])([H])[H])C([H])([H])C([H])([H])C(=O)N([H])[H])C([H])([H])C([H])([H])C(=O)N([H])[H])C([H])([H])C([H])([H])C(=O)N([H])[H])C([H])([H])C([H])([H])C(=O)N([H])[H])C([H])([H])C([H])([H])C(=O)N([H])[H])N([H])C(=O)C([H])([H])[H]


 87 86  0  0  0  0  0  0  0  0999 V2000
   34.7823  -14.4966   36.5848 C   0  0  0  0  0  0  0  0  0  0  0  0
   33.6603  -13.6131   36.9704 N   0  0  0  0  0  0  0  0  0  0  0  0
   33.8154  -12.2153   36.9053 C   0  0  0  0  0  0  0  0  0  0  0  0
   34.9694  -11.7763   36.5049 O   0  0  0  0  0  0  0  0  0  0  0  0
   32.7888  -14.0369   37.2755 H   0  0  0  0  0  0  0  0  0  0  0  0
   32.7734  -11.2215   37.2535 C   0  0  0  0  0  0  0  0  0  0  0  0
   31.9002  -11.7490   38.3196 N   0  0  0  0  0  0  0  0  0  0  0  0
   30.4985  -11.7769   38.2019 C   0  0  0  0  0  0  0  0  0  0  0  0
   29.8957  -11.4040   37.2416 O   0  0  0  0  0  0  0  0  0  0  0  0
   32.3637  -12.1102   39.1632 H   0  0  0  0  0  0  0  0  0  0  0  0
   29.7308  -12.3458   39.4521 C   0  0  0  0  0  0  0  0  0  0  0  0
   28.4007  -12.1499   39.1902 N   0  0  0  0  0  0  0  0  0  0  0  0
   27.0289  -12.4380   38.8376 C   0  0  0  0  0  0  0  0  0  0  0  0
   26.4970  -13.4408   38.5666 O   0  0  0  0  0  0  0  0  0  0  0  0
   28.4584  -13.6143   39.0316 H   0  0  0  0  0  0  0  0  0  0  0  0
   26.1102  -11.1579   38.8274 C   0  0  0  0  0  0  0  0  0  0  0  0
   25.0261  -11.4866   39.7193 N   0  0  0  0  0  0  0  0  0  0  0  0
   23.6719  -11.5667   39.2544 C   0  0  0  0  0  0  0  0  0  0  0  0
   22.6188  -11.9132   40.2467 C   0  0  0  0  0  0  0  0  0  0  0  0
   23.3726  -11.3576   38.0676 O   0  0  0  0  0  0  0  0  0  0  0  0
   25.1839  -11.6683   40.7477 H   0  0  0  0  0  0  0  0  0  0  0  0
   26.9722  -10.0847   39.3554 C   0  0  0  0  0  0  0  0  0  0  0  0
   26.4395   -9.2190   40.4240 C   0  0  0  0  0  0  0  0  0  0  0  0
   27.3682   -8.9989   41.5339 C   0  0  0  0  0  0  0  0  0  0  0  0
   27.3585   -7.8319   42.3418 N   0  0  0  0  0  0  0  0  0  0  0  0
   28.2165   -9.8979   41.7786 O   0  0  0  0  0  0  0  0  0  0  0  0
   26.5507   -7.5986   42.9700 H   0  0  0  0  0  0  0  0  0  0  0  0
   28.1707   -7.2059   42.3187 H   0  0  0  0  0  0  0  0  0  0  0  0
   30.0871  -13.8081   39.4336 C   0  0  0  0  0  0  0  0  0  0  0  0
   29.7261  -14.6756   40.5412 C   0  0  0  0  0  0  0  0  0  0  0  0
   28.5812  -15.5503   40.4668 C   0  0  0  0  0  0  0  0  0  0  0  0
   27.9249  -15.8469   39.2420 N   0  0  0  0  0  0  0  0  0  0  0  0
   28.0896  -16.1151   41.5050 O   0  0  0  0  0  0  0  0  0  0  0  0
   28.3865  -16.0613   38.3500 H   0  0  0  0  0  0  0  0  0  0  0  0
   26.8530  -15.8375   39.2798 H   0  0  0  0  0  0  0  0  0  0  0  0
   33.3807   -9.9340   37.8238 C   0  0  0  0  0  0  0  0  0  0  0  0
   32.7670   -8.7462   37.0867 C   0  0  0  0  0  0  0  0  0  0  0  0
   33.8282   -8.1311   36.2395 C   0  0  0  0  0  0  0  0  0  0  0  0
   35.0036   -8.8576   35.9391 N   0  0  0  0  0  0  0  0  0  0  0  0
   33.6774   -6.9566   35.7858 O   0  0  0  0  0  0  0  0  0  0  0  0
   35.9786   -8.5345   36.1169 H   0  0  0  0  0  0  0  0  0  0  0  0
   34.8754   -9.8109   35.5035 H   0  0  0  0  0  0  0  0  0  0  0  0
   34.6421  -16.8802   35.8933 N   0  0  0  0  0  0  0  0  0  0  0  0
   34.1457  -15.6363   35.7782 C   0  0  0  0  0  0  0  0  0  0  0  0
   33.1891  -15.2774   35.0534 O   0  0  0  0  0  0  0  0  0  0  0  0
   35.5238  -16.9060   36.6348 H   0  0  0  0  0  0  0  0  0  0  0  0
   34.4144  -18.1855   35.3707 C   0  0  0  0  0  0  0  0  0  0  0  0
   34.6810  -20.0323   36.9754 N   0  0  0  0  0  0  0  0  0  0  0  0
   33.7901  -19.1655   36.2694 C   0  0  0  0  0  0  0  0  0  0  0  0
   32.5814  -19.2687   36.4157 O   0  0  0  0  0  0  0  0  0  0  0  0
   35.7195  -19.8466   36.8398 H   0  0  0  0  0  0  0  0  0  0  0  0
   34.3569  -21.0930   37.8438 C   0  0  0  0  0  0  0  0  0  0  0  0
   34.1077  -21.6321   40.2834 N   0  0  0  0  0  0  0  0  0  0  0  0
   34.4990  -20.7435   39.2804 C   0  0  0  0  0  0  0  0  0  0  0  0
   34.9820  -19.6284   39.5675 O   0  0  0  0  0  0  0  0  0  0  0  0
   33.6869  -22.5578   39.9342 H   0  0  0  0  0  0  0  0  0  0  0  0
   34.1642  -21.5116   41.7043 C   0  0  0  0  0  0  0  0  0  0  0  0
   33.8608  -20.1644   42.1885 C   0  0  0  0  0  0  0  0  0  0  0  0
   34.7733  -19.1677   42.5348 N   0  0  0  0  0  0  0  0  0  0  0  0
   32.6027  -19.8810   42.3064 O   0  0  0  0  0  0  0  0  0  0  0  0
   35.5496  -19.3355   43.1894 H   0  0  0  0  0  0  0  0  0  0  0  0
   34.6779  -18.1912   42.1244 H   0  0  0  0  0  0  0  0  0  0  0  0
   35.4160  -22.0757   42.2868 C   0  0  0  0  0  0  0  0  0  0  0  0
   37.1596  -23.3027   41.1431 C   0  0  0  0  0  0  0  0  0  0  0  0
   36.6630  -21.8802   41.5095 C   0  0  0  0  0  0  0  0  0  0  0  0
   37.8093  -21.2762   42.2762 C   0  0  0  0  0  0  0  0  0  0  0  0
   35.3051  -22.2893   37.5557 C   0  0  0  0  0  0  0  0  0  0  0  0
   36.7267  -21.8217   37.7325 C   0  0  0  0  0  0  0  0  0  0  0  0
   37.6210  -22.3990   36.7146 C   0  0  0  0  0  0  0  0  0  0  0  0
   37.3219  -23.6758   36.2241 N   0  0  0  0  0  0  0  0  0  0  0  0
   38.6055  -21.7628   36.3192 O   0  0  0  0  0  0  0  0  0  0  0  0
   36.7784  -23.7713   35.3112 H   0  0  0  0  0  0  0  0  0  0  0  0
   37.5836  -24.5851   36.6702 H   0  0  0  0  0  0  0  0  0  0  0  0
   35.5976  -18.6982   34.5996 C   0  0  0  0  0  0  0  0  0  0  0  0
   36.8163  -17.8449   34.8638 C   0  0  0  0  0  0  0  0  0  0  0  0
   37.7406  -18.4226   35.8506 C   0  0  0  0  0  0  0  0  0  0  0  0
   39.0849  -18.8010   35.5565 N   0  0  0  0  0  0  0  0  0  0  0  0
   37.3346  -18.5951   37.0324 O   0  0  0  0  0  0  0  0  0  0  0  0
   39.5545  -19.5472   36.1191 H   0  0  0  0  0  0  0  0  0  0  0  0
   39.6275  -18.3544   34.7815 H   0  0  0  0  0  0  0  0  0  0  0  0
   35.4033  -14.9990   37.8397 C   0  0  0  0  0  0  0  0  0  0  0  0
   36.9096  -15.2222   37.5751 C   0  0  0  0  0  0  0  0  0  0  0  0
   37.5656  -13.9085   37.5374 C   0  0  0  0  0  0  0  0  0  0  0  0
   37.4983  -12.9646   36.4764 N   0  0  0  0  0  0  0  0  0  0  0  0
   38.2635  -13.5757   38.5648 O   0  0  0  0  0  0  0  0  0  0  0  0
   37.9835  -12.0502   36.6125 H   0  0  0  0  0  0  0  0  0  0  0  0
   37.0052  -13.1501   35.5834 H   0  0  0  0  0  0  0  0  0  0  0  0
 64 65  1  0  0  0
 65 66  1  0  0  0
 65 63  1  0  0  0
 63 57  1  0  0  0
 57 53  1  0  0  0
 53 54  1  0  0  0
 54 55  2  0  0  0
 54 52  1  0  0  0
 52 67  1  0  0  0
 67 68  1  0  0  0
 68 69  1  0  0  0
 69 70  1  0  0  0
 69 71  2  0  0  0
 52 48  1  0  0  0
 48 49  1  0  0  0
 49 50  2  0  0  0
 49 47  1  0  0  0
 47 74  1  0  0  0
 74 75  1  0  0  0
 75 76  1  0  0  0
 76 77  1  0  0  0
 76 78  2  0  0  0
 47 43  1  0  0  0
 43 44  1  0  0  0
 44 45  2  0  0  0
 44  1  1  0  0  0
  1 81  1  0  0  0
 81 82  1  0  0  0
 82 83  1  0  0  0
 83 84  1  0  0  0
 83 85  2  0  0  0
  1  2  1  0  0  0
  2  3  1  0  0  0
  3  4  2  0  0  0
  3  6  1  0  0  0
  6 36  1  0  0  0
 36 37  1  0  0  0
 37 38  1  0  0  0
 38 39  1  0  0  0
 38 40  2  0  0  0
  6  7  1  0  0  0
  7  8  1  0  0  0
  8  9  2  0  0  0
  8 11  1  0  0  0
 11 29  1  0  0  0
 29 30  1  0  0  0
 30 31  1  0  0  0
 31 32  1  0  0  0
 31 33  2  0  0  0
 11 12  1  0  0  0
 12 13  1  0  0  0
 13 14  2  0  0  0
 13 16  1  0  0  0
 16 22  1  0  0  0
 22 23  1  0  0  0
 23 24  1  0  0  0
 24 25  1  0  0  0
 24 26  2  0  0  0
 16 17  1  0  0  0
 17 18  1  0  0  0
 18 19  1  0  0  0
 18 20  2  0  0  0
 57 58  1  0  0  0
 58 59  1  0  0  0
 58 60  2  0  0  0
 53 56  1  0  0  0
 70 72  1  0  0  0
 70 73  1  0  0  0
 48 51  1  0  0  0
 77 79  1  0  0  0
 77 80  1  0  0  0
 43 46  1  0  0  0
 84 86  1  0  0  0
 84 87  1  0  0  0
  2  5  1  0  0  0
 39 41  1  0  0  0
 39 42  1  0  0  0
  7 10  1  0  0  0
 32 34  1  0  0  0
 32 35  1  0  0  0
 12 15  1  0  0  0
 25 27  1  0  0  0
 25 28  1  0  0  0
 17 21  1  0  0  0
 59 61  1  0  0  0
 59 62  1  0  0  0
M  END
> <minimizedAffinity>
-6.92677

> <CNNscore>
0.2085780948

> <CNNaffinity>
7.6992430687

> <CNN_VS>
1.6058934927

> <CNNaffinity_variance>
0.2420445383

$$$$
[H]N([H])C(=O)C([H])([H])C([H])([H])[C@@]([H])(C(=O)N([H])[C@]([H])(C(=O)N([H])[C@]([H])(C(=O)N([H])[C@]([H])(C(=O)N([H])[C@]([H])(C(=O)N([H])[C@]([H])(C(=O)N([H])[C@]([H])(C(=O)N([H])[H])C([H])([H])C([H])(C([H])([H])[H])C([H])([H])[H])C([H])([H])C([H])([H])C(=O)N([H])[H])C([H])([H])C([H])([H])C(=O)N([H])[H])C([H])([H])C([H])([H])C(=O)N([H])[H])C([H])([H])C([H])([H])C(=O)N([H])[H])C([H])([H])C([H])([H])C(=O)N([H])[H])N([H])C(=O)C([H])([H])[H]


 87 86  0  0  0  0  0  0  0  0999 V2000
   36.8667  -19.4882   35.6710 C   0  0  0  0  0  0  0  0  0  0  0  0
   35.5753  -18.9069   36.0984 N   0  0  0  0  0  0  0  0  0  0  0  0
   34.5862  -18.6172   35.1393 C   0  0  0  0  0  0  0  0  0  0  0  0
   34.8805  -18.8805   33.9027 O   0  0  0  0  0  0  0  0  0  0  0  0
   35.4244  -18.7286   37.0871 H   0  0  0  0  0  0  0  0  0  0  0  0
   33.2522  -18.0434   35.4321 C   0  0  0  0  0  0  0  0  0  0  0  0
   33.2736  -16.5797   35.2463 N   0  0  0  0  0  0  0  0  0  0  0  0
   34.0114  -15.7236   36.0842 C   0  0  0  0  0  0  0  0  0  0  0  0
   34.6920  -16.0924   36.9926 O   0  0  0  0  0  0  0  0  0  0  0  0
   32.7262  -16.2032   34.4617 H   0  0  0  0  0  0  0  0  0  0  0  0
   33.8888  -14.1902   35.7529 C   0  0  0  0  0  0  0  0  0  0  0  0
   33.0984  -13.6609   36.7385 N   0  0  0  0  0  0  0  0  0  0  0  0
   32.7179  -12.9839   37.9575 C   0  0  0  0  0  0  0  0  0  0  0  0
   33.3591  -12.4722   38.7875 O   0  0  0  0  0  0  0  0  0  0  0  0
   34.4179  -13.2416   37.2447 H   0  0  0  0  0  0  0  0  0  0  0  0
   31.1586  -12.9397   38.1805 C   0  0  0  0  0  0  0  0  0  0  0  0
   30.9529  -13.6456   39.4208 N   0  0  0  0  0  0  0  0  0  0  0  0
   29.6373  -13.8707   39.9450 C   0  0  0  0  0  0  0  0  0  0  0  0
   29.5219  -14.6096   41.2312 C   0  0  0  0  0  0  0  0  0  0  0  0
   28.6197  -13.4699   39.3571 O   0  0  0  0  0  0  0  0  0  0  0  0
   31.7595  -14.0121   39.9957 H   0  0  0  0  0  0  0  0  0  0  0  0
   30.8450  -11.5031   38.2878 C   0  0  0  0  0  0  0  0  0  0  0  0
   31.2121  -10.6194   37.1656 C   0  0  0  0  0  0  0  0  0  0  0  0
   31.2826   -9.2008   37.5200 C   0  0  0  0  0  0  0  0  0  0  0  0
   30.3005   -8.5410   38.3041 N   0  0  0  0  0  0  0  0  0  0  0  0
   32.2706   -8.5387   37.1041 O   0  0  0  0  0  0  0  0  0  0  0  0
   30.1385   -8.7858   39.3118 H   0  0  0  0  0  0  0  0  0  0  0  0
   29.7421   -7.7952   37.8750 H   0  0  0  0  0  0  0  0  0  0  0  0
   35.3088  -13.7036   35.8637 C   0  0  0  0  0  0  0  0  0  0  0  0
   35.9101  -13.4534   37.1620 C   0  0  0  0  0  0  0  0  0  0  0  0
   37.2206  -13.9587   37.4917 C   0  0  0  0  0  0  0  0  0  0  0  0
   37.5852  -15.3186   37.3008 N   0  0  0  0  0  0  0  0  0  0  0  0
   38.1366  -13.2063   37.9752 O   0  0  0  0  0  0  0  0  0  0  0  0
   37.3628  -15.8899   36.4770 H   0  0  0  0  0  0  0  0  0  0  0  0
   38.1395  -15.7639   38.1039 H   0  0  0  0  0  0  0  0  0  0  0  0
   32.1828  -18.5617   34.4629 C   0  0  0  0  0  0  0  0  0  0  0  0
   31.3220  -19.5846   35.2000 C   0  0  0  0  0  0  0  0  0  0  0  0
   31.9444  -20.9270   35.0189 C   0  0  0  0  0  0  0  0  0  0  0  0
   32.5744  -21.2558   33.7964 N   0  0  0  0  0  0  0  0  0  0  0  0
   31.9112  -21.7749   35.9613 O   0  0  0  0  0  0  0  0  0  0  0  0
   32.3539  -22.0848   33.2040 H   0  0  0  0  0  0  0  0  0  0  0  0
   33.3273  -20.5978   33.4571 H   0  0  0  0  0  0  0  0  0  0  0  0
   38.3875  -21.1907   36.6551 N   0  0  0  0  0  0  0  0  0  0  0  0
   37.2632  -20.4654   36.7858 C   0  0  0  0  0  0  0  0  0  0  0  0
   36.4598  -20.4985   37.7464 O   0  0  0  0  0  0  0  0  0  0  0  0
   38.9229  -20.9475   35.6642 H   0  0  0  0  0  0  0  0  0  0  0  0
   39.1223  -22.1800   37.3691 C   0  0  0  0  0  0  0  0  0  0  0  0
   41.1127  -21.6202   36.0343 N   0  0  0  0  0  0  0  0  0  0  0  0
   40.5865  -22.1328   37.2605 C   0  0  0  0  0  0  0  0  0  0  0  0
   41.3386  -22.5159   38.1441 O   0  0  0  0  0  0  0  0  0  0  0  0
   40.3989  -21.2551   35.3354 H   0  0  0  0  0  0  0  0  0  0  0  0
   42.4614  -21.5212   35.6402 C   0  0  0  0  0  0  0  0  0  0  0  0
   43.4728  -19.2905   35.0876 N   0  0  0  0  0  0  0  0  0  0  0  0
   43.1001  -20.2411   36.0396 C   0  0  0  0  0  0  0  0  0  0  0  0
   43.2937  -20.0369   37.2562 O   0  0  0  0  0  0  0  0  0  0  0  0
   43.2811  -19.5676   34.0666 H   0  0  0  0  0  0  0  0  0  0  0  0
   44.0791  -18.0081   35.2442 C   0  0  0  0  0  0  0  0  0  0  0  0
   43.2277  -17.0404   35.9371 C   0  0  0  0  0  0  0  0  0  0  0  0
   41.8799  -17.1869   36.2660 N   0  0  0  0  0  0  0  0  0  0  0  0
   43.8009  -15.9290   36.2734 O   0  0  0  0  0  0  0  0  0  0  0  0
   41.1712  -17.4636   35.5730 H   0  0  0  0  0  0  0  0  0  0  0  0
   41.5509  -17.0048   37.2608 H   0  0  0  0  0  0  0  0  0  0  0  0
   44.6557  -17.4782   33.9747 C   0  0  0  0  0  0  0  0  0  0  0  0
   46.7010  -18.1332   35.0889 C   0  0  0  0  0  0  0  0  0  0  0  0
   46.1218  -17.2605   33.9455 C   0  0  0  0  0  0  0  0  0  0  0  0
   46.5702  -15.8640   34.2848 C   0  0  0  0  0  0  0  0  0  0  0  0
   42.5442  -21.6242   34.0923 C   0  0  0  0  0  0  0  0  0  0  0  0
   41.5168  -22.6236   33.6272 C   0  0  0  0  0  0  0  0  0  0  0  0
   41.9020  -23.2468   32.3495 C   0  0  0  0  0  0  0  0  0  0  0  0
   41.7284  -22.5029   31.1762 N   0  0  0  0  0  0  0  0  0  0  0  0
   42.3593  -24.3961   32.3312 O   0  0  0  0  0  0  0  0  0  0  0  0
   42.5549  -21.9632   30.7720 H   0  0  0  0  0  0  0  0  0  0  0  0
   40.8423  -22.4142   30.6272 H   0  0  0  0  0  0  0  0  0  0  0  0
   38.5206  -23.5483   37.2167 C   0  0  0  0  0  0  0  0  0  0  0  0
   37.7433  -23.9297   38.4550 C   0  0  0  0  0  0  0  0  0  0  0  0
   37.6110  -25.3815   38.6468 C   0  0  0  0  0  0  0  0  0  0  0  0
   36.9771  -25.9811   39.7761 N   0  0  0  0  0  0  0  0  0  0  0  0
   38.0776  -26.1540   37.7653 O   0  0  0  0  0  0  0  0  0  0  0  0
   37.2492  -26.9441   40.0801 H   0  0  0  0  0  0  0  0  0  0  0  0
   36.2390  -25.4824   40.3247 H   0  0  0  0  0  0  0  0  0  0  0  0
   37.8407  -18.3697   35.5561 C   0  0  0  0  0  0  0  0  0  0  0  0
   38.2314  -18.2232   34.0678 C   0  0  0  0  0  0  0  0  0  0  0  0
   39.4178  -19.0541   33.8239 C   0  0  0  0  0  0  0  0  0  0  0  0
   39.7307  -19.7410   32.6192 N   0  0  0  0  0  0  0  0  0  0  0  0
   40.2588  -19.1674   34.7900 O   0  0  0  0  0  0  0  0  0  0  0  0
   40.6365  -20.2588   32.5803 H   0  0  0  0  0  0  0  0  0  0  0  0
   39.1002  -19.7577   31.7963 H   0  0  0  0  0  0  0  0  0  0  0  0
 64 65  1  0  0  0
 65 66  1  0  0  0
 65 63  1  0  0  0
 63 57  1  0  0  0
 57 53  1  0  0  0
 53 54  1  0  0  0
 54 55  2  0  0  0
 54 52  1  0  0  0
 52 67  1  0  0  0
 67 68  1  0  0  0
 68 69  1  0  0  0
 69 70  1  0  0  0
 69 71  2  0  0  0
 52 48  1  0  0  0
 48 49  1  0  0  0
 49 50  2  0  0  0
 49 47  1  0  0  0
 47 74  1  0  0  0
 74 75  1  0  0  0
 75 76  1  0  0  0
 76 77  1  0  0  0
 76 78  2  0  0  0
 47 43  1  0  0  0
 43 44  1  0  0  0
 44 45  2  0  0  0
 44  1  1  0  0  0
  1 81  1  0  0  0
 81 82  1  0  0  0
 82 83  1  0  0  0
 83 84  1  0  0  0
 83 85  2  0  0  0
  1  2  1  0  0  0
  2  3  1  0  0  0
  3  4  2  0  0  0
  3  6  1  0  0  0
  6 36  1  0  0  0
 36 37  1  0  0  0
 37 38  1  0  0  0
 38 39  1  0  0  0
 38 40  2  0  0  0
  6  7  1  0  0  0
  7  8  1  0  0  0
  8  9  2  0  0  0
  8 11  1  0  0  0
 11 29  1  0  0  0
 29 30  1  0  0  0
 30 31  1  0  0  0
 31 32  1  0  0  0
 31 33  2  0  0  0
 11 12  1  0  0  0
 12 13  1  0  0  0
 13 14  2  0  0  0
 13 16  1  0  0  0
 16 22  1  0  0  0
 22 23  1  0  0  0
 23 24  1  0  0  0
 24 25  1  0  0  0
 24 26  2  0  0  0
 16 17  1  0  0  0
 17 18  1  0  0  0
 18 19  1  0  0  0
 18 20  2  0  0  0
 57 58  1  0  0  0
 58 59  1  0  0  0
 58 60  2  0  0  0
 53 56  1  0  0  0
 70 72  1  0  0  0
 70 73  1  0  0  0
 48 51  1  0  0  0
 77 79  1  0  0  0
 77 80  1  0  0  0
 43 46  1  0  0  0
 84 86  1  0  0  0
 84 87  1  0  0  0
  2  5  1  0  0  0
 39 41  1  0  0  0
 39 42  1  0  0  0
  7 10  1  0  0  0
 32 34  1  0  0  0
 32 35  1  0  0  0
 12 15  1  0  0  0
 25 27  1  0  0  0
 25 28  1  0  0  0
 17 21  1  0  0  0
 59 61  1  0  0  0
 59 62  1  0  0  0
M  END
> <minimizedAffinity>
-6.11764

> <CNNscore>
0.2018063068

> <CNNaffinity>
7.4285039902

> <CNN_VS>
1.4991189241

> <CNNaffinity_variance>
0.3606421649

$$$$
[H]N([H])C(=O)C([H])([H])C([H])([H])[C@@]([H])(C(=O)N([H])[C@]([H])(C(=O)N([H])[C@]([H])(C(=O)N([H])[C@]([H])(C(=O)N([H])[C@]([H])(C(=O)N([H])[C@]([H])(C(=O)N([H])[C@]([H])(C(=O)N([H])[H])C([H])([H])C([H])(C([H])([H])[H])C([H])([H])[H])C([H])([H])C([H])([H])C(=O)N([H])[H])C([H])([H])C([H])([H])C(=O)N([H])[H])C([H])([H])C([H])([H])C(=O)N([H])[H])C([H])([H])C([H])([H])C(=O)N([H])[H])C([H])([H])C([H])([H])C(=O)N([H])[H])N([H])C(=O)C([H])([H])[H]


 87 86  0  0  0  0  0  0  0  0999 V2000
   34.1936  -13.9561   36.7233 C   0  0  0  0  0  0  0  0  0  0  0  0
   33.7981  -15.1484   35.9421 N   0  0  0  0  0  0  0  0  0  0  0  0
   34.4517  -16.3763   36.1593 C   0  0  0  0  0  0  0  0  0  0  0  0
   35.3924  -16.3841   37.0537 O   0  0  0  0  0  0  0  0  0  0  0  0
   33.0522  -15.0577   35.2582 H   0  0  0  0  0  0  0  0  0  0  0  0
   34.1491  -17.6434   35.4539 C   0  0  0  0  0  0  0  0  0  0  0  0
   34.7877  -18.7789   36.1469 N   0  0  0  0  0  0  0  0  0  0  0  0
   35.9110  -19.4461   35.6250 C   0  0  0  0  0  0  0  0  0  0  0  0
   36.4557  -19.1512   34.6049 O   0  0  0  0  0  0  0  0  0  0  0  0
   34.3787  -19.0635   37.0462 H   0  0  0  0  0  0  0  0  0  0  0  0
   36.4357  -20.6532   36.4874 C   0  0  0  0  0  0  0  0  0  0  0  0
   37.7734  -20.7522   36.2101 N   0  0  0  0  0  0  0  0  0  0  0  0
   39.2027  -20.8108   36.4167 C   0  0  0  0  0  0  0  0  0  0  0  0
   39.8430  -20.7693   37.3915 O   0  0  0  0  0  0  0  0  0  0  0  0
   37.8422  -20.6906   37.6813 H   0  0  0  0  0  0  0  0  0  0  0  0
   40.0167  -20.9597   35.0758 C   0  0  0  0  0  0  0  0  0  0  0  0
   41.0544  -19.9634   35.1728 N   0  0  0  0  0  0  0  0  0  0  0  0
   41.6168  -19.3516   34.0041 C   0  0  0  0  0  0  0  0  0  0  0  0
   42.6828  -18.3326   34.2013 C   0  0  0  0  0  0  0  0  0  0  0  0
   41.2372  -19.6507   32.8603 O   0  0  0  0  0  0  0  0  0  0  0  0
   41.4482  -19.6553   36.1031 H   0  0  0  0  0  0  0  0  0  0  0  0
   40.5462  -22.3350   35.1201 C   0  0  0  0  0  0  0  0  0  0  0  0
   40.4616  -23.1588   33.8998 C   0  0  0  0  0  0  0  0  0  0  0  0
   41.7457  -23.3668   33.2285 C   0  0  0  0  0  0  0  0  0  0  0  0
   42.2968  -22.4516   32.2941 N   0  0  0  0  0  0  0  0  0  0  0  0
   42.3893  -24.4152   33.5011 O   0  0  0  0  0  0  0  0  0  0  0  0
   42.5986  -21.4862   32.5747 H   0  0  0  0  0  0  0  0  0  0  0  0
   42.4139  -22.7482   31.3192 H   0  0  0  0  0  0  0  0  0  0  0  0
   36.1979  -20.1909   37.9000 C   0  0  0  0  0  0  0  0  0  0  0  0
   35.6447  -21.0932   38.8946 C   0  0  0  0  0  0  0  0  0  0  0  0
   34.2295  -21.1257   39.1736 C   0  0  0  0  0  0  0  0  0  0  0  0
   33.2769  -21.6058   38.2352 N   0  0  0  0  0  0  0  0  0  0  0  0
   33.7481  -20.7244   40.2898 O   0  0  0  0  0  0  0  0  0  0  0  0
   33.3760  -22.4484   37.6564 H   0  0  0  0  0  0  0  0  0  0  0  0
   32.3854  -21.0168   38.1414 H   0  0  0  0  0  0  0  0  0  0  0  0
   32.6476  -17.9549   35.4590 C   0  0  0  0  0  0  0  0  0  0  0  0
   32.2625  -18.4848   34.0800 C   0  0  0  0  0  0  0  0  0  0  0  0
   32.1553  -19.9690   34.1698 C   0  0  0  0  0  0  0  0  0  0  0  0
   33.0904  -20.7880   33.4959 N   0  0  0  0  0  0  0  0  0  0  0  0
   31.2267  -20.4985   34.8519 O   0  0  0  0  0  0  0  0  0  0  0  0
   32.8567  -21.5420   32.8149 H   0  0  0  0  0  0  0  0  0  0  0  0
   34.1114  -20.6114   33.6995 H   0  0  0  0  0  0  0  0  0  0  0  0
   32.8880  -12.0011   37.5313 N   0  0  0  0  0  0  0  0  0  0  0  0
   33.0005  -12.9952   36.6335 C   0  0  0  0  0  0  0  0  0  0  0  0
   32.2093  -13.2487   35.6959 O   0  0  0  0  0  0  0  0  0  0  0  0
   33.7664  -12.0169   38.2770 H   0  0  0  0  0  0  0  0  0  0  0  0
   32.0056  -10.9293   37.8494 C   0  0  0  0  0  0  0  0  0  0  0  0
   30.0055  -11.7067   39.0545 N   0  0  0  0  0  0  0  0  0  0  0  0
   30.5661  -11.2214   37.8323 C   0  0  0  0  0  0  0  0  0  0  0  0
   29.8639  -11.0822   36.8421 O   0  0  0  0  0  0  0  0  0  0  0  0
   30.6656  -11.7491   39.8874 H   0  0  0  0  0  0  0  0  0  0  0  0
   28.6818  -12.1206   39.3006 C   0  0  0  0  0  0  0  0  0  0  0  0
   26.4195  -11.0365   39.4069 N   0  0  0  0  0  0  0  0  0  0  0  0
   27.7826  -11.0103   39.7069 C   0  0  0  0  0  0  0  0  0  0  0  0
   28.2816  -10.0493   40.3287 O   0  0  0  0  0  0  0  0  0  0  0  0
   26.0905  -11.8973   38.8531 H   0  0  0  0  0  0  0  0  0  0  0  0
   25.3850  -10.1000   39.7059 C   0  0  0  0  0  0  0  0  0  0  0  0
   25.0458  -10.0389   41.1281 C   0  0  0  0  0  0  0  0  0  0  0  0
   24.5824  -11.0824   41.9298 N   0  0  0  0  0  0  0  0  0  0  0  0
   25.1942   -8.8821   41.6908 O   0  0  0  0  0  0  0  0  0  0  0  0
   23.7793  -11.6675   41.6617 H   0  0  0  0  0  0  0  0  0  0  0  0
   25.0574  -11.2935   42.8576 H   0  0  0  0  0  0  0  0  0  0  0  0
   24.1911  -10.2507   38.8246 C   0  0  0  0  0  0  0  0  0  0  0  0
   22.1221   -9.0496   39.1854 C   0  0  0  0  0  0  0  0  0  0  0  0
   23.4816   -9.0070   38.4408 C   0  0  0  0  0  0  0  0  0  0  0  0
   23.1023   -8.9069   36.9873 C   0  0  0  0  0  0  0  0  0  0  0  0
   28.6849  -13.1664   40.4493 C   0  0  0  0  0  0  0  0  0  0  0  0
   29.8617  -12.8825   41.3468 C   0  0  0  0  0  0  0  0  0  0  0  0
   29.6532  -13.4153   42.7039 C   0  0  0  0  0  0  0  0  0  0  0  0
   28.6420  -12.8448   43.4864 N   0  0  0  0  0  0  0  0  0  0  0  0
   30.3627  -14.3367   43.1259 O   0  0  0  0  0  0  0  0  0  0  0  0
   27.6833  -13.3111   43.5234 H   0  0  0  0  0  0  0  0  0  0  0  0
   28.7246  -11.9768   44.0645 H   0  0  0  0  0  0  0  0  0  0  0  0
   32.4000   -9.6520   37.1634 C   0  0  0  0  0  0  0  0  0  0  0  0
   33.8987   -9.4652   37.2057 C   0  0  0  0  0  0  0  0  0  0  0  0
   34.3915   -8.4256   36.2899 C   0  0  0  0  0  0  0  0  0  0  0  0
   35.6303   -8.5065   35.5860 N   0  0  0  0  0  0  0  0  0  0  0  0
   33.6840   -7.3979   36.1033 O   0  0  0  0  0  0  0  0  0  0  0  0
   36.1247   -7.6327   35.2928 H   0  0  0  0  0  0  0  0  0  0  0  0
   36.0734   -9.4246   35.3513 H   0  0  0  0  0  0  0  0  0  0  0  0
   35.4040  -13.3827   36.0759 C   0  0  0  0  0  0  0  0  0  0  0  0
   36.2994  -12.7778   37.1810 C   0  0  0  0  0  0  0  0  0  0  0  0
   37.5618  -13.5283   37.2067 C   0  0  0  0  0  0  0  0  0  0  0  0
   37.6990  -14.9427   37.2476 N   0  0  0  0  0  0  0  0  0  0  0  0
   38.6488  -12.8417   37.1840 O   0  0  0  0  0  0  0  0  0  0  0  0
   38.6662  -15.3347   37.2169 H   0  0  0  0  0  0  0  0  0  0  0  0
   36.8909  -15.5886   37.3177 H   0  0  0  0  0  0  0  0  0  0  0  0
 64 65  1  0  0  0
 65 66  1  0  0  0
 65 63  1  0  0  0
 63 57  1  0  0  0
 57 53  1  0  0  0
 53 54  1  0  0  0
 54 55  2  0  0  0
 54 52  1  0  0  0
 52 67  1  0  0  0
 67 68  1  0  0  0
 68 69  1  0  0  0
 69 70  1  0  0  0
 69 71  2  0  0  0
 52 48  1  0  0  0
 48 49  1  0  0  0
 49 50  2  0  0  0
 49 47  1  0  0  0
 47 74  1  0  0  0
 74 75  1  0  0  0
 75 76  1  0  0  0
 76 77  1  0  0  0
 76 78  2  0  0  0
 47 43  1  0  0  0
 43 44  1  0  0  0
 44 45  2  0  0  0
 44  1  1  0  0  0
  1 81  1  0  0  0
 81 82  1  0  0  0
 82 83  1  0  0  0
 83 84  1  0  0  0
 83 85  2  0  0  0
  1  2  1  0  0  0
  2  3  1  0  0  0
  3  4  2  0  0  0
  3  6  1  0  0  0
  6 36  1  0  0  0
 36 37  1  0  0  0
 37 38  1  0  0  0
 38 39  1  0  0  0
 38 40  2  0  0  0
  6  7  1  0  0  0
  7  8  1  0  0  0
  8  9  2  0  0  0
  8 11  1  0  0  0
 11 29  1  0  0  0
 29 30  1  0  0  0
 30 31  1  0  0  0
 31 32  1  0  0  0
 31 33  2  0  0  0
 11 12  1  0  0  0
 12 13  1  0  0  0
 13 14  2  0  0  0
 13 16  1  0  0  0
 16 22  1  0  0  0
 22 23  1  0  0  0
 23 24  1  0  0  0
 24 25  1  0  0  0
 24 26  2  0  0  0
 16 17  1  0  0  0
 17 18  1  0  0  0
 18 19  1  0  0  0
 18 20  2  0  0  0
 57 58  1  0  0  0
 58 59  1  0  0  0
 58 60  2  0  0  0
 53 56  1  0  0  0
 70 72  1  0  0  0
 70 73  1  0  0  0
 48 51  1  0  0  0
 77 79  1  0  0  0
 77 80  1  0  0  0
 43 46  1  0  0  0
 84 86  1  0  0  0
 84 87  1  0  0  0
  2  5  1  0  0  0
 39 41  1  0  0  0
 39 42  1  0  0  0
  7 10  1  0  0  0
 32 34  1  0  0  0
 32 35  1  0  0  0
 12 15  1  0  0  0
 25 27  1  0  0  0
 25 28  1  0  0  0
 17 21  1  0  0  0
 59 61  1  0  0  0
 59 62  1  0  0  0
M  END
> <minimizedAffinity>
-7.62106

> <CNNscore>
0.1896148771

> <CNNaffinity>
7.6553697586

> <CNN_VS>
1.4515719414

> <CNNaffinity_variance>
0.2637254596

$$$$
[H]N([H])C(=O)C([H])([H])C([H])([H])[C@@]([H])(C(=O)N([H])[C@]([H])(C(=O)N([H])[C@]([H])(C(=O)N([H])[C@]([H])(C(=O)N([H])[C@]([H])(C(=O)N([H])[C@]([H])(C(=O)N([H])[C@]([H])(C(=O)N([H])[H])C([H])([H])C([H])(C([H])([H])[H])C([H])([H])[H])C([H])([H])C([H])([H])C(=O)N([H])[H])C([H])([H])C([H])([H])C(=O)N([H])[H])C([H])([H])C([H])([H])C(=O)N([H])[H])C([H])([H])C([H])([H])C(=O)N([H])[H])C([H])([H])C([H])([H])C(=O)N([H])[H])N([H])C(=O)C([H])([H])[H]


 87 86  0  0  0  0  0  0  0  0999 V2000
   34.2772  -14.0444   36.6438 C   0  0  0  0  0  0  0  0  0  0  0  0
   33.9460  -15.1310   35.6962 N   0  0  0  0  0  0  0  0  0  0  0  0
   34.4888  -16.4160   35.8867 C   0  0  0  0  0  0  0  0  0  0  0  0
   35.2740  -16.5698   36.9089 O   0  0  0  0  0  0  0  0  0  0  0  0
   33.3241  -14.9273   34.9190 H   0  0  0  0  0  0  0  0  0  0  0  0
   34.2331  -17.5901   35.0204 C   0  0  0  0  0  0  0  0  0  0  0  0
   35.2014  -18.6637   35.3160 N   0  0  0  0  0  0  0  0  0  0  0  0
   36.4665  -18.7283   34.7040 C   0  0  0  0  0  0  0  0  0  0  0  0
   36.8771  -17.9275   33.9200 O   0  0  0  0  0  0  0  0  0  0  0  0
   34.9147  -19.3705   36.0054 H   0  0  0  0  0  0  0  0  0  0  0  0
   37.3512  -19.9615   35.1193 C   0  0  0  0  0  0  0  0  0  0  0  0
   38.6481  -19.5264   35.0505 N   0  0  0  0  0  0  0  0  0  0  0  0
   39.8578  -18.9403   34.5191 C   0  0  0  0  0  0  0  0  0  0  0  0
   40.0878  -18.4520   33.4844 O   0  0  0  0  0  0  0  0  0  0  0  0
   38.1803  -19.0819   33.7251 H   0  0  0  0  0  0  0  0  0  0  0  0
   41.0616  -18.9765   35.5352 C   0  0  0  0  0  0  0  0  0  0  0  0
   41.7914  -17.7614   35.2711 N   0  0  0  0  0  0  0  0  0  0  0  0
   43.2241  -17.7462   35.2119 C   0  0  0  0  0  0  0  0  0  0  0  0
   43.8915  -16.4461   34.9328 C   0  0  0  0  0  0  0  0  0  0  0  0
   43.8985  -18.7744   35.3846 O   0  0  0  0  0  0  0  0  0  0  0  0
   41.3027  -16.8368   35.1238 H   0  0  0  0  0  0  0  0  0  0  0  0
   40.4200  -18.9745   36.8627 C   0  0  0  0  0  0  0  0  0  0  0  0
   40.8953  -19.9383   37.8728 C   0  0  0  0  0  0  0  0  0  0  0  0
   42.2230  -19.6357   38.4099 C   0  0  0  0  0  0  0  0  0  0  0  0
   43.4056  -20.3000   37.9918 N   0  0  0  0  0  0  0  0  0  0  0  0
   42.3117  -18.7364   39.2880 O   0  0  0  0  0  0  0  0  0  0  0  0
   43.7784  -20.2073   37.0150 H   0  0  0  0  0  0  0  0  0  0  0  0
   43.9159  -20.8773   38.6688 H   0  0  0  0  0  0  0  0  0  0  0  0
   36.9303  -20.2186   36.5414 C   0  0  0  0  0  0  0  0  0  0  0  0
   36.8995  -21.5690   37.0754 C   0  0  0  0  0  0  0  0  0  0  0  0
   37.0086  -21.8181   38.4923 C   0  0  0  0  0  0  0  0  0  0  0  0
   35.9525  -22.3909   39.2506 N   0  0  0  0  0  0  0  0  0  0  0  0
   38.0701  -21.5388   39.1510 O   0  0  0  0  0  0  0  0  0  0  0  0
   35.3682  -23.1847   38.9623 H   0  0  0  0  0  0  0  0  0  0  0  0
   35.7692  -21.9339   40.2035 H   0  0  0  0  0  0  0  0  0  0  0  0
   32.8522  -18.2030   35.2827 C   0  0  0  0  0  0  0  0  0  0  0  0
   33.0483  -19.6315   35.7844 C   0  0  0  0  0  0  0  0  0  0  0  0
   32.2138  -20.5347   34.9417 C   0  0  0  0  0  0  0  0  0  0  0  0
   32.7744  -21.1581   33.8030 N   0  0  0  0  0  0  0  0  0  0  0  0
   31.0012  -20.7464   35.2460 O   0  0  0  0  0  0  0  0  0  0  0  0
   32.3962  -21.1027   32.8331 H   0  0  0  0  0  0  0  0  0  0  0  0
   33.6549  -21.7210   33.9538 H   0  0  0  0  0  0  0  0  0  0  0  0
   32.9204  -12.1984   37.6084 N   0  0  0  0  0  0  0  0  0  0  0  0
   33.0656  -13.1029   36.6248 C   0  0  0  0  0  0  0  0  0  0  0  0
   32.2925  -13.2841   35.6558 O   0  0  0  0  0  0  0  0  0  0  0  0
   33.7888  -12.2658   38.3628 H   0  0  0  0  0  0  0  0  0  0  0  0
   32.0116  -11.1780   38.0105 C   0  0  0  0  0  0  0  0  0  0  0  0
   30.1900  -12.2184   39.2975 N   0  0  0  0  0  0  0  0  0  0  0  0
   30.5923  -11.5455   38.1021 C   0  0  0  0  0  0  0  0  0  0  0  0
   29.7804  -11.3165   37.2182 O   0  0  0  0  0  0  0  0  0  0  0  0
   30.9388  -12.3332   40.0441 H   0  0  0  0  0  0  0  0  0  0  0  0
   28.9197  -12.7347   39.6198 C   0  0  0  0  0  0  0  0  0  0  0  0
   27.2533  -10.9051   39.1952 N   0  0  0  0  0  0  0  0  0  0  0  0
   27.9658  -11.6999   40.0948 C   0  0  0  0  0  0  0  0  0  0  0  0
   27.8167  -11.5612   41.3268 O   0  0  0  0  0  0  0  0  0  0  0  0
   27.4652  -11.0885   38.1572 H   0  0  0  0  0  0  0  0  0  0  0  0
   26.2918   -9.8760   39.4254 C   0  0  0  0  0  0  0  0  0  0  0  0
   26.8018   -8.7717   40.2389 C   0  0  0  0  0  0  0  0  0  0  0  0
   26.5714   -8.5484   41.5966 N   0  0  0  0  0  0  0  0  0  0  0  0
   27.5451   -7.9133   39.6164 O   0  0  0  0  0  0  0  0  0  0  0  0
   25.6246   -8.5392   41.9999 H   0  0  0  0  0  0  0  0  0  0  0  0
   27.3884   -8.3729   42.2544 H   0  0  0  0  0  0  0  0  0  0  0  0
   24.9810  -10.4012   39.9058 C   0  0  0  0  0  0  0  0  0  0  0  0
   24.3103  -11.3553   37.7860 C   0  0  0  0  0  0  0  0  0  0  0  0
   23.8649  -10.4081   38.9301 C   0  0  0  0  0  0  0  0  0  0  0  0
   23.6065   -9.0947   38.2411 C   0  0  0  0  0  0  0  0  0  0  0  0
   29.0744  -13.7860   40.7529 C   0  0  0  0  0  0  0  0  0  0  0  0
   29.2016  -15.1487   40.1224 C   0  0  0  0  0  0  0  0  0  0  0  0
   27.9571  -15.9261   40.2485 C   0  0  0  0  0  0  0  0  0  0  0  0
   26.9337  -15.4039   41.0487 N   0  0  0  0  0  0  0  0  0  0  0  0
   27.8380  -17.0086   39.6618 O   0  0  0  0  0  0  0  0  0  0  0  0
   26.1426  -14.8527   40.5925 H   0  0  0  0  0  0  0  0  0  0  0  0
   26.8533  -15.4988   42.0875 H   0  0  0  0  0  0  0  0  0  0  0  0
   32.2837   -9.8746   37.3143 C   0  0  0  0  0  0  0  0  0  0  0  0
   33.7522   -9.5267   37.3895 C   0  0  0  0  0  0  0  0  0  0  0  0
   34.1893   -8.5783   36.3544 C   0  0  0  0  0  0  0  0  0  0  0  0
   35.3277   -8.7812   35.5179 N   0  0  0  0  0  0  0  0  0  0  0  0
   33.5242   -7.5201   36.1826 O   0  0  0  0  0  0  0  0  0  0  0  0
   35.8320   -7.9604   35.1108 H   0  0  0  0  0  0  0  0  0  0  0  0
   35.6862   -9.7385   35.2957 H   0  0  0  0  0  0  0  0  0  0  0  0
   35.5000  -13.3680   36.1339 C   0  0  0  0  0  0  0  0  0  0  0  0
   36.3715  -12.9712   37.3471 C   0  0  0  0  0  0  0  0  0  0  0  0
   37.6071  -13.7640   37.2998 C   0  0  0  0  0  0  0  0  0  0  0  0
   37.6955  -15.1818   37.2442 N   0  0  0  0  0  0  0  0  0  0  0  0
   38.7169  -13.1145   37.3028 O   0  0  0  0  0  0  0  0  0  0  0  0
   38.6477  -15.6033   37.1699 H   0  0  0  0  0  0  0  0  0  0  0  0
   36.8666  -15.8032   37.2861 H   0  0  0  0  0  0  0  0  0  0  0  0
 64 65  1  0  0  0
 65 66  1  0  0  0
 65 63  1  0  0  0
 63 57  1  0  0  0
 57 53  1  0  0  0
 53 54  1  0  0  0
 54 55  2  0  0  0
 54 52  1  0  0  0
 52 67  1  0  0  0
 67 68  1  0  0  0
 68 69  1  0  0  0
 69 70  1  0  0  0
 69 71  2  0  0  0
 52 48  1  0  0  0
 48 49  1  0  0  0
 49 50  2  0  0  0
 49 47  1  0  0  0
 47 74  1  0  0  0
 74 75  1  0  0  0
 75 76  1  0  0  0
 76 77  1  0  0  0
 76 78  2  0  0  0
 47 43  1  0  0  0
 43 44  1  0  0  0
 44 45  2  0  0  0
 44  1  1  0  0  0
  1 81  1  0  0  0
 81 82  1  0  0  0
 82 83  1  0  0  0
 83 84  1  0  0  0
 83 85  2  0  0  0
  1  2  1  0  0  0
  2  3  1  0  0  0
  3  4  2  0  0  0
  3  6  1  0  0  0
  6 36  1  0  0  0
 36 37  1  0  0  0
 37 38  1  0  0  0
 38 39  1  0  0  0
 38 40  2  0  0  0
  6  7  1  0  0  0
  7  8  1  0  0  0
  8  9  2  0  0  0
  8 11  1  0  0  0
 11 29  1  0  0  0
 29 30  1  0  0  0
 30 31  1  0  0  0
 31 32  1  0  0  0
 31 33  2  0  0  0
 11 12  1  0  0  0
 12 13  1  0  0  0
 13 14  2  0  0  0
 13 16  1  0  0  0
 16 22  1  0  0  0
 22 23  1  0  0  0
 23 24  1  0  0  0
 24 25  1  0  0  0
 24 26  2  0  0  0
 16 17  1  0  0  0
 17 18  1  0  0  0
 18 19  1  0  0  0
 18 20  2  0  0  0
 57 58  1  0  0  0
 58 59  1  0  0  0
 58 60  2  0  0  0
 53 56  1  0  0  0
 70 72  1  0  0  0
 70 73  1  0  0  0
 48 51  1  0  0  0
 77 79  1  0  0  0
 77 80  1  0  0  0
 43 46  1  0  0  0
 84 86  1  0  0  0
 84 87  1  0  0  0
  2  5  1  0  0  0
 39 41  1  0  0  0
 39 42  1  0  0  0
  7 10  1  0  0  0
 32 34  1  0  0  0
 32 35  1  0  0  0
 12 15  1  0  0  0
 25 27  1  0  0  0
 25 28  1  0  0  0
 17 21  1  0  0  0
 59 61  1  0  0  0
 59 62  1  0  0  0
M  END
> <minimizedAffinity>
-7.60029

> <CNNscore>
0.1652852595

> <CNNaffinity>
7.8720841408

> <CNN_VS>
1.3011394739

> <CNNaffinity_variance>
0.1714420319

$$$$
[H]c1c([H])c(C([H])([H])N2C([H])([H])C([H])([H])N(C([H])([H])[H])C([H])([H])C2([H])[H])c(C(F)(F)F)c([H])c1C(=O)N([H])c1c([H])c([H])c(C([H])([H])[H])c(C(F)(F)F)c1[H]


 33 35  0  0  0  0  0  0  0  0999 V2000
   36.3052  -18.1108   36.0541 C   0  0  0  0  0  0  0  0  0  0  0  0
   37.1662  -17.5586   37.0069 C   0  0  0  0  0  0  0  0  0  0  0  0
   37.0081  -16.2130   37.4155 C   0  0  0  0  0  0  0  0  0  0  0  0
   36.0332  -15.4160   36.9174 C   0  0  0  0  0  0  0  0  0  0  0  0
   35.1547  -15.9713   35.9779 C   0  0  0  0  0  0  0  0  0  0  0  0
   35.2952  -17.2407   35.5834 C   0  0  0  0  0  0  0  0  0  0  0  0
   34.2421  -17.8965   34.7361 C   0  0  0  0  0  0  0  0  0  0  0  0
   34.6276  -18.5028   33.6291 F   0  0  0  0  0  0  0  0  0  0  0  0
   33.2355  -17.0101   34.4864 F   0  0  0  0  0  0  0  0  0  0  0  0
   33.5907  -18.8214   35.6232 F   0  0  0  0  0  0  0  0  0  0  0  0
   35.8272  -14.0108   37.1486 C   0  0  0  0  0  0  0  0  0  0  0  0
   36.8982  -13.2941   37.4558 O   0  0  0  0  0  0  0  0  0  0  0  0
   34.6324  -13.4195   37.0662 N   0  0  0  0  0  0  0  0  0  0  0  0
   33.7238  -14.0027   36.6942 H   0  0  0  0  0  0  0  0  0  0  0  0
   34.2328  -12.0514   37.2890 C   0  0  0  0  0  0  0  0  0  0  0  0
   33.0427  -11.8550   37.9447 C   0  0  0  0  0  0  0  0  0  0  0  0
   32.4345  -10.6204   37.9582 C   0  0  0  0  0  0  0  0  0  0  0  0
   32.9944   -9.5167   37.2996 C   0  0  0  0  0  0  0  0  0  0  0  0
   32.2962   -8.2480   37.1292 C   0  0  0  0  0  0  0  0  0  0  0  0
   34.2186   -9.7576   36.6459 C   0  0  0  0  0  0  0  0  0  0  0  0
   34.8223  -10.9878   36.6408 C   0  0  0  0  0  0  0  0  0  0  0  0
   34.8564   -8.6707   35.8460 C   0  0  0  0  0  0  0  0  0  0  0  0
   35.7525   -7.9028   36.5039 F   0  0  0  0  0  0  0  0  0  0  0  0
   35.7119   -9.4259   34.9113 F   0  0  0  0  0  0  0  0  0  0  0  0
   33.9724   -8.0523   35.0196 F   0  0  0  0  0  0  0  0  0  0  0  0
   36.5742  -19.2324   35.2204 C   0  0  0  0  0  0  0  0  0  0  0  0
   41.0431  -20.5446   32.6662 C   0  0  0  0  0  0  0  0  0  0  0  0
   40.3571  -20.3162   33.9353 N   0  0  0  0  0  0  0  0  0  0  0  0
   39.3657  -21.3071   34.1866 C   0  0  0  0  0  0  0  0  0  0  0  0
   38.5308  -20.7327   35.3801 C   0  0  0  0  0  0  0  0  0  0  0  0
   37.7360  -19.7956   34.8279 N   0  0  0  0  0  0  0  0  0  0  0  0
   38.4246  -18.8386   33.8957 C   0  0  0  0  0  0  0  0  0  0  0  0
   39.8791  -18.9520   33.9824 C   0  0  0  0  0  0  0  0  0  0  0  0
 27 28  1  0  0  0
 28 29  1  0  0  0
 29 30  1  0  0  0
 30 31  1  0  0  0
 31 26  1  0  0  0
 26  1  1  0  0  0
  1  2  2  0  0  0
  2  3  1  0  0  0
  3  4  2  0  0  0
  4  5  1  0  0  0
  5  6  2  0  0  0
  6  7  1  0  0  0
  7  8  1  0  0  0
  7  9  1  0  0  0
  7 10  1  0  0  0
  4 11  1  0  0  0
 11 12  2  0  0  0
 11 13  1  0  0  0
 13 15  1  0  0  0
 15 16  2  0  0  0
 16 17  1  0  0  0
 17 18  2  0  0  0
 18 19  1  0  0  0
 18 20  1  0  0  0
 20 21  2  0  0  0
 20 22  1  0  0  0
 22 23  1  0  0  0
 22 24  1  0  0  0
 22 25  1  0  0  0
 31 32  1  0  0  0
 32 33  1  0  0  0
 33 28  1  0  0  0
  6  1  1  0  0  0
 21 15  1  0  0  0
 13 14  1  0  0  0
M  END
> <minimizedAffinity>
-8.48324

> <CNNscore>
0.3965966403

> <CNNaffinity>
5.6151514053

> <CNN_VS>
2.2269501686

> <CNNaffinity_variance>
0.3873137832

$$$$
[H]c1c([H])c(C([H])([H])N2C([H])([H])C([H])([H])N(C([H])([H])[H])C([H])([H])C2([H])[H])c(C(F)(F)F)c([H])c1C(=O)N([H])c1c([H])c([H])c(C([H])([H])[H])c(C(F)(F)F)c1[H]


 33 35  0  0  0  0  0  0  0  0999 V2000
   36.1337  -17.3239   36.6463 C   0  0  0  0  0  0  0  0  0  0  0  0
   36.7682  -16.2717   37.3129 C   0  0  0  0  0  0  0  0  0  0  0  0
   36.1581  -14.9963   37.3748 C   0  0  0  0  0  0  0  0  0  0  0  0
   34.9549  -14.7422   36.8080 C   0  0  0  0  0  0  0  0  0  0  0  0
   34.3053  -15.7991   36.1571 C   0  0  0  0  0  0  0  0  0  0  0  0
   34.8726  -17.0078   36.0910 C   0  0  0  0  0  0  0  0  0  0  0  0
   34.0969  -18.1866   35.5754 C   0  0  0  0  0  0  0  0  0  0  0  0
   34.2594  -19.3474   36.1820 F   0  0  0  0  0  0  0  0  0  0  0  0
   34.2820  -18.3051   34.2290 F   0  0  0  0  0  0  0  0  0  0  0  0
   32.7229  -17.7680   35.6362 F   0  0  0  0  0  0  0  0  0  0  0  0
   34.2751  -13.4795   36.6903 C   0  0  0  0  0  0  0  0  0  0  0  0
   34.9073  -12.5217   36.0284 O   0  0  0  0  0  0  0  0  0  0  0  0
   33.0658  -13.2444   37.2066 N   0  0  0  0  0  0  0  0  0  0  0  0
   32.4654  -14.0923   37.6805 H   0  0  0  0  0  0  0  0  0  0  0  0
   32.2524  -12.0530   37.2152 C   0  0  0  0  0  0  0  0  0  0  0  0
   32.9168  -10.8524   37.2618 C   0  0  0  0  0  0  0  0  0  0  0  0
   32.2523   -9.6841   37.5576 C   0  0  0  0  0  0  0  0  0  0  0  0
   30.8775   -9.6682   37.8320 C   0  0  0  0  0  0  0  0  0  0  0  0
   30.1750   -8.4922   38.3316 C   0  0  0  0  0  0  0  0  0  0  0  0
   30.2317  -10.9182   37.7663 C   0  0  0  0  0  0  0  0  0  0  0  0
   30.8976  -12.0775   37.4656 C   0  0  0  0  0  0  0  0  0  0  0  0
   28.7858  -11.0233   38.1221 C   0  0  0  0  0  0  0  0  0  0  0  0
   27.9584  -11.3983   37.1220 F   0  0  0  0  0  0  0  0  0  0  0  0
   28.7633  -12.2007   39.0105 F   0  0  0  0  0  0  0  0  0  0  0  0
   28.3816  -10.0158   38.9396 F   0  0  0  0  0  0  0  0  0  0  0  0
   36.7595  -18.4821   36.1056 C   0  0  0  0  0  0  0  0  0  0  0  0
   41.3789  -18.8496   33.5091 C   0  0  0  0  0  0  0  0  0  0  0  0
   40.0160  -19.3395   33.6981 N   0  0  0  0  0  0  0  0  0  0  0  0
   39.0473  -18.3783   33.2912 C   0  0  0  0  0  0  0  0  0  0  0  0
   37.6934  -18.9208   33.8606 C   0  0  0  0  0  0  0  0  0  0  0  0
   37.7256  -18.6230   35.1741 N   0  0  0  0  0  0  0  0  0  0  0  0
   39.0044  -18.9754   35.8806 C   0  0  0  0  0  0  0  0  0  0  0  0
   39.8637  -19.8202   35.0536 C   0  0  0  0  0  0  0  0  0  0  0  0
 27 28  1  0  0  0
 28 29  1  0  0  0
 29 30  1  0  0  0
 30 31  1  0  0  0
 31 26  1  0  0  0
 26  1  1  0  0  0
  1  2  2  0  0  0
  2  3  1  0  0  0
  3  4  2  0  0  0
  4  5  1  0  0  0
  5  6  2  0  0  0
  6  7  1  0  0  0
  7  8  1  0  0  0
  7  9  1  0  0  0
  7 10  1  0  0  0
  4 11  1  0  0  0
 11 12  2  0  0  0
 11 13  1  0  0  0
 13 15  1  0  0  0
 15 16  2  0  0  0
 16 17  1  0  0  0
 17 18  2  0  0  0
 18 19  1  0  0  0
 18 20  1  0  0  0
 20 21  2  0  0  0
 20 22  1  0  0  0
 22 23  1  0  0  0
 22 24  1  0  0  0
 22 25  1  0  0  0
 31 32  1  0  0  0
 32 33  1  0  0  0
 33 28  1  0  0  0
  6  1  1  0  0  0
 21 15  1  0  0  0
 13 14  1  0  0  0
M  END
> <minimizedAffinity>
-8.90172

> <CNNscore>
0.3705045879

> <CNNaffinity>
5.6830363274

> <CNN_VS>
2.1055910587

> <CNNaffinity_variance>
0.2710533738

$$$$
[H]c1c([H])c(C([H])([H])N2C([H])([H])C([H])([H])N(C([H])([H])[H])C([H])([H])C2([H])[H])c(C(F)(F)F)c([H])c1C(=O)N([H])c1c([H])c([H])c(C([H])([H])[H])c(C(F)(F)F)c1[H]


 33 35  0  0  0  0  0  0  0  0999 V2000
   35.5814  -15.9093   36.1974 C   0  0  0  0  0  0  0  0  0  0  0  0
   34.2984  -15.8608   35.6444 C   0  0  0  0  0  0  0  0  0  0  0  0
   33.3931  -14.8448   36.0326 C   0  0  0  0  0  0  0  0  0  0  0  0
   33.7217  -13.8895   36.9342 C   0  0  0  0  0  0  0  0  0  0  0  0
   35.0136  -13.9215   37.4753 C   0  0  0  0  0  0  0  0  0  0  0  0
   35.8768  -14.8773   37.1173 C   0  0  0  0  0  0  0  0  0  0  0  0
   37.3174  -14.7992   37.5365 C   0  0  0  0  0  0  0  0  0  0  0  0
   38.0734  -15.8656   37.3548 F   0  0  0  0  0  0  0  0  0  0  0  0
   37.3981  -14.3525   38.8230 F   0  0  0  0  0  0  0  0  0  0  0  0
   37.8424  -13.6733   36.8129 F   0  0  0  0  0  0  0  0  0  0  0  0
   32.8752  -12.8762   37.5063 C   0  0  0  0  0  0  0  0  0  0  0  0
   32.9706  -12.6887   38.8143 O   0  0  0  0  0  0  0  0  0  0  0  0
   32.0235  -12.1386   36.7890 N   0  0  0  0  0  0  0  0  0  0  0  0
   32.0130  -12.2130   35.6495 H   0  0  0  0  0  0  0  0  0  0  0  0
   31.0887  -11.1138   37.1850 C   0  0  0  0  0  0  0  0  0  0  0  0
   31.5857   -9.8401   37.3103 C   0  0  0  0  0  0  0  0  0  0  0  0
   30.8646   -8.8558   37.9469 C   0  0  0  0  0  0  0  0  0  0  0  0
   29.6020   -9.1096   38.5007 C   0  0  0  0  0  0  0  0  0  0  0  0
   28.8909   -8.1546   39.3425 C   0  0  0  0  0  0  0  0  0  0  0  0
   29.1246  -10.4255   38.3442 C   0  0  0  0  0  0  0  0  0  0  0  0
   29.8448  -11.4001   37.7043 C   0  0  0  0  0  0  0  0  0  0  0  0
   27.8281  -10.8212   38.9690 C   0  0  0  0  0  0  0  0  0  0  0  0
   27.0049   -9.8062   39.3120 F   0  0  0  0  0  0  0  0  0  0  0  0
   27.1102  -11.4441   37.8410 F   0  0  0  0  0  0  0  0  0  0  0  0
   27.9711  -11.8497   39.8457 F   0  0  0  0  0  0  0  0  0  0  0  0
   36.4233  -17.0536   36.2812 C   0  0  0  0  0  0  0  0  0  0  0  0
   40.0173  -19.8726   33.5695 C   0  0  0  0  0  0  0  0  0  0  0  0
   38.6123  -19.6041   33.8645 N   0  0  0  0  0  0  0  0  0  0  0  0
   38.2069  -18.3247   33.3883 C   0  0  0  0  0  0  0  0  0  0  0  0
   36.8179  -18.0758   34.0666 C   0  0  0  0  0  0  0  0  0  0  0  0
   37.1089  -17.7296   35.3356 N   0  0  0  0  0  0  0  0  0  0  0  0
   38.1081  -18.6129   36.0285 C   0  0  0  0  0  0  0  0  0  0  0  0
   38.3656  -19.8357   35.2707 C   0  0  0  0  0  0  0  0  0  0  0  0
 27 28  1  0  0  0
 28 29  1  0  0  0
 29 30  1  0  0  0
 30 31  1  0  0  0
 31 26  1  0  0  0
 26  1  1  0  0  0
  1  2  2  0  0  0
  2  3  1  0  0  0
  3  4  2  0  0  0
  4  5  1  0  0  0
  5  6  2  0  0  0
  6  7  1  0  0  0
  7  8  1  0  0  0
  7  9  1  0  0  0
  7 10  1  0  0  0
  4 11  1  0  0  0
 11 12  2  0  0  0
 11 13  1  0  0  0
 13 15  1  0  0  0
 15 16  2  0  0  0
 16 17  1  0  0  0
 17 18  2  0  0  0
 18 19  1  0  0  0
 18 20  1  0  0  0
 20 21  2  0  0  0
 20 22  1  0  0  0
 22 23  1  0  0  0
 22 24  1  0  0  0
 22 25  1  0  0  0
 31 32  1  0  0  0
 32 33  1  0  0  0
 33 28  1  0  0  0
  6  1  1  0  0  0
 21 15  1  0  0  0
 13 14  1  0  0  0
M  END
> <minimizedAffinity>
-9.88376

> <CNNscore>
0.3519106507

> <CNNaffinity>
5.8277864456

> <CNN_VS>
2.0508601665

> <CNNaffinity_variance>
0.2537063956

$$$$
[H]c1c([H])c(C([H])([H])N2C([H])([H])C([H])([H])N(C([H])([H])[H])C([H])([H])C2([H])[H])c(C(F)(F)F)c([H])c1C(=O)N([H])c1c([H])c([H])c(C([H])([H])[H])c(C(F)(F)F)c1[H]


 33 35  0  0  0  0  0  0  0  0999 V2000
   36.0801  -18.3806   35.1449 C   0  0  0  0  0  0  0  0  0  0  0  0
   35.4325  -18.5096   33.9128 C   0  0  0  0  0  0  0  0  0  0  0  0
   34.2300  -19.2489   33.8137 C   0  0  0  0  0  0  0  0  0  0  0  0
   33.6597  -19.8487   34.8855 C   0  0  0  0  0  0  0  0  0  0  0  0
   34.2938  -19.7044   36.1264 C   0  0  0  0  0  0  0  0  0  0  0  0
   35.4308  -19.0096   36.2319 C   0  0  0  0  0  0  0  0  0  0  0  0
   36.0022  -18.6833   37.5825 C   0  0  0  0  0  0  0  0  0  0  0  0
   36.3191  -17.4269   37.8331 F   0  0  0  0  0  0  0  0  0  0  0  0
   37.0473  -19.5175   37.8530 F   0  0  0  0  0  0  0  0  0  0  0  0
   35.0150  -19.1555   38.5147 F   0  0  0  0  0  0  0  0  0  0  0  0
   32.5158  -20.7212   34.9134 C   0  0  0  0  0  0  0  0  0  0  0  0
   31.4135  -20.2776   34.3275 O   0  0  0  0  0  0  0  0  0  0  0  0
   32.5240  -21.9262   35.4896 N   0  0  0  0  0  0  0  0  0  0  0  0
   33.4962  -22.3643   35.8982 H   0  0  0  0  0  0  0  0  0  0  0  0
   31.4830  -22.9134   35.6407 C   0  0  0  0  0  0  0  0  0  0  0  0
   31.3279  -23.8091   34.6119 C   0  0  0  0  0  0  0  0  0  0  0  0
   30.2037  -24.5979   34.5204 C   0  0  0  0  0  0  0  0  0  0  0  0
   29.1686  -24.5164   35.4623 C   0  0  0  0  0  0  0  0  0  0  0  0
   27.8857  -25.1907   35.3016 C   0  0  0  0  0  0  0  0  0  0  0  0
   29.3696  -23.5918   36.5056 C   0  0  0  0  0  0  0  0  0  0  0  0
   30.4937  -22.8131   36.5947 C   0  0  0  0  0  0  0  0  0  0  0  0
   28.2918  -23.3685   37.5140 C   0  0  0  0  0  0  0  0  0  0  0  0
   27.9949  -24.4244   38.3030 F   0  0  0  0  0  0  0  0  0  0  0  0
   28.9323  -22.4358   38.4605 F   0  0  0  0  0  0  0  0  0  0  0  0
   27.2616  -22.6370   37.0139 F   0  0  0  0  0  0  0  0  0  0  0  0
   37.4581  -18.0899   35.3495 C   0  0  0  0  0  0  0  0  0  0  0  0
   41.4278  -20.9181   33.2377 C   0  0  0  0  0  0  0  0  0  0  0  0
   40.9931  -19.9170   34.2084 N   0  0  0  0  0  0  0  0  0  0  0  0
   40.1790  -20.4874   35.2280 C   0  0  0  0  0  0  0  0  0  0  0  0
   39.5488  -19.2559   35.9614 C   0  0  0  0  0  0  0  0  0  0  0  0
   38.5676  -18.8296   35.1425 N   0  0  0  0  0  0  0  0  0  0  0  0
   38.9525  -18.6952   33.6960 C   0  0  0  0  0  0  0  0  0  0  0  0
   40.3983  -18.7992   33.5095 C   0  0  0  0  0  0  0  0  0  0  0  0
 27 28  1  0  0  0
 28 29  1  0  0  0
 29 30  1  0  0  0
 30 31  1  0  0  0
 31 26  1  0  0  0
 26  1  1  0  0  0
  1  2  2  0  0  0
  2  3  1  0  0  0
  3  4  2  0  0  0
  4  5  1  0  0  0
  5  6  2  0  0  0
  6  7  1  0  0  0
  7  8  1  0  0  0
  7  9  1  0  0  0
  7 10  1  0  0  0
  4 11  1  0  0  0
 11 12  2  0  0  0
 11 13  1  0  0  0
 13 15  1  0  0  0
 15 16  2  0  0  0
 16 17  1  0  0  0
 17 18  2  0  0  0
 18 19  1  0  0  0
 18 20  1  0  0  0
 20 21  2  0  0  0
 20 22  1  0  0  0
 22 23  1  0  0  0
 22 24  1  0  0  0
 22 25  1  0  0  0
 31 32  1  0  0  0
 32 33  1  0  0  0
 33 28  1  0  0  0
  6  1  1  0  0  0
 21 15  1  0  0  0
 13 14  1  0  0  0
M  END
> <minimizedAffinity>
-6.03641

> <CNNscore>
0.3499176204

> <CNNaffinity>
4.9463996887

> <CNN_VS>
1.7308324575

> <CNNaffinity_variance>
0.1022071019

$$$$
[H]c1c([H])c(C([H])([H])N2C([H])([H])C([H])([H])N(C([H])([H])[H])C([H])([H])C2([H])[H])c(C(F)(F)F)c([H])c1C(=O)N([H])c1c([H])c([H])c(C([H])([H])[H])c(C(F)(F)F)c1[H]


 33 35  0  0  0  0  0  0  0  0999 V2000
   33.8467  -19.9322   36.4601 C   0  0  0  0  0  0  0  0  0  0  0  0
   34.1625  -20.3037   37.7702 C   0  0  0  0  0  0  0  0  0  0  0  0
   35.5140  -20.3838   38.1821 C   0  0  0  0  0  0  0  0  0  0  0  0
   36.5422  -20.1052   37.3462 C   0  0  0  0  0  0  0  0  0  0  0  0
   36.2301  -19.7119   36.0383 C   0  0  0  0  0  0  0  0  0  0  0  0
   34.9572  -19.6341   35.6376 C   0  0  0  0  0  0  0  0  0  0  0  0
   34.6123  -19.0225   34.3094 C   0  0  0  0  0  0  0  0  0  0  0  0
   33.9830  -19.7750   33.4264 F   0  0  0  0  0  0  0  0  0  0  0  0
   35.7245  -18.4504   33.7642 F   0  0  0  0  0  0  0  0  0  0  0  0
   33.8304  -17.8622   34.6394 F   0  0  0  0  0  0  0  0  0  0  0  0
   37.9525  -20.2563   37.5884 C   0  0  0  0  0  0  0  0  0  0  0  0
   38.3042  -20.7864   38.7505 O   0  0  0  0  0  0  0  0  0  0  0  0
   38.8923  -19.8943   36.7109 N   0  0  0  0  0  0  0  0  0  0  0  0
   38.6004  -19.5413   35.6649 H   0  0  0  0  0  0  0  0  0  0  0  0
   40.3320  -19.9411   36.7884 C   0  0  0  0  0  0  0  0  0  0  0  0
   40.9799  -18.7432   36.9621 C   0  0  0  0  0  0  0  0  0  0  0  0
   42.3380  -18.6354   36.7663 C   0  0  0  0  0  0  0  0  0  0  0  0
   43.1148  -19.7346   36.3743 C   0  0  0  0  0  0  0  0  0  0  0  0
   44.5129  -19.6245   35.9750 C   0  0  0  0  0  0  0  0  0  0  0  0
   42.4143  -20.9460   36.2145 C   0  0  0  0  0  0  0  0  0  0  0  0
   41.0627  -21.0486   36.4164 C   0  0  0  0  0  0  0  0  0  0  0  0
   43.1336  -22.1567   35.7197 C   0  0  0  0  0  0  0  0  0  0  0  0
   44.1190  -22.6240   36.5172 F   0  0  0  0  0  0  0  0  0  0  0  0
   42.1046  -23.2070   35.8387 F   0  0  0  0  0  0  0  0  0  0  0  0
   43.3663  -22.1071   34.3817 F   0  0  0  0  0  0  0  0  0  0  0  0
   32.6409  -20.2282   35.7646 C   0  0  0  0  0  0  0  0  0  0  0  0
   29.5606  -24.5503   35.9834 C   0  0  0  0  0  0  0  0  0  0  0  0
   30.1464  -23.4799   35.1807 N   0  0  0  0  0  0  0  0  0  0  0  0
   31.5586  -23.6196   35.0625 C   0  0  0  0  0  0  0  0  0  0  0  0
   32.0406  -22.2498   34.4770 C   0  0  0  0  0  0  0  0  0  0  0  0
   32.0144  -21.3984   35.5207 N   0  0  0  0  0  0  0  0  0  0  0  0
   30.7594  -21.4343   36.3467 C   0  0  0  0  0  0  0  0  0  0  0  0
   29.7024  -22.2013   35.6906 C   0  0  0  0  0  0  0  0  0  0  0  0
 27 28  1  0  0  0
 28 29  1  0  0  0
 29 30  1  0  0  0
 30 31  1  0  0  0
 31 26  1  0  0  0
 26  1  1  0  0  0
  1  2  2  0  0  0
  2  3  1  0  0  0
  3  4  2  0  0  0
  4  5  1  0  0  0
  5  6  2  0  0  0
  6  7  1  0  0  0
  7  8  1  0  0  0
  7  9  1  0  0  0
  7 10  1  0  0  0
  4 11  1  0  0  0
 11 12  2  0  0  0
 11 13  1  0  0  0
 13 15  1  0  0  0
 15 16  2  0  0  0
 16 17  1  0  0  0
 17 18  2  0  0  0
 18 19  1  0  0  0
 18 20  1  0  0  0
 20 21  2  0  0  0
 20 22  1  0  0  0
 22 23  1  0  0  0
 22 24  1  0  0  0
 22 25  1  0  0  0
 31 32  1  0  0  0
 32 33  1  0  0  0
 33 28  1  0  0  0
  6  1  1  0  0  0
 21 15  1  0  0  0
 13 14  1  0  0  0
M  END
> <minimizedAffinity>
-5.19458

> <CNNscore>
0.3355839252

> <CNNaffinity>
4.7658729553

> <CNN_VS>
1.5993503332

> <CNNaffinity_variance>
0.2008538991

$$$$
[H]c1c([H])c(C([H])([H])N2C([H])([H])C([H])([H])N(C([H])([H])[H])C([H])([H])C2([H])[H])c(C(F)(F)F)c([H])c1C(=O)N([H])c1c([H])c([H])c(C([H])([H])[H])c(C(F)(F)F)c1[H]


 33 35  0  0  0  0  0  0  0  0999 V2000
   40.6042  -20.0659   37.3078 C   0  0  0  0  0  0  0  0  0  0  0  0
   40.1102  -19.0545   36.4788 C   0  0  0  0  0  0  0  0  0  0  0  0
   38.7269  -18.7564   36.4650 C   0  0  0  0  0  0  0  0  0  0  0  0
   37.8369  -19.4189   37.2413 C   0  0  0  0  0  0  0  0  0  0  0  0
   38.3301  -20.4189   38.0894 C   0  0  0  0  0  0  0  0  0  0  0  0
   39.6346  -20.7102   38.1099 C   0  0  0  0  0  0  0  0  0  0  0  0
   40.1931  -21.6333   39.1554 C   0  0  0  0  0  0  0  0  0  0  0  0
   40.8474  -22.7049   38.7488 F   0  0  0  0  0  0  0  0  0  0  0  0
   39.2146  -21.9634   40.0470 F   0  0  0  0  0  0  0  0  0  0  0  0
   41.0387  -20.7952   39.9611 F   0  0  0  0  0  0  0  0  0  0  0  0
   36.4024  -19.3061   37.2458 C   0  0  0  0  0  0  0  0  0  0  0  0
   35.8968  -18.1498   37.6489 O   0  0  0  0  0  0  0  0  0  0  0  0
   35.5860  -20.2936   36.8686 N   0  0  0  0  0  0  0  0  0  0  0  0
   36.0100  -21.2520   36.4149 H   0  0  0  0  0  0  0  0  0  0  0  0
   34.1461  -20.3742   36.8342 C   0  0  0  0  0  0  0  0  0  0  0  0
   33.5701  -21.4208   37.5109 C   0  0  0  0  0  0  0  0  0  0  0  0
   32.2496  -21.7542   37.3123 C   0  0  0  0  0  0  0  0  0  0  0  0
   31.4405  -21.0506   36.4091 C   0  0  0  0  0  0  0  0  0  0  0  0
   30.1010  -21.4841   36.0297 C   0  0  0  0  0  0  0  0  0  0  0  0
   32.0663  -19.9800   35.7413 C   0  0  0  0  0  0  0  0  0  0  0  0
   33.3801  -19.6491   35.9474 C   0  0  0  0  0  0  0  0  0  0  0  0
   31.3168  -19.2192   34.6984 C   0  0  0  0  0  0  0  0  0  0  0  0
   30.1258  -18.7097   35.0824 F   0  0  0  0  0  0  0  0  0  0  0  0
   32.1423  -18.0076   34.5360 F   0  0  0  0  0  0  0  0  0  0  0  0
   31.3938  -19.8078   33.4760 F   0  0  0  0  0  0  0  0  0  0  0  0
   41.8187  -20.7863   37.1311 C   0  0  0  0  0  0  0  0  0  0  0  0
   42.6154  -24.1264   33.0782 C   0  0  0  0  0  0  0  0  0  0  0  0
   42.7110  -22.7687   33.6082 N   0  0  0  0  0  0  0  0  0  0  0  0
   43.6760  -22.6749   34.6512 C   0  0  0  0  0  0  0  0  0  0  0  0
   43.4106  -21.2778   35.3064 C   0  0  0  0  0  0  0  0  0  0  0  0
   42.3142  -21.4553   36.0689 N   0  0  0  0  0  0  0  0  0  0  0  0
   41.1757  -22.1717   35.3987 C   0  0  0  0  0  0  0  0  0  0  0  0
   41.3893  -22.2973   33.9584 C   0  0  0  0  0  0  0  0  0  0  0  0
 27 28  1  0  0  0
 28 29  1  0  0  0
 29 30  1  0  0  0
 30 31  1  0  0  0
 31 26  1  0  0  0
 26  1  1  0  0  0
  1  2  2  0  0  0
  2  3  1  0  0  0
  3  4  2  0  0  0
  4  5  1  0  0  0
  5  6  2  0  0  0
  6  7  1  0  0  0
  7  8  1  0  0  0
  7  9  1  0  0  0
  7 10  1  0  0  0
  4 11  1  0  0  0
 11 12  2  0  0  0
 11 13  1  0  0  0
 13 15  1  0  0  0
 15 16  2  0  0  0
 16 17  1  0  0  0
 17 18  2  0  0  0
 18 19  1  0  0  0
 18 20  1  0  0  0
 20 21  2  0  0  0
 20 22  1  0  0  0
 22 23  1  0  0  0
 22 24  1  0  0  0
 22 25  1  0  0  0
 31 32  1  0  0  0
 32 33  1  0  0  0
 33 28  1  0  0  0
  6  1  1  0  0  0
 21 15  1  0  0  0
 13 14  1  0  0  0
M  END
> <minimizedAffinity>
-5.36139

> <CNNscore>
0.3285244703

> <CNNaffinity>
4.5854396820

> <CNN_VS>
1.5064291954

> <CNNaffinity_variance>
0.1883207560

$$$$
[H]c1c([H])c(C([H])([H])N2C([H])([H])C([H])([H])N(C([H])([H])[H])C([H])([H])C2([H])[H])c(C(F)(F)F)c([H])c1C(=O)N([H])c1c([H])c([H])c(C([H])([H])[H])c(C(F)(F)F)c1[H]


 33 35  0  0  0  0  0  0  0  0999 V2000
   35.1279  -14.8026   36.4082 C   0  0  0  0  0  0  0  0  0  0  0  0
   34.4241  -15.9709   36.1019 C   0  0  0  0  0  0  0  0  0  0  0  0
   35.0881  -17.2205   36.0899 C   0  0  0  0  0  0  0  0  0  0  0  0
   36.4066  -17.3412   36.3736 C   0  0  0  0  0  0  0  0  0  0  0  0
   37.1116  -16.1759   36.7019 C   0  0  0  0  0  0  0  0  0  0  0  0
   36.4952  -14.9898   36.7150 C   0  0  0  0  0  0  0  0  0  0  0  0
   37.1917  -13.7749   37.2591 C   0  0  0  0  0  0  0  0  0  0  0  0
   37.0767  -12.6437   36.5890 F   0  0  0  0  0  0  0  0  0  0  0  0
   38.5006  -14.0684   37.5077 F   0  0  0  0  0  0  0  0  0  0  0  0
   36.6758  -13.6314   38.5932 F   0  0  0  0  0  0  0  0  0  0  0  0
   37.2322  -18.5165   36.2861 C   0  0  0  0  0  0  0  0  0  0  0  0
   37.9228  -18.6778   35.1671 O   0  0  0  0  0  0  0  0  0  0  0  0
   37.3265  -19.4232   37.2624 N   0  0  0  0  0  0  0  0  0  0  0  0
   36.8253  -19.2391   38.2719 H   0  0  0  0  0  0  0  0  0  0  0  0
   38.0669  -20.6587   37.3424 C   0  0  0  0  0  0  0  0  0  0  0  0
   37.4227  -21.7930   36.9144 C   0  0  0  0  0  0  0  0  0  0  0  0
   37.9177  -23.0437   37.2059 C   0  0  0  0  0  0  0  0  0  0  0  0
   39.0896  -23.2152   37.9561 C   0  0  0  0  0  0  0  0  0  0  0  0
   39.5435  -24.5115   38.4458 C   0  0  0  0  0  0  0  0  0  0  0  0
   39.7242  -22.0276   38.3693 C   0  0  0  0  0  0  0  0  0  0  0  0
   39.2296  -20.7848   38.0711 C   0  0  0  0  0  0  0  0  0  0  0  0
   40.9326  -22.1000   39.2426 C   0  0  0  0  0  0  0  0  0  0  0  0
   42.0351  -22.6416   38.6798 F   0  0  0  0  0  0  0  0  0  0  0  0
   41.3107  -20.6806   39.3779 F   0  0  0  0  0  0  0  0  0  0  0  0
   40.6266  -22.4577   40.5173 F   0  0  0  0  0  0  0  0  0  0  0  0
   34.7669  -13.4765   36.0387 C   0  0  0  0  0  0  0  0  0  0  0  0
   30.7151  -10.3159   37.3840 C   0  0  0  0  0  0  0  0  0  0  0  0
   31.7999  -11.1966   37.8094 N   0  0  0  0  0  0  0  0  0  0  0  0
   33.0780  -10.6334   37.5320 C   0  0  0  0  0  0  0  0  0  0  0  0
   34.0814  -11.8178   37.7368 C   0  0  0  0  0  0  0  0  0  0  0  0
   33.9556  -12.5741   36.6290 N   0  0  0  0  0  0  0  0  0  0  0  0
   32.5428  -12.8811   36.2188 C   0  0  0  0  0  0  0  0  0  0  0  0
   31.5861  -12.5183   37.2623 C   0  0  0  0  0  0  0  0  0  0  0  0
 27 28  1  0  0  0
 28 29  1  0  0  0
 29 30  1  0  0  0
 30 31  1  0  0  0
 31 26  1  0  0  0
 26  1  1  0  0  0
  1  2  2  0  0  0
  2  3  1  0  0  0
  3  4  2  0  0  0
  4  5  1  0  0  0
  5  6  2  0  0  0
  6  7  1  0  0  0
  7  8  1  0  0  0
  7  9  1  0  0  0
  7 10  1  0  0  0
  4 11  1  0  0  0
 11 12  2  0  0  0
 11 13  1  0  0  0
 13 15  1  0  0  0
 15 16  2  0  0  0
 16 17  1  0  0  0
 17 18  2  0  0  0
 18 19  1  0  0  0
 18 20  1  0  0  0
 20 21  2  0  0  0
 20 22  1  0  0  0
 22 23  1  0  0  0
 22 24  1  0  0  0
 22 25  1  0  0  0
 31 32  1  0  0  0
 32 33  1  0  0  0
 33 28  1  0  0  0
  6  1  1  0  0  0
 21 15  1  0  0  0
 13 14  1  0  0  0
M  END
> <minimizedAffinity>
-6.06890

> <CNNscore>
0.3080534637

> <CNNaffinity>
5.6467056274

> <CNN_VS>
1.7394871712

> <CNNaffinity_variance>
0.1552494466

$$$$
[H]c1c([H])c(C([H])([H])N2C([H])([H])C([H])([H])N(C([H])([H])[H])C([H])([H])C2([H])[H])c(C(F)(F)F)c([H])c1C(=O)N([H])c1c([H])c([H])c(C([H])([H])[H])c(C(F)(F)F)c1[H]


 33 35  0  0  0  0  0  0  0  0999 V2000
   34.9980  -14.8050   36.4042 C   0  0  0  0  0  0  0  0  0  0  0  0
   34.1990  -15.8763   35.9940 C   0  0  0  0  0  0  0  0  0  0  0  0
   34.7473  -17.1771   35.8947 C   0  0  0  0  0  0  0  0  0  0  0  0
   36.0420  -17.4405   36.1909 C   0  0  0  0  0  0  0  0  0  0  0  0
   36.8413  -16.3739   36.6228 C   0  0  0  0  0  0  0  0  0  0  0  0
   36.3347  -15.1407   36.7190 C   0  0  0  0  0  0  0  0  0  0  0  0
   37.1247  -14.0409   37.3698 C   0  0  0  0  0  0  0  0  0  0  0  0
   38.3958  -14.2696   37.6417 F   0  0  0  0  0  0  0  0  0  0  0  0
   36.4599  -13.5875   38.4715 F   0  0  0  0  0  0  0  0  0  0  0  0
   36.9880  -12.9225   36.4769 F   0  0  0  0  0  0  0  0  0  0  0  0
   36.7597  -18.6766   36.0250 C   0  0  0  0  0  0  0  0  0  0  0  0
   36.3281  -19.4934   35.0754 O   0  0  0  0  0  0  0  0  0  0  0  0
   37.8141  -19.0203   36.7694 N   0  0  0  0  0  0  0  0  0  0  0  0
   38.2625  -18.2786   37.5129 H   0  0  0  0  0  0  0  0  0  0  0  0
   38.6292  -20.2105   36.7687 C   0  0  0  0  0  0  0  0  0  0  0  0
   39.6852  -20.2348   35.8917 C   0  0  0  0  0  0  0  0  0  0  0  0
   40.3450  -21.4086   35.6069 C   0  0  0  0  0  0  0  0  0  0  0  0
   39.9653  -22.6264   36.1885 C   0  0  0  0  0  0  0  0  0  0  0  0
   40.5092  -23.9146   35.7749 C   0  0  0  0  0  0  0  0  0  0  0  0
   38.8834  -22.5576   37.0878 C   0  0  0  0  0  0  0  0  0  0  0  0
   38.2340  -21.3848   37.3719 C   0  0  0  0  0  0  0  0  0  0  0  0
   38.3478  -23.8102   37.6979 C   0  0  0  0  0  0  0  0  0  0  0  0
   39.1813  -24.4586   38.5407 F   0  0  0  0  0  0  0  0  0  0  0  0
   37.3088  -23.2983   38.6113 F   0  0  0  0  0  0  0  0  0  0  0  0
   37.6355  -24.5523   36.8098 F   0  0  0  0  0  0  0  0  0  0  0  0
   34.7678  -13.4268   36.1347 C   0  0  0  0  0  0  0  0  0  0  0  0
   30.6327  -10.3355   37.3846 C   0  0  0  0  0  0  0  0  0  0  0  0
   31.7316  -11.1854   37.8359 N   0  0  0  0  0  0  0  0  0  0  0  0
   33.0002  -10.5986   37.5640 C   0  0  0  0  0  0  0  0  0  0  0  0
   34.0267  -11.7573   37.7986 C   0  0  0  0  0  0  0  0  0  0  0  0
   33.9302  -12.5333   36.7016 N   0  0  0  0  0  0  0  0  0  0  0  0
   32.5293  -12.8777   36.2805 C   0  0  0  0  0  0  0  0  0  0  0  0
   31.5529  -12.5198   37.3074 C   0  0  0  0  0  0  0  0  0  0  0  0
 27 28  1  0  0  0
 28 29  1  0  0  0
 29 30  1  0  0  0
 30 31  1  0  0  0
 31 26  1  0  0  0
 26  1  1  0  0  0
  1  2  2  0  0  0
  2  3  1  0  0  0
  3  4  2  0  0  0
  4  5  1  0  0  0
  5  6  2  0  0  0
  6  7  1  0  0  0
  7  8  1  0  0  0
  7  9  1  0  0  0
  7 10  1  0  0  0
  4 11  1  0  0  0
 11 12  2  0  0  0
 11 13  1  0  0  0
 13 15  1  0  0  0
 15 16  2  0  0  0
 16 17  1  0  0  0
 17 18  2  0  0  0
 18 19  1  0  0  0
 18 20  1  0  0  0
 20 21  2  0  0  0
 20 22  1  0  0  0
 22 23  1  0  0  0
 22 24  1  0  0  0
 22 25  1  0  0  0
 31 32  1  0  0  0
 32 33  1  0  0  0
 33 28  1  0  0  0
  6  1  1  0  0  0
 21 15  1  0  0  0
 13 14  1  0  0  0
M  END
> <minimizedAffinity>
-6.08530

> <CNNscore>
0.2880449891

> <CNNaffinity>
5.6619744301

> <CNN_VS>
1.6309033632

> <CNNaffinity_variance>
0.2653182447

$$$$
[H]c1c([H])c(C([H])([H])N2C([H])([H])C([H])([H])N(C([H])([H])[H])C([H])([H])C2([H])[H])c(C(F)(F)F)c([H])c1C(=O)N([H])c1c([H])c([H])c(C([H])([H])[H])c(C(F)(F)F)c1[H]


 33 35  0  0  0  0  0  0  0  0999 V2000
   36.3419  -17.3434   35.7936 C   0  0  0  0  0  0  0  0  0  0  0  0
   37.0339  -16.5633   36.7245 C   0  0  0  0  0  0  0  0  0  0  0  0
   36.4297  -15.4087   37.2762 C   0  0  0  0  0  0  0  0  0  0  0  0
   35.1780  -15.0168   36.9395 C   0  0  0  0  0  0  0  0  0  0  0  0
   34.4725  -15.8073   36.0229 C   0  0  0  0  0  0  0  0  0  0  0  0
   35.0336  -16.8993   35.4941 C   0  0  0  0  0  0  0  0  0  0  0  0
   34.2155  -17.8550   34.6729 C   0  0  0  0  0  0  0  0  0  0  0  0
   34.6853  -18.2166   33.4938 F   0  0  0  0  0  0  0  0  0  0  0  0
   32.9351  -17.3947   34.5721 F   0  0  0  0  0  0  0  0  0  0  0  0
   34.0381  -19.0001   35.5237 F   0  0  0  0  0  0  0  0  0  0  0  0
   34.4875  -13.8147   37.3251 C   0  0  0  0  0  0  0  0  0  0  0  0
   35.2128  -12.7087   37.3999 O   0  0  0  0  0  0  0  0  0  0  0  0
   33.1812  -13.7733   37.6007 N   0  0  0  0  0  0  0  0  0  0  0  0
   32.5259  -14.6932   37.4320 H   0  0  0  0  0  0  0  0  0  0  0  0
   32.3345  -12.6853   38.0253 C   0  0  0  0  0  0  0  0  0  0  0  0
   31.1226  -13.0243   38.5743 C   0  0  0  0  0  0  0  0  0  0  0  0
   30.1333  -12.0833   38.7476 C   0  0  0  0  0  0  0  0  0  0  0  0
   30.3136  -10.7466   38.3654 C   0  0  0  0  0  0  0  0  0  0  0  0
   29.2353   -9.7650   38.3555 C   0  0  0  0  0  0  0  0  0  0  0  0
   31.5724  -10.4382   37.8139 C   0  0  0  0  0  0  0  0  0  0  0  0
   32.5558  -11.3783   37.6491 C   0  0  0  0  0  0  0  0  0  0  0  0
   31.8373   -9.0624   37.2989 C   0  0  0  0  0  0  0  0  0  0  0  0
   31.5567   -8.0505   38.1491 F   0  0  0  0  0  0  0  0  0  0  0  0
   33.3106   -9.0256   37.2377 F   0  0  0  0  0  0  0  0  0  0  0  0
   31.4737   -8.9205   35.9972 F   0  0  0  0  0  0  0  0  0  0  0  0
   36.9167  -18.2229   34.8337 C   0  0  0  0  0  0  0  0  0  0  0  0
   41.2960  -21.1357   35.5784 C   0  0  0  0  0  0  0  0  0  0  0  0
   40.3503  -20.5276   34.6460 N   0  0  0  0  0  0  0  0  0  0  0  0
   40.4319  -19.1060   34.6619 C   0  0  0  0  0  0  0  0  0  0  0  0
   39.1599  -18.6315   33.8819 C   0  0  0  0  0  0  0  0  0  0  0  0
   38.1435  -18.7795   34.7536 N   0  0  0  0  0  0  0  0  0  0  0  0
   38.1039  -20.0971   35.4753 C   0  0  0  0  0  0  0  0  0  0  0  0
   39.0288  -21.0636   34.8868 C   0  0  0  0  0  0  0  0  0  0  0  0
 27 28  1  0  0  0
 28 29  1  0  0  0
 29 30  1  0  0  0
 30 31  1  0  0  0
 31 26  1  0  0  0
 26  1  1  0  0  0
  1  2  2  0  0  0
  2  3  1  0  0  0
  3  4  2  0  0  0
  4  5  1  0  0  0
  5  6  2  0  0  0
  6  7  1  0  0  0
  7  8  1  0  0  0
  7  9  1  0  0  0
  7 10  1  0  0  0
  4 11  1  0  0  0
 11 12  2  0  0  0
 11 13  1  0  0  0
 13 15  1  0  0  0
 15 16  2  0  0  0
 16 17  1  0  0  0
 17 18  2  0  0  0
 18 19  1  0  0  0
 18 20  1  0  0  0
 20 21  2  0  0  0
 20 22  1  0  0  0
 22 23  1  0  0  0
 22 24  1  0  0  0
 22 25  1  0  0  0
 31 32  1  0  0  0
 32 33  1  0  0  0
 33 28  1  0  0  0
  6  1  1  0  0  0
 21 15  1  0  0  0
 13 14  1  0  0  0
M  END
> <minimizedAffinity>
-8.47982

> <CNNscore>
0.2850311697

> <CNNaffinity>
5.3557806015

> <CNN_VS>
1.5265643597

> <CNNaffinity_variance>
0.3531336486

$$$$
[H]Oc1c([H])c([H])c(C([H])([H])[C@@]([H])(C(=O)N2C([H])([H])C([H])([H])C([H])([H])[C@@]2([H])C(=O)N([H])C([H])([H])C(=O)N([H])[C@]([H])(C(=O)N([H])[C@]([H])(C(=O)N([H])[C@]([H])(C(=O)N([H])[H])C([H])([H])c2c([H])n([H])c3c([H])c([H])c([H])c([H])c23)C([H])([H])C([H])(C([H])([H])[H])C([H])([H])[H])C([H])([H])c2c([H])c([H])c([H])c([H])c2[H])N([H])[H])c([H])c1[H]


 67 71  0  0  0  0  0  0  0  0999 V2000
   32.7595  -11.4856   37.1731 C   0  0  0  0  0  0  0  0  0  0  0  0
   31.8028  -11.9309   38.2014 N   0  0  0  0  0  0  0  0  0  0  0  0
   30.4046  -11.7883   38.1387 C   0  0  0  0  0  0  0  0  0  0  0  0
   29.8591  -11.2452   37.1656 O   0  0  0  0  0  0  0  0  0  0  0  0
   32.2256  -12.3822   39.0612 H   0  0  0  0  0  0  0  0  0  0  0  0
   29.4991  -12.2593   39.2327 C   0  0  0  0  0  0  0  0  0  0  0  0
   28.1824  -11.5891   39.0879 N   0  0  0  0  0  0  0  0  0  0  0  0
   27.4362  -11.3880   40.3090 C   0  0  0  0  0  0  0  0  0  0  0  0
   27.9478  -11.8342   41.4014 O   0  0  0  0  0  0  0  0  0  0  0  0
   27.8919  -11.3100   38.1555 H   0  0  0  0  0  0  0  0  0  0  0  0
   26.1622  -10.7189   40.3727 C   0  0  0  0  0  0  0  0  0  0  0  0
   26.1647   -9.5338   39.3285 C   0  0  0  0  0  0  0  0  0  0  0  0
   26.9237   -8.4539   40.0733 C   0  0  0  0  0  0  0  0  0  0  0  0
   26.7363   -8.7725   41.5297 C   0  0  0  0  0  0  0  0  0  0  0  0
   25.8823   -9.9191   41.5392 N   0  0  0  0  0  0  0  0  0  0  0  0
   24.8859  -10.2525   42.5070 C   0  0  0  0  0  0  0  0  0  0  0  0
   24.2087  -11.3260   42.3300 O   0  0  0  0  0  0  0  0  0  0  0  0
   24.5594   -9.4696   43.6974 C   0  0  0  0  0  0  0  0  0  0  0  0
   23.2473   -8.8975   43.5727 N   0  0  0  0  0  0  0  0  0  0  0  0
   22.9097   -8.8317   42.6039 H   0  0  0  0  0  0  0  0  0  0  0  0
   23.2449   -7.9477   43.9950 H   0  0  0  0  0  0  0  0  0  0  0  0
   24.5056  -10.4203   44.9161 C   0  0  0  0  0  0  0  0  0  0  0  0
   25.9203  -10.8212   45.2498 C   0  0  0  0  0  0  0  0  0  0  0  0
   26.8058   -9.8347   45.6421 C   0  0  0  0  0  0  0  0  0  0  0  0
   28.1081  -10.2298   45.9059 C   0  0  0  0  0  0  0  0  0  0  0  0
   28.5000  -11.5545   45.7822 C   0  0  0  0  0  0  0  0  0  0  0  0
   29.8308  -11.8638   46.0624 O   0  0  0  0  0  0  0  0  0  0  0  0
   27.6060  -12.4906   45.3977 C   0  0  0  0  0  0  0  0  0  0  0  0
   26.2777  -12.1211   45.1231 C   0  0  0  0  0  0  0  0  0  0  0  0
   30.1058  -12.8372   45.9623 H   0  0  0  0  0  0  0  0  0  0  0  0
   33.5959  -13.9127   37.0762 N   0  0  0  0  0  0  0  0  0  0  0  0
   33.7085  -12.5517   36.8896 C   0  0  0  0  0  0  0  0  0  0  0  0
   34.8376  -12.1495   36.3813 O   0  0  0  0  0  0  0  0  0  0  0  0
   32.7904  -14.3834   37.4755 H   0  0  0  0  0  0  0  0  0  0  0  0
   34.7748  -14.8105   36.6655 C   0  0  0  0  0  0  0  0  0  0  0  0
   34.2012  -15.9059   35.9067 C   0  0  0  0  0  0  0  0  0  0  0  0
   33.3646  -15.5914   34.9771 O   0  0  0  0  0  0  0  0  0  0  0  0
   34.4924  -17.2692   36.0770 N   0  0  0  0  0  0  0  0  0  0  0  0
   35.1390  -17.5085   36.8586 H   0  0  0  0  0  0  0  0  0  0  0  0
   33.9988  -18.3705   35.2753 C   0  0  0  0  0  0  0  0  0  0  0  0
   32.6658  -18.7937   35.6688 C   0  0  0  0  0  0  0  0  0  0  0  0
   31.5154  -18.2736   34.9749 N   0  0  0  0  0  0  0  0  0  0  0  0
   32.4973  -19.5998   36.6045 O   0  0  0  0  0  0  0  0  0  0  0  0
   30.8182  -18.9207   34.6086 H   0  0  0  0  0  0  0  0  0  0  0  0
   31.4036  -17.2525   34.8485 H   0  0  0  0  0  0  0  0  0  0  0  0
   35.0404  -19.4590   35.2117 C   0  0  0  0  0  0  0  0  0  0  0  0
   36.4250  -19.0976   35.0899 C   0  0  0  0  0  0  0  0  0  0  0  0
   36.9441  -18.3857   34.0156 C   0  0  0  0  0  0  0  0  0  0  0  0
   38.2604  -18.2556   34.1378 N   0  0  0  0  0  0  0  0  0  0  0  0
   38.6131  -18.8802   35.2952 C   0  0  0  0  0  0  0  0  0  0  0  0
   39.8780  -19.0281   35.8728 C   0  0  0  0  0  0  0  0  0  0  0  0
   39.9904  -19.7117   37.0657 C   0  0  0  0  0  0  0  0  0  0  0  0
   38.8687  -20.2302   37.6560 C   0  0  0  0  0  0  0  0  0  0  0  0
   37.6088  -20.0987   37.1058 C   0  0  0  0  0  0  0  0  0  0  0  0
   37.4969  -19.4095   35.9059 C   0  0  0  0  0  0  0  0  0  0  0  0
   38.9348  -17.7785   33.4975 H   0  0  0  0  0  0  0  0  0  0  0  0
   35.5691  -14.9818   37.8771 C   0  0  0  0  0  0  0  0  0  0  0  0
   37.5882  -15.9997   37.0473 C   0  0  0  0  0  0  0  0  0  0  0  0
   37.0260  -14.8427   37.9228 C   0  0  0  0  0  0  0  0  0  0  0  0
   37.6346  -13.5781   37.4343 C   0  0  0  0  0  0  0  0  0  0  0  0
   33.4801  -10.2537   37.7873 C   0  0  0  0  0  0  0  0  0  0  0  0
   33.6082   -9.1104   36.8882 C   0  0  0  0  0  0  0  0  0  0  0  0
   32.5128   -8.3883   36.4767 C   0  0  0  0  0  0  0  0  0  0  0  0
   32.6610   -7.3133   35.5916 C   0  0  0  0  0  0  0  0  0  0  0  0
   33.8937   -6.9454   35.1074 C   0  0  0  0  0  0  0  0  0  0  0  0
   34.9972   -7.6724   35.5223 C   0  0  0  0  0  0  0  0  0  0  0  0
   34.8221   -8.7132   36.3848 C   0  0  0  0  0  0  0  0  0  0  0  0
 58 59  1  0  0  0
 59 60  1  0  0  0
 59 57  1  0  0  0
 57 35  1  0  0  0
 35 31  1  0  0  0
 31 32  1  0  0  0
 32 33  2  0  0  0
 32  1  1  0  0  0
  1 61  1  0  0  0
 61 62  1  0  0  0
 62 63  2  0  0  0
 63 64  1  0  0  0
 64 65  2  0  0  0
 65 66  1  0  0  0
 66 67  2  0  0  0
  1  2  1  0  0  0
  2  3  1  0  0  0
  3  4  2  0  0  0
  3  6  1  0  0  0
  6  7  1  0  0  0
  7  8  1  0  0  0
  8  9  2  0  0  0
  8 11  1  0  0  0
 11 12  1  0  0  0
 12 13  1  0  0  0
 13 14  1  0  0  0
 14 15  1  0  0  0
 15 16  1  0  0  0
 16 17  2  0  0  0
 16 18  1  0  0  0
 18 19  1  0  0  0
 18 22  1  0  0  0
 22 23  1  0  0  0
 23 24  2  0  0  0
 24 25  1  0  0  0
 25 26  2  0  0  0
 26 27  1  0  0  0
 26 28  1  0  0  0
 28 29  2  0  0  0
 35 36  1  0  0  0
 36 37  2  0  0  0
 36 38  1  0  0  0
 38 40  1  0  0  0
 40 46  1  0  0  0
 46 47  1  0  0  0
 47 48  2  0  0  0
 48 49  1  0  0  0
 49 50  1  0  0  0
 50 51  2  0  0  0
 51 52  1  0  0  0
 52 53  2  0  0  0
 53 54  1  0  0  0
 54 55  2  0  0  0
 40 41  1  0  0  0
 41 42  1  0  0  0
 41 43  2  0  0  0
 67 62  1  0  0  0
 15 11  1  0  0  0
 29 23  1  0  0  0
 55 47  1  0  0  0
 55 50  1  0  0  0
 31 34  1  0  0  0
  2  5  1  0  0  0
  7 10  1  0  0  0
 19 20  1  0  0  0
 19 21  1  0  0  0
 27 30  1  0  0  0
 38 39  1  0  0  0
 49 56  1  0  0  0
 42 44  1  0  0  0
 42 45  1  0  0  0
M  END
> <minimizedAffinity>
-9.65511

> <CNNscore>
0.5783170462

> <CNNaffinity>
8.0193452835

> <CNN_VS>
4.6377239227

> <CNNaffinity_variance>
0.0608073063

$$$$
[H]Oc1c([H])c([H])c(C([H])([H])[C@@]([H])(C(=O)N2C([H])([H])C([H])([H])C([H])([H])[C@@]2([H])C(=O)N([H])C([H])([H])C(=O)N([H])[C@]([H])(C(=O)N([H])[C@]([H])(C(=O)N([H])[C@]([H])(C(=O)N([H])[H])C([H])([H])c2c([H])n([H])c3c([H])c([H])c([H])c([H])c23)C([H])([H])C([H])(C([H])([H])[H])C([H])([H])[H])C([H])([H])c2c([H])c([H])c([H])c([H])c2[H])N([H])[H])c([H])c1[H]


 67 71  0  0  0  0  0  0  0  0999 V2000
   31.8311  -11.1124   38.0080 C   0  0  0  0  0  0  0  0  0  0  0  0
   32.4160  -11.8685   36.8867 N   0  0  0  0  0  0  0  0  0  0  0  0
   33.2288  -13.0109   37.0023 C   0  0  0  0  0  0  0  0  0  0  0  0
   33.5257  -13.4761   38.1137 O   0  0  0  0  0  0  0  0  0  0  0  0
   32.2061  -11.4949   35.9182 H   0  0  0  0  0  0  0  0  0  0  0  0
   33.7944  -13.7185   35.8115 C   0  0  0  0  0  0  0  0  0  0  0  0
   33.7624  -15.1813   36.0624 N   0  0  0  0  0  0  0  0  0  0  0  0
   35.0381  -15.8591   36.0227 C   0  0  0  0  0  0  0  0  0  0  0  0
   36.0780  -15.1575   35.7389 O   0  0  0  0  0  0  0  0  0  0  0  0
   32.8615  -15.6109   36.2508 H   0  0  0  0  0  0  0  0  0  0  0  0
   35.2110  -17.2651   36.2834 C   0  0  0  0  0  0  0  0  0  0  0  0
   36.7248  -17.6398   36.0331 C   0  0  0  0  0  0  0  0  0  0  0  0
   36.7752  -17.7733   34.5243 C   0  0  0  0  0  0  0  0  0  0  0  0
   35.3699  -18.1070   34.1102 C   0  0  0  0  0  0  0  0  0  0  0  0
   34.6453  -18.1966   35.3394 N   0  0  0  0  0  0  0  0  0  0  0  0
   33.5506  -19.0632   35.6416 C   0  0  0  0  0  0  0  0  0  0  0  0
   33.0402  -19.0030   36.8156 O   0  0  0  0  0  0  0  0  0  0  0  0
   32.9509  -20.0295   34.7233 C   0  0  0  0  0  0  0  0  0  0  0  0
   33.7590  -20.1623   33.5427 N   0  0  0  0  0  0  0  0  0  0  0  0
   34.3884  -19.3670   33.3746 H   0  0  0  0  0  0  0  0  0  0  0  0
   33.1415  -20.2835   32.7154 H   0  0  0  0  0  0  0  0  0  0  0  0
   32.9415  -21.4188   35.4029 C   0  0  0  0  0  0  0  0  0  0  0  0
   31.5135  -21.9005   35.4459 C   0  0  0  0  0  0  0  0  0  0  0  0
   31.2610  -23.2290   35.1590 C   0  0  0  0  0  0  0  0  0  0  0  0
   29.9346  -23.6320   35.1704 C   0  0  0  0  0  0  0  0  0  0  0  0
   28.9116  -22.7409   35.4584 C   0  0  0  0  0  0  0  0  0  0  0  0
   27.6053  -23.2294   35.4431 O   0  0  0  0  0  0  0  0  0  0  0  0
   29.1973  -21.4505   35.7352 C   0  0  0  0  0  0  0  0  0  0  0  0
   30.5328  -21.0114   35.7314 C   0  0  0  0  0  0  0  0  0  0  0  0
   26.8650  -22.5645   35.6503 H   0  0  0  0  0  0  0  0  0  0  0  0
   30.3650  -12.2052   39.8125 N   0  0  0  0  0  0  0  0  0  0  0  0
   30.6688  -11.8192   38.5246 C   0  0  0  0  0  0  0  0  0  0  0  0
   29.7823  -12.1330   37.6241 O   0  0  0  0  0  0  0  0  0  0  0  0
   30.9554  -12.0517   40.6234 H   0  0  0  0  0  0  0  0  0  0  0  0
   29.0372  -12.9383   40.0657 C   0  0  0  0  0  0  0  0  0  0  0  0
   28.0794  -11.9166   40.4448 C   0  0  0  0  0  0  0  0  0  0  0  0
   26.8325  -12.2018   40.2807 O   0  0  0  0  0  0  0  0  0  0  0  0
   28.3862  -10.6611   40.9944 N   0  0  0  0  0  0  0  0  0  0  0  0
   29.3990  -10.4313   41.0825 H   0  0  0  0  0  0  0  0  0  0  0  0
   27.4454   -9.6624   41.4600 C   0  0  0  0  0  0  0  0  0  0  0  0
   26.9976   -8.7791   40.3969 C   0  0  0  0  0  0  0  0  0  0  0  0
   27.9057   -7.8072   39.8434 N   0  0  0  0  0  0  0  0  0  0  0  0
   25.8339   -8.8435   39.9550 O   0  0  0  0  0  0  0  0  0  0  0  0
   28.0321   -7.7601   38.8330 H   0  0  0  0  0  0  0  0  0  0  0  0
   28.4253   -7.1673   40.4692 H   0  0  0  0  0  0  0  0  0  0  0  0
   27.9931   -8.9832   42.6898 C   0  0  0  0  0  0  0  0  0  0  0  0
   27.0891   -8.3091   43.5793 C   0  0  0  0  0  0  0  0  0  0  0  0
   26.3906   -8.9469   44.5970 C   0  0  0  0  0  0  0  0  0  0  0  0
   25.5818   -8.0910   45.2116 N   0  0  0  0  0  0  0  0  0  0  0  0
   25.7464   -6.8848   44.6017 C   0  0  0  0  0  0  0  0  0  0  0  0
   25.1240   -5.6622   44.8726 C   0  0  0  0  0  0  0  0  0  0  0  0
   25.4552   -4.5618   44.1095 C   0  0  0  0  0  0  0  0  0  0  0  0
   26.3797   -4.6880   43.1070 C   0  0  0  0  0  0  0  0  0  0  0  0
   27.0078   -5.8838   42.8189 C   0  0  0  0  0  0  0  0  0  0  0  0
   26.6744   -6.9901   43.5883 C   0  0  0  0  0  0  0  0  0  0  0  0
   24.9284   -8.2628   46.0091 H   0  0  0  0  0  0  0  0  0  0  0  0
   29.3829  -14.0852   40.8983 C   0  0  0  0  0  0  0  0  0  0  0  0
   29.2482  -16.3224   41.7805 C   0  0  0  0  0  0  0  0  0  0  0  0
   29.2241  -15.4776   40.4739 C   0  0  0  0  0  0  0  0  0  0  0  0
   27.9999  -15.8557   39.7213 C   0  0  0  0  0  0  0  0  0  0  0  0
   31.4207   -9.7390   37.4085 C   0  0  0  0  0  0  0  0  0  0  0  0
   32.5049   -9.0081   36.7587 C   0  0  0  0  0  0  0  0  0  0  0  0
   33.8224   -9.2286   37.0849 C   0  0  0  0  0  0  0  0  0  0  0  0
   34.8410   -8.4936   36.4661 C   0  0  0  0  0  0  0  0  0  0  0  0
   34.5635   -7.5353   35.5205 C   0  0  0  0  0  0  0  0  0  0  0  0
   33.2365   -7.3135   35.1916 C   0  0  0  0  0  0  0  0  0  0  0  0
   32.2667   -8.0447   35.8101 C   0  0  0  0  0  0  0  0  0  0  0  0
 58 59  1  0  0  0
 59 60  1  0  0  0
 59 57  1  0  0  0
 57 35  1  0  0  0
 35 31  1  0  0  0
 31 32  1  0  0  0
 32 33  2  0  0  0
 32  1  1  0  0  0
  1 61  1  0  0  0
 61 62  1  0  0  0
 62 63  2  0  0  0
 63 64  1  0  0  0
 64 65  2  0  0  0
 65 66  1  0  0  0
 66 67  2  0  0  0
  1  2  1  0  0  0
  2  3  1  0  0  0
  3  4  2  0  0  0
  3  6  1  0  0  0
  6  7  1  0  0  0
  7  8  1  0  0  0
  8  9  2  0  0  0
  8 11  1  0  0  0
 11 12  1  0  0  0
 12 13  1  0  0  0
 13 14  1  0  0  0
 14 15  1  0  0  0
 15 16  1  0  0  0
 16 17  2  0  0  0
 16 18  1  0  0  0
 18 19  1  0  0  0
 18 22  1  0  0  0
 22 23  1  0  0  0
 23 24  2  0  0  0
 24 25  1  0  0  0
 25 26  2  0  0  0
 26 27  1  0  0  0
 26 28  1  0  0  0
 28 29  2  0  0  0
 35 36  1  0  0  0
 36 37  2  0  0  0
 36 38  1  0  0  0
 38 40  1  0  0  0
 40 46  1  0  0  0
 46 47  1  0  0  0
 47 48  2  0  0  0
 48 49  1  0  0  0
 49 50  1  0  0  0
 50 51  2  0  0  0
 51 52  1  0  0  0
 52 53  2  0  0  0
 53 54  1  0  0  0
 54 55  2  0  0  0
 40 41  1  0  0  0
 41 42  1  0  0  0
 41 43  2  0  0  0
 67 62  1  0  0  0
 15 11  1  0  0  0
 29 23  1  0  0  0
 55 47  1  0  0  0
 55 50  1  0  0  0
 31 34  1  0  0  0
  2  5  1  0  0  0
  7 10  1  0  0  0
 19 20  1  0  0  0
 19 21  1  0  0  0
 27 30  1  0  0  0
 38 39  1  0  0  0
 49 56  1  0  0  0
 42 44  1  0  0  0
 42 45  1  0  0  0
M  END
> <minimizedAffinity>
-10.38646

> <CNNscore>
0.5649156570

> <CNNaffinity>
7.9229493141

> <CNN_VS>
4.4757981300

> <CNNaffinity_variance>
0.2591565251

$$$$
[H]Oc1c([H])c([H])c(C([H])([H])[C@@]([H])(C(=O)N2C([H])([H])C([H])([H])C([H])([H])[C@@]2([H])C(=O)N([H])C([H])([H])C(=O)N([H])[C@]([H])(C(=O)N([H])[C@]([H])(C(=O)N([H])[C@]([H])(C(=O)N([H])[H])C([H])([H])c2c([H])n([H])c3c([H])c([H])c([H])c([H])c23)C([H])([H])C([H])(C([H])([H])[H])C([H])([H])[H])C([H])([H])c2c([H])c([H])c([H])c([H])c2[H])N([H])[H])c([H])c1[H]


 67 71  0  0  0  0  0  0  0  0999 V2000
   32.8259  -11.5214   37.3332 C   0  0  0  0  0  0  0  0  0  0  0  0
   31.9451  -11.9788   38.4222 N   0  0  0  0  0  0  0  0  0  0  0  0
   30.5426  -12.0708   38.3599 C   0  0  0  0  0  0  0  0  0  0  0  0
   29.9247  -11.7509   37.3326 O   0  0  0  0  0  0  0  0  0  0  0  0
   32.4280  -12.2429   39.3270 H   0  0  0  0  0  0  0  0  0  0  0  0
   29.7158  -12.5368   39.5165 C   0  0  0  0  0  0  0  0  0  0  0  0
   28.3124  -12.0987   39.3107 N   0  0  0  0  0  0  0  0  0  0  0  0
   27.5510  -11.8280   40.5089 C   0  0  0  0  0  0  0  0  0  0  0  0
   28.1300  -12.0230   41.6406 O   0  0  0  0  0  0  0  0  0  0  0  0
   27.9781  -12.0100   38.3558 H   0  0  0  0  0  0  0  0  0  0  0  0
   26.1911  -11.3531   40.5081 C   0  0  0  0  0  0  0  0  0  0  0  0
   25.9808  -10.4345   39.2406 C   0  0  0  0  0  0  0  0  0  0  0  0
   26.5841   -9.1206   39.6951 C   0  0  0  0  0  0  0  0  0  0  0  0
   26.4894   -9.1403   41.1946 C   0  0  0  0  0  0  0  0  0  0  0  0
   25.8238  -10.3692   41.4960 N   0  0  0  0  0  0  0  0  0  0  0  0
   24.9187  -10.6263   42.5708 C   0  0  0  0  0  0  0  0  0  0  0  0
   24.4111  -11.7993   42.6641 O   0  0  0  0  0  0  0  0  0  0  0  0
   24.5086   -9.6603   43.5882 C   0  0  0  0  0  0  0  0  0  0  0  0
   23.2556  -10.0530   44.1714 N   0  0  0  0  0  0  0  0  0  0  0  0
   22.7073  -10.6992   43.5895 H   0  0  0  0  0  0  0  0  0  0  0  0
   22.6849   -9.2055   44.3625 H   0  0  0  0  0  0  0  0  0  0  0  0
   25.5467   -9.6777   44.7346 C   0  0  0  0  0  0  0  0  0  0  0  0
   25.8554   -8.2472   45.0977 C   0  0  0  0  0  0  0  0  0  0  0  0
   26.2881   -7.9759   46.3823 C   0  0  0  0  0  0  0  0  0  0  0  0
   26.5277   -6.6469   46.6957 C   0  0  0  0  0  0  0  0  0  0  0  0
   26.3421   -5.6396   45.7606 C   0  0  0  0  0  0  0  0  0  0  0  0
   26.6018   -4.3293   46.1618 O   0  0  0  0  0  0  0  0  0  0  0  0
   25.9194   -5.9436   44.5147 C   0  0  0  0  0  0  0  0  0  0  0  0
   25.6679   -7.2821   44.1664 C   0  0  0  0  0  0  0  0  0  0  0  0
   26.4563   -3.6005   45.4684 H   0  0  0  0  0  0  0  0  0  0  0  0
   33.6464  -13.9497   37.1589 N   0  0  0  0  0  0  0  0  0  0  0  0
   33.7417  -12.5889   36.9603 C   0  0  0  0  0  0  0  0  0  0  0  0
   34.8165  -12.1888   36.3439 O   0  0  0  0  0  0  0  0  0  0  0  0
   32.8831  -14.4189   37.6352 H   0  0  0  0  0  0  0  0  0  0  0  0
   34.7789  -14.8493   36.6366 C   0  0  0  0  0  0  0  0  0  0  0  0
   34.1535  -15.8048   35.7418 C   0  0  0  0  0  0  0  0  0  0  0  0
   33.1607  -15.3767   35.0389 O   0  0  0  0  0  0  0  0  0  0  0  0
   34.5460  -17.1404   35.5558 N   0  0  0  0  0  0  0  0  0  0  0  0
   35.3233  -17.4811   36.1606 H   0  0  0  0  0  0  0  0  0  0  0  0
   33.9929  -18.0851   34.6066 C   0  0  0  0  0  0  0  0  0  0  0  0
   32.9733  -18.9360   35.1959 C   0  0  0  0  0  0  0  0  0  0  0  0
   32.7142  -20.2371   34.6342 N   0  0  0  0  0  0  0  0  0  0  0  0
   32.3110  -18.5574   36.1816 O   0  0  0  0  0  0  0  0  0  0  0  0
   32.7095  -21.0531   35.2450 H   0  0  0  0  0  0  0  0  0  0  0  0
   32.5385  -20.3384   33.6193 H   0  0  0  0  0  0  0  0  0  0  0  0
   35.1113  -18.8005   33.8918 C   0  0  0  0  0  0  0  0  0  0  0  0
   36.4290  -18.7882   34.4631 C   0  0  0  0  0  0  0  0  0  0  0  0
   37.5225  -18.1743   33.8651 C   0  0  0  0  0  0  0  0  0  0  0  0
   38.6208  -18.3811   34.5831 N   0  0  0  0  0  0  0  0  0  0  0  0
   38.2538  -19.1308   35.6588 C   0  0  0  0  0  0  0  0  0  0  0  0
   39.0379  -19.6166   36.7099 C   0  0  0  0  0  0  0  0  0  0  0  0
   38.4362  -20.3657   37.6997 C   0  0  0  0  0  0  0  0  0  0  0  0
   37.0919  -20.6187   37.6330 C   0  0  0  0  0  0  0  0  0  0  0  0
   36.2959  -20.1514   36.6058 C   0  0  0  0  0  0  0  0  0  0  0  0
   36.9024  -19.3968   35.6109 C   0  0  0  0  0  0  0  0  0  0  0  0
   39.5964  -18.0546   34.3987 H   0  0  0  0  0  0  0  0  0  0  0  0
   35.5531  -15.2185   37.8166 C   0  0  0  0  0  0  0  0  0  0  0  0
   37.6714  -16.1117   37.0981 C   0  0  0  0  0  0  0  0  0  0  0  0
   36.9946  -14.9973   37.9475 C   0  0  0  0  0  0  0  0  0  0  0  0
   37.5567  -13.6953   37.5035 C   0  0  0  0  0  0  0  0  0  0  0  0
   33.6013  -10.3065   37.9139 C   0  0  0  0  0  0  0  0  0  0  0  0
   33.7159   -9.1665   37.0088 C   0  0  0  0  0  0  0  0  0  0  0  0
   32.6278   -8.3931   36.6791 C   0  0  0  0  0  0  0  0  0  0  0  0
   32.7605   -7.3224   35.7866 C   0  0  0  0  0  0  0  0  0  0  0  0
   33.9703   -7.0093   35.2139 C   0  0  0  0  0  0  0  0  0  0  0  0
   35.0664   -7.7879   35.5465 C   0  0  0  0  0  0  0  0  0  0  0  0
   34.9069   -8.8232   36.4185 C   0  0  0  0  0  0  0  0  0  0  0  0
 58 59  1  0  0  0
 59 60  1  0  0  0
 59 57  1  0  0  0
 57 35  1  0  0  0
 35 31  1  0  0  0
 31 32  1  0  0  0
 32 33  2  0  0  0
 32  1  1  0  0  0
  1 61  1  0  0  0
 61 62  1  0  0  0
 62 63  2  0  0  0
 63 64  1  0  0  0
 64 65  2  0  0  0
 65 66  1  0  0  0
 66 67  2  0  0  0
  1  2  1  0  0  0
  2  3  1  0  0  0
  3  4  2  0  0  0
  3  6  1  0  0  0
  6  7  1  0  0  0
  7  8  1  0  0  0
  8  9  2  0  0  0
  8 11  1  0  0  0
 11 12  1  0  0  0
 12 13  1  0  0  0
 13 14  1  0  0  0
 14 15  1  0  0  0
 15 16  1  0  0  0
 16 17  2  0  0  0
 16 18  1  0  0  0
 18 19  1  0  0  0
 18 22  1  0  0  0
 22 23  1  0  0  0
 23 24  2  0  0  0
 24 25  1  0  0  0
 25 26  2  0  0  0
 26 27  1  0  0  0
 26 28  1  0  0  0
 28 29  2  0  0  0
 35 36  1  0  0  0
 36 37  2  0  0  0
 36 38  1  0  0  0
 38 40  1  0  0  0
 40 46  1  0  0  0
 46 47  1  0  0  0
 47 48  2  0  0  0
 48 49  1  0  0  0
 49 50  1  0  0  0
 50 51  2  0  0  0
 51 52  1  0  0  0
 52 53  2  0  0  0
 53 54  1  0  0  0
 54 55  2  0  0  0
 40 41  1  0  0  0
 41 42  1  0  0  0
 41 43  2  0  0  0
 67 62  1  0  0  0
 15 11  1  0  0  0
 29 23  1  0  0  0
 55 47  1  0  0  0
 55 50  1  0  0  0
 31 34  1  0  0  0
  2  5  1  0  0  0
  7 10  1  0  0  0
 19 20  1  0  0  0
 19 21  1  0  0  0
 27 30  1  0  0  0
 38 39  1  0  0  0
 49 56  1  0  0  0
 42 44  1  0  0  0
 42 45  1  0  0  0
M  END
> <minimizedAffinity>
-9.74205

> <CNNscore>
0.4754430950

> <CNNaffinity>
7.7291464806

> <CNN_VS>
3.6747694016

> <CNNaffinity_variance>
0.1084937304

$$$$
[H]Oc1c([H])c([H])c(C([H])([H])[C@@]([H])(C(=O)N2C([H])([H])C([H])([H])C([H])([H])[C@@]2([H])C(=O)N([H])C([H])([H])C(=O)N([H])[C@]([H])(C(=O)N([H])[C@]([H])(C(=O)N([H])[C@]([H])(C(=O)N([H])[H])C([H])([H])c2c([H])n([H])c3c([H])c([H])c([H])c([H])c23)C([H])([H])C([H])(C([H])([H])[H])C([H])([H])[H])C([H])([H])c2c([H])c([H])c([H])c([H])c2[H])N([H])[H])c([H])c1[H]


 67 71  0  0  0  0  0  0  0  0999 V2000
   34.2337  -14.4653   35.9616 C   0  0  0  0  0  0  0  0  0  0  0  0
   35.1176  -15.3861   36.6976 N   0  0  0  0  0  0  0  0  0  0  0  0
   36.5084  -15.2411   36.8523 C   0  0  0  0  0  0  0  0  0  0  0  0
   37.1124  -14.2818   36.3478 O   0  0  0  0  0  0  0  0  0  0  0  0
   34.6479  -16.2320   37.1282 H   0  0  0  0  0  0  0  0  0  0  0  0
   37.3401  -16.2284   37.6087 C   0  0  0  0  0  0  0  0  0  0  0  0
   37.8463  -17.2542   36.6626 N   0  0  0  0  0  0  0  0  0  0  0  0
   37.2038  -18.5471   36.7264 C   0  0  0  0  0  0  0  0  0  0  0  0
   36.2854  -18.7140   37.6112 O   0  0  0  0  0  0  0  0  0  0  0  0
   38.5973  -16.9890   36.0322 H   0  0  0  0  0  0  0  0  0  0  0  0
   37.5290  -19.6511   35.8603 C   0  0  0  0  0  0  0  0  0  0  0  0
   37.3912  -20.9923   36.6831 C   0  0  0  0  0  0  0  0  0  0  0  0
   38.6973  -21.0314   37.4507 C   0  0  0  0  0  0  0  0  0  0  0  0
   39.6594  -20.2150   36.6348 C   0  0  0  0  0  0  0  0  0  0  0  0
   38.9098  -19.8228   35.4824 N   0  0  0  0  0  0  0  0  0  0  0  0
   39.3948  -19.6393   34.1513 C   0  0  0  0  0  0  0  0  0  0  0  0
   38.5554  -19.2966   33.2456 O   0  0  0  0  0  0  0  0  0  0  0  0
   40.7803  -19.8115   33.7186 C   0  0  0  0  0  0  0  0  0  0  0  0
   40.8324  -20.0698   32.3062 N   0  0  0  0  0  0  0  0  0  0  0  0
   39.9500  -20.4204   31.9119 H   0  0  0  0  0  0  0  0  0  0  0  0
   41.5857  -20.7588   32.1103 H   0  0  0  0  0  0  0  0  0  0  0  0
   41.5391  -18.4832   33.9465 C   0  0  0  0  0  0  0  0  0  0  0  0
   42.3927  -18.6463   35.1786 C   0  0  0  0  0  0  0  0  0  0  0  0
   43.1352  -19.8046   35.3129 C   0  0  0  0  0  0  0  0  0  0  0  0
   43.8803  -19.9408   36.4739 C   0  0  0  0  0  0  0  0  0  0  0  0
   43.8792  -18.9577   37.4522 C   0  0  0  0  0  0  0  0  0  0  0  0
   44.6534  -19.1782   38.5912 O   0  0  0  0  0  0  0  0  0  0  0  0
   43.1421  -17.8387   37.2850 C   0  0  0  0  0  0  0  0  0  0  0  0
   42.3759  -17.6714   36.1183 C   0  0  0  0  0  0  0  0  0  0  0  0
   44.6390  -18.4524   39.3026 H   0  0  0  0  0  0  0  0  0  0  0  0
   32.9242  -12.3538   36.6149 N   0  0  0  0  0  0  0  0  0  0  0  0
   33.6939  -13.4678   36.8732 C   0  0  0  0  0  0  0  0  0  0  0  0
   33.9885  -13.6644   38.1260 O   0  0  0  0  0  0  0  0  0  0  0  0
   32.6234  -12.0518   35.6941 H   0  0  0  0  0  0  0  0  0  0  0  0
   32.4826  -11.4759   37.7976 C   0  0  0  0  0  0  0  0  0  0  0  0
   31.0431  -11.3379   37.6808 C   0  0  0  0  0  0  0  0  0  0  0  0
   30.4868  -11.9075   36.6663 O   0  0  0  0  0  0  0  0  0  0  0  0
   30.2029  -10.6638   38.5819 N   0  0  0  0  0  0  0  0  0  0  0  0
   30.6730  -10.1754   39.3735 H   0  0  0  0  0  0  0  0  0  0  0  0
   28.7568  -10.5875   38.5318 C   0  0  0  0  0  0  0  0  0  0  0  0
   28.1890   -9.9726   39.7193 C   0  0  0  0  0  0  0  0  0  0  0  0
   26.9463   -9.2497   39.6267 N   0  0  0  0  0  0  0  0  0  0  0  0
   28.7626  -10.0553   40.8229 O   0  0  0  0  0  0  0  0  0  0  0  0
   26.1893   -9.4725   40.2720 H   0  0  0  0  0  0  0  0  0  0  0  0
   26.8261   -8.5144   38.9084 H   0  0  0  0  0  0  0  0  0  0  0  0
   28.1902  -11.9332   38.1552 C   0  0  0  0  0  0  0  0  0  0  0  0
   27.5615  -12.7365   39.1663 C   0  0  0  0  0  0  0  0  0  0  0  0
   26.1859  -12.8959   39.2790 C   0  0  0  0  0  0  0  0  0  0  0  0
   25.8901  -13.6348   40.3426 N   0  0  0  0  0  0  0  0  0  0  0  0
   27.0711  -13.9668   40.9335 C   0  0  0  0  0  0  0  0  0  0  0  0
   27.3040  -14.7295   42.0822 C   0  0  0  0  0  0  0  0  0  0  0  0
   28.6043  -14.9326   42.4954 C   0  0  0  0  0  0  0  0  0  0  0  0
   29.6347  -14.3852   41.7782 C   0  0  0  0  0  0  0  0  0  0  0  0
   29.4314  -13.6278   40.6415 C   0  0  0  0  0  0  0  0  0  0  0  0
   28.1225  -13.4252   40.2261 C   0  0  0  0  0  0  0  0  0  0  0  0
   24.9518  -13.9285   40.6971 H   0  0  0  0  0  0  0  0  0  0  0  0
   33.4137  -10.3530   37.8129 C   0  0  0  0  0  0  0  0  0  0  0  0
   32.5071   -8.2540   37.0559 C   0  0  0  0  0  0  0  0  0  0  0  0
   33.5321   -9.3777   36.7273 C   0  0  0  0  0  0  0  0  0  0  0  0
   34.8481   -8.7270   36.4972 C   0  0  0  0  0  0  0  0  0  0  0  0
   33.0997  -15.3569   35.3843 C   0  0  0  0  0  0  0  0  0  0  0  0
   33.4666  -16.7553   35.1804 C   0  0  0  0  0  0  0  0  0  0  0  0
   34.3411  -17.1360   34.1899 C   0  0  0  0  0  0  0  0  0  0  0  0
   34.6541  -18.4874   33.9982 C   0  0  0  0  0  0  0  0  0  0  0  0
   34.1043  -19.4714   34.7849 C   0  0  0  0  0  0  0  0  0  0  0  0
   33.2239  -19.0878   35.7830 C   0  0  0  0  0  0  0  0  0  0  0  0
   32.9387  -17.7651   35.9462 C   0  0  0  0  0  0  0  0  0  0  0  0
 58 59  1  0  0  0
 59 60  1  0  0  0
 59 57  1  0  0  0
 57 35  1  0  0  0
 35 31  1  0  0  0
 31 32  1  0  0  0
 32 33  2  0  0  0
 32  1  1  0  0  0
  1 61  1  0  0  0
 61 62  1  0  0  0
 62 63  2  0  0  0
 63 64  1  0  0  0
 64 65  2  0  0  0
 65 66  1  0  0  0
 66 67  2  0  0  0
  1  2  1  0  0  0
  2  3  1  0  0  0
  3  4  2  0  0  0
  3  6  1  0  0  0
  6  7  1  0  0  0
  7  8  1  0  0  0
  8  9  2  0  0  0
  8 11  1  0  0  0
 11 12  1  0  0  0
 12 13  1  0  0  0
 13 14  1  0  0  0
 14 15  1  0  0  0
 15 16  1  0  0  0
 16 17  2  0  0  0
 16 18  1  0  0  0
 18 19  1  0  0  0
 18 22  1  0  0  0
 22 23  1  0  0  0
 23 24  2  0  0  0
 24 25  1  0  0  0
 25 26  2  0  0  0
 26 27  1  0  0  0
 26 28  1  0  0  0
 28 29  2  0  0  0
 35 36  1  0  0  0
 36 37  2  0  0  0
 36 38  1  0  0  0
 38 40  1  0  0  0
 40 46  1  0  0  0
 46 47  1  0  0  0
 47 48  2  0  0  0
 48 49  1  0  0  0
 49 50  1  0  0  0
 50 51  2  0  0  0
 51 52  1  0  0  0
 52 53  2  0  0  0
 53 54  1  0  0  0
 54 55  2  0  0  0
 40 41  1  0  0  0
 41 42  1  0  0  0
 41 43  2  0  0  0
 67 62  1  0  0  0
 15 11  1  0  0  0
 29 23  1  0  0  0
 55 47  1  0  0  0
 55 50  1  0  0  0
 31 34  1  0  0  0
  2  5  1  0  0  0
  7 10  1  0  0  0
 19 20  1  0  0  0
 19 21  1  0  0  0
 27 30  1  0  0  0
 38 39  1  0  0  0
 49 56  1  0  0  0
 42 44  1  0  0  0
 42 45  1  0  0  0
M  END
> <minimizedAffinity>
-8.23101

> <CNNscore>
0.4637934566

> <CNNaffinity>
7.7562875748

> <CNN_VS>
3.5973153114

> <CNNaffinity_variance>
0.0605771318

$$$$
[H]Oc1c([H])c([H])c(C([H])([H])[C@@]([H])(C(=O)N2C([H])([H])C([H])([H])C([H])([H])[C@@]2([H])C(=O)N([H])C([H])([H])C(=O)N([H])[C@]([H])(C(=O)N([H])[C@]([H])(C(=O)N([H])[C@]([H])(C(=O)N([H])[H])C([H])([H])c2c([H])n([H])c3c([H])c([H])c([H])c([H])c23)C([H])([H])C([H])(C([H])([H])[H])C([H])([H])[H])C([H])([H])c2c([H])c([H])c([H])c([H])c2[H])N([H])[H])c([H])c1[H]


 67 71  0  0  0  0  0  0  0  0999 V2000
   32.1059  -12.0784   37.2363 C   0  0  0  0  0  0  0  0  0  0  0  0
   31.1366  -12.7082   38.1500 N   0  0  0  0  0  0  0  0  0  0  0  0
   31.3334  -12.9384   39.5238 C   0  0  0  0  0  0  0  0  0  0  0  0
   32.3928  -12.6143   40.0824 O   0  0  0  0  0  0  0  0  0  0  0  0
   30.2244  -13.0206   37.7119 H   0  0  0  0  0  0  0  0  0  0  0  0
   30.3005  -13.5950   40.3845 C   0  0  0  0  0  0  0  0  0  0  0  0
   29.6237  -12.5554   41.2000 N   0  0  0  0  0  0  0  0  0  0  0  0
   29.2505  -12.9452   42.5406 C   0  0  0  0  0  0  0  0  0  0  0  0
   29.4962  -14.1553   42.9004 O   0  0  0  0  0  0  0  0  0  0  0  0
   29.4717  -11.6447   40.7767 H   0  0  0  0  0  0  0  0  0  0  0  0
   28.6259  -12.0615   43.4912 C   0  0  0  0  0  0  0  0  0  0  0  0
   27.8311  -12.9340   44.5408 C   0  0  0  0  0  0  0  0  0  0  0  0
   26.5537  -13.2517   43.7896 C   0  0  0  0  0  0  0  0  0  0  0  0
   26.4009  -12.1450   42.7848 C   0  0  0  0  0  0  0  0  0  0  0  0
   27.5058  -11.2741   43.0393 N   0  0  0  0  0  0  0  0  0  0  0  0
   27.5402   -9.8523   42.9058 C   0  0  0  0  0  0  0  0  0  0  0  0
   28.6305   -9.2454   43.1982 O   0  0  0  0  0  0  0  0  0  0  0  0
   26.4297   -9.0115   42.4627 C   0  0  0  0  0  0  0  0  0  0  0  0
   26.0587   -8.0892   43.5001 N   0  0  0  0  0  0  0  0  0  0  0  0
   26.3611   -8.3734   44.4406 H   0  0  0  0  0  0  0  0  0  0  0  0
   25.0261   -7.9696   43.5005 H   0  0  0  0  0  0  0  0  0  0  0  0
   26.9046   -8.1534   41.2668 C   0  0  0  0  0  0  0  0  0  0  0  0
   27.3100   -9.0922   40.1589 C   0  0  0  0  0  0  0  0  0  0  0  0
   26.3797  -10.0070   39.7018 C   0  0  0  0  0  0  0  0  0  0  0  0
   26.7948  -10.8806   38.7087 C   0  0  0  0  0  0  0  0  0  0  0  0
   28.0839  -10.8348   38.1991 C   0  0  0  0  0  0  0  0  0  0  0  0
   28.4191  -11.7539   37.2051 O   0  0  0  0  0  0  0  0  0  0  0  0
   28.9647   -9.9260   38.6698 C   0  0  0  0  0  0  0  0  0  0  0  0
   28.5737   -9.0263   39.6768 C   0  0  0  0  0  0  0  0  0  0  0  0
   29.3686  -11.7129   36.8446 H   0  0  0  0  0  0  0  0  0  0  0  0
   32.9517  -14.4560   36.7549 N   0  0  0  0  0  0  0  0  0  0  0  0
   33.0378  -13.0803   36.7412 C   0  0  0  0  0  0  0  0  0  0  0  0
   34.1193  -12.5942   36.2035 O   0  0  0  0  0  0  0  0  0  0  0  0
   32.1847  -14.9898   37.1505 H   0  0  0  0  0  0  0  0  0  0  0  0
   34.1012  -15.2701   36.1382 C   0  0  0  0  0  0  0  0  0  0  0  0
   33.4773  -16.2726   35.2953 C   0  0  0  0  0  0  0  0  0  0  0  0
   33.2453  -15.9379   34.0717 O   0  0  0  0  0  0  0  0  0  0  0  0
   33.1276  -17.5760   35.6841 N   0  0  0  0  0  0  0  0  0  0  0  0
   33.2847  -17.8162   36.6860 H   0  0  0  0  0  0  0  0  0  0  0  0
   32.5849  -18.6196   34.8380 C   0  0  0  0  0  0  0  0  0  0  0  0
   31.3977  -19.2363   35.4047 C   0  0  0  0  0  0  0  0  0  0  0  0
   30.0948  -18.8659   34.9138 N   0  0  0  0  0  0  0  0  0  0  0  0
   31.4852  -20.0816   36.3165 O   0  0  0  0  0  0  0  0  0  0  0  0
   29.4438  -19.5951   34.6252 H   0  0  0  0  0  0  0  0  0  0  0  0
   29.8278  -17.8679   34.8531 H   0  0  0  0  0  0  0  0  0  0  0  0
   33.6853  -19.5669   34.4312 C   0  0  0  0  0  0  0  0  0  0  0  0
   35.0518  -19.1348   34.5239 C   0  0  0  0  0  0  0  0  0  0  0  0
   35.7296  -18.4958   33.4932 C   0  0  0  0  0  0  0  0  0  0  0  0
   36.9939  -18.2750   33.8360 N   0  0  0  0  0  0  0  0  0  0  0  0
   37.1528  -18.7664   35.0959 C   0  0  0  0  0  0  0  0  0  0  0  0
   38.2942  -18.7826   35.9037 C   0  0  0  0  0  0  0  0  0  0  0  0
   38.2132  -19.3439   37.1611 C   0  0  0  0  0  0  0  0  0  0  0  0
   37.0248  -19.8725   37.5902 C   0  0  0  0  0  0  0  0  0  0  0  0
   35.8840  -19.8698   36.8118 C   0  0  0  0  0  0  0  0  0  0  0  0
   35.9666  -19.3035   35.5471 C   0  0  0  0  0  0  0  0  0  0  0  0
   37.7540  -17.8195   33.2819 H   0  0  0  0  0  0  0  0  0  0  0  0
   34.9957  -15.5766   37.2492 C   0  0  0  0  0  0  0  0  0  0  0  0
   36.7775  -15.1380   35.6890 C   0  0  0  0  0  0  0  0  0  0  0  0
   36.4541  -15.4699   37.1744 C   0  0  0  0  0  0  0  0  0  0  0  0
   37.1362  -14.4534   38.0168 C   0  0  0  0  0  0  0  0  0  0  0  0
   32.8446  -11.0120   38.0914 C   0  0  0  0  0  0  0  0  0  0  0  0
   33.1733   -9.7799   37.3801 C   0  0  0  0  0  0  0  0  0  0  0  0
   32.2166   -8.8361   37.0893 C   0  0  0  0  0  0  0  0  0  0  0  0
   32.5540   -7.6761   36.3812 C   0  0  0  0  0  0  0  0  0  0  0  0
   33.8400   -7.4418   35.9558 C   0  0  0  0  0  0  0  0  0  0  0  0
   34.8037   -8.3923   36.2492 C   0  0  0  0  0  0  0  0  0  0  0  0
   34.4457   -9.5112   36.9404 C   0  0  0  0  0  0  0  0  0  0  0  0
 58 59  1  0  0  0
 59 60  1  0  0  0
 59 57  1  0  0  0
 57 35  1  0  0  0
 35 31  1  0  0  0
 31 32  1  0  0  0
 32 33  2  0  0  0
 32  1  1  0  0  0
  1 61  1  0  0  0
 61 62  1  0  0  0
 62 63  2  0  0  0
 63 64  1  0  0  0
 64 65  2  0  0  0
 65 66  1  0  0  0
 66 67  2  0  0  0
  1  2  1  0  0  0
  2  3  1  0  0  0
  3  4  2  0  0  0
  3  6  1  0  0  0
  6  7  1  0  0  0
  7  8  1  0  0  0
  8  9  2  0  0  0
  8 11  1  0  0  0
 11 12  1  0  0  0
 12 13  1  0  0  0
 13 14  1  0  0  0
 14 15  1  0  0  0
 15 16  1  0  0  0
 16 17  2  0  0  0
 16 18  1  0  0  0
 18 19  1  0  0  0
 18 22  1  0  0  0
 22 23  1  0  0  0
 23 24  2  0  0  0
 24 25  1  0  0  0
 25 26  2  0  0  0
 26 27  1  0  0  0
 26 28  1  0  0  0
 28 29  2  0  0  0
 35 36  1  0  0  0
 36 37  2  0  0  0
 36 38  1  0  0  0
 38 40  1  0  0  0
 40 46  1  0  0  0
 46 47  1  0  0  0
 47 48  2  0  0  0
 48 49  1  0  0  0
 49 50  1  0  0  0
 50 51  2  0  0  0
 51 52  1  0  0  0
 52 53  2  0  0  0
 53 54  1  0  0  0
 54 55  2  0  0  0
 40 41  1  0  0  0
 41 42  1  0  0  0
 41 43  2  0  0  0
 67 62  1  0  0  0
 15 11  1  0  0  0
 29 23  1  0  0  0
 55 47  1  0  0  0
 55 50  1  0  0  0
 31 34  1  0  0  0
  2  5  1  0  0  0
  7 10  1  0  0  0
 19 20  1  0  0  0
 19 21  1  0  0  0
 27 30  1  0  0  0
 38 39  1  0  0  0
 49 56  1  0  0  0
 42 44  1  0  0  0
 42 45  1  0  0  0
M  END
> <minimizedAffinity>
-9.35743

> <CNNscore>
0.4213490188

> <CNNaffinity>
7.8739423752

> <CNN_VS>
3.3176779747

> <CNNaffinity_variance>
0.1809186637

$$$$
[H]Oc1c([H])c([H])c(C([H])([H])[C@@]([H])(C(=O)N2C([H])([H])C([H])([H])C([H])([H])[C@@]2([H])C(=O)N([H])C([H])([H])C(=O)N([H])[C@]([H])(C(=O)N([H])[C@]([H])(C(=O)N([H])[C@]([H])(C(=O)N([H])[H])C([H])([H])c2c([H])n([H])c3c([H])c([H])c([H])c([H])c23)C([H])([H])C([H])(C([H])([H])[H])C([H])([H])[H])C([H])([H])c2c([H])c([H])c([H])c([H])c2[H])N([H])[H])c([H])c1[H]


 67 71  0  0  0  0  0  0  0  0999 V2000
   33.4466  -11.2294   37.3089 C   0  0  0  0  0  0  0  0  0  0  0  0
   33.0449  -11.7254   38.6369 N   0  0  0  0  0  0  0  0  0  0  0  0
   31.9066  -12.5049   38.9123 C   0  0  0  0  0  0  0  0  0  0  0  0
   31.1240  -12.8373   38.0087 O   0  0  0  0  0  0  0  0  0  0  0  0
   33.6732  -11.4481   39.4431 H   0  0  0  0  0  0  0  0  0  0  0  0
   31.5611  -12.9622   40.2944 C   0  0  0  0  0  0  0  0  0  0  0  0
   30.1322  -13.3634   40.3241 N   0  0  0  0  0  0  0  0  0  0  0  0
   29.6258  -13.8098   41.6019 C   0  0  0  0  0  0  0  0  0  0  0  0
   30.4517  -13.8598   42.5866 O   0  0  0  0  0  0  0  0  0  0  0  0
   29.6020  -13.2950   39.4605 H   0  0  0  0  0  0  0  0  0  0  0  0
   28.2581  -14.1969   41.8349 C   0  0  0  0  0  0  0  0  0  0  0  0
   28.1711  -15.7738   41.8082 C   0  0  0  0  0  0  0  0  0  0  0  0
   28.1447  -16.0667   40.3215 C   0  0  0  0  0  0  0  0  0  0  0  0
   27.5970  -14.8216   39.6833 C   0  0  0  0  0  0  0  0  0  0  0  0
   27.3038  -13.9546   40.7817 N   0  0  0  0  0  0  0  0  0  0  0  0
   26.2414  -13.0046   40.8793 C   0  0  0  0  0  0  0  0  0  0  0  0
   26.1365  -12.3264   41.9616 O   0  0  0  0  0  0  0  0  0  0  0  0
   25.2455  -12.7317   39.8448 C   0  0  0  0  0  0  0  0  0  0  0  0
   23.9298  -13.0563   40.3224 N   0  0  0  0  0  0  0  0  0  0  0  0
   23.9219  -13.7096   41.1161 H   0  0  0  0  0  0  0  0  0  0  0  0
   23.3730  -13.4643   39.5452 H   0  0  0  0  0  0  0  0  0  0  0  0
   25.2396  -11.2132   39.5512 C   0  0  0  0  0  0  0  0  0  0  0  0
   26.6429  -10.8122   39.1730 C   0  0  0  0  0  0  0  0  0  0  0  0
   27.2356   -9.7712   39.8632 C   0  0  0  0  0  0  0  0  0  0  0  0
   28.5117   -9.4022   39.4669 C   0  0  0  0  0  0  0  0  0  0  0  0
   29.1608  -10.0507   38.4269 C   0  0  0  0  0  0  0  0  0  0  0  0
   30.4412   -9.6119   38.0902 O   0  0  0  0  0  0  0  0  0  0  0  0
   28.5502  -11.0646   37.7768 C   0  0  0  0  0  0  0  0  0  0  0  0
   27.2560  -11.4621   38.1554 C   0  0  0  0  0  0  0  0  0  0  0  0
   30.9031  -10.0922   37.3227 H   0  0  0  0  0  0  0  0  0  0  0  0
   34.1649  -13.6285   36.7358 N   0  0  0  0  0  0  0  0  0  0  0  0
   34.2028  -12.2565   36.6084 C   0  0  0  0  0  0  0  0  0  0  0  0
   35.0446  -11.8009   35.7258 O   0  0  0  0  0  0  0  0  0  0  0  0
   33.5778  -14.1391   37.3871 H   0  0  0  0  0  0  0  0  0  0  0  0
   35.0837  -14.4750   35.8393 C   0  0  0  0  0  0  0  0  0  0  0  0
   34.5936  -15.8373   35.9332 C   0  0  0  0  0  0  0  0  0  0  0  0
   33.4278  -15.9987   36.4604 O   0  0  0  0  0  0  0  0  0  0  0  0
   35.2612  -16.9874   35.4816 N   0  0  0  0  0  0  0  0  0  0  0  0
   36.2184  -16.8433   35.0955 H   0  0  0  0  0  0  0  0  0  0  0  0
   34.7547  -18.3449   35.4861 C   0  0  0  0  0  0  0  0  0  0  0  0
   35.8148  -19.3357   35.5593 C   0  0  0  0  0  0  0  0  0  0  0  0
   36.6824  -19.5410   34.4276 N   0  0  0  0  0  0  0  0  0  0  0  0
   35.9861  -20.0192   36.5875 O   0  0  0  0  0  0  0  0  0  0  0  0
   37.6925  -19.5191   34.5620 H   0  0  0  0  0  0  0  0  0  0  0  0
   36.2798  -19.7052   33.4884 H   0  0  0  0  0  0  0  0  0  0  0  0
   33.7678  -18.5224   34.3600 C   0  0  0  0  0  0  0  0  0  0  0  0
   32.4634  -19.0500   34.6480 C   0  0  0  0  0  0  0  0  0  0  0  0
   31.3298  -18.2614   34.8010 C   0  0  0  0  0  0  0  0  0  0  0  0
   30.2834  -19.0117   35.1279 N   0  0  0  0  0  0  0  0  0  0  0  0
   30.7241  -20.2986   35.1892 C   0  0  0  0  0  0  0  0  0  0  0  0
   30.0154  -21.4647   35.4949 C   0  0  0  0  0  0  0  0  0  0  0  0
   30.6849  -22.6707   35.4963 C   0  0  0  0  0  0  0  0  0  0  0  0
   32.0220  -22.7019   35.2021 C   0  0  0  0  0  0  0  0  0  0  0  0
   32.7447  -21.5650   34.8979 C   0  0  0  0  0  0  0  0  0  0  0  0
   32.0695  -20.3521   34.8956 C   0  0  0  0  0  0  0  0  0  0  0  0
   29.2976  -18.7179   35.3130 H   0  0  0  0  0  0  0  0  0  0  0  0
   36.4412  -14.0681   36.1851 C   0  0  0  0  0  0  0  0  0  0  0  0
   36.9457  -15.4166   38.1159 C   0  0  0  0  0  0  0  0  0  0  0  0
   36.9354  -13.9635   37.5595 C   0  0  0  0  0  0  0  0  0  0  0  0
   38.2872  -13.3898   37.7866 C   0  0  0  0  0  0  0  0  0  0  0  0
   34.3328   -9.9835   37.5857 C   0  0  0  0  0  0  0  0  0  0  0  0
   34.1567   -8.8865   36.6384 C   0  0  0  0  0  0  0  0  0  0  0  0
   35.2131   -8.3710   35.9249 C   0  0  0  0  0  0  0  0  0  0  0  0
   35.0211   -7.3000   35.0435 C   0  0  0  0  0  0  0  0  0  0  0  0
   33.7828   -6.7315   34.8619 C   0  0  0  0  0  0  0  0  0  0  0  0
   32.7186   -7.2510   35.5801 C   0  0  0  0  0  0  0  0  0  0  0  0
   32.9359   -8.2941   36.4301 C   0  0  0  0  0  0  0  0  0  0  0  0
 58 59  1  0  0  0
 59 60  1  0  0  0
 59 57  1  0  0  0
 57 35  1  0  0  0
 35 31  1  0  0  0
 31 32  1  0  0  0
 32 33  2  0  0  0
 32  1  1  0  0  0
  1 61  1  0  0  0
 61 62  1  0  0  0
 62 63  2  0  0  0
 63 64  1  0  0  0
 64 65  2  0  0  0
 65 66  1  0  0  0
 66 67  2  0  0  0
  1  2  1  0  0  0
  2  3  1  0  0  0
  3  4  2  0  0  0
  3  6  1  0  0  0
  6  7  1  0  0  0
  7  8  1  0  0  0
  8  9  2  0  0  0
  8 11  1  0  0  0
 11 12  1  0  0  0
 12 13  1  0  0  0
 13 14  1  0  0  0
 14 15  1  0  0  0
 15 16  1  0  0  0
 16 17  2  0  0  0
 16 18  1  0  0  0
 18 19  1  0  0  0
 18 22  1  0  0  0
 22 23  1  0  0  0
 23 24  2  0  0  0
 24 25  1  0  0  0
 25 26  2  0  0  0
 26 27  1  0  0  0
 26 28  1  0  0  0
 28 29  2  0  0  0
 35 36  1  0  0  0
 36 37  2  0  0  0
 36 38  1  0  0  0
 38 40  1  0  0  0
 40 46  1  0  0  0
 46 47  1  0  0  0
 47 48  2  0  0  0
 48 49  1  0  0  0
 49 50  1  0  0  0
 50 51  2  0  0  0
 51 52  1  0  0  0
 52 53  2  0  0  0
 53 54  1  0  0  0
 54 55  2  0  0  0
 40 41  1  0  0  0
 41 42  1  0  0  0
 41 43  2  0  0  0
 67 62  1  0  0  0
 15 11  1  0  0  0
 29 23  1  0  0  0
 55 47  1  0  0  0
 55 50  1  0  0  0
 31 34  1  0  0  0
  2  5  1  0  0  0
  7 10  1  0  0  0
 19 20  1  0  0  0
 19 21  1  0  0  0
 27 30  1  0  0  0
 38 39  1  0  0  0
 49 56  1  0  0  0
 42 44  1  0  0  0
 42 45  1  0  0  0
M  END
> <minimizedAffinity>
-10.15726

> <CNNscore>
0.4105532765

> <CNNaffinity>
8.2459955215

> <CNN_VS>
3.3854205608

> <CNNaffinity_variance>
0.0961985588

$$$$
[H]Oc1c([H])c([H])c(C([H])([H])[C@@]([H])(C(=O)N2C([H])([H])C([H])([H])C([H])([H])[C@@]2([H])C(=O)N([H])C([H])([H])C(=O)N([H])[C@]([H])(C(=O)N([H])[C@]([H])(C(=O)N([H])[C@]([H])(C(=O)N([H])[H])C([H])([H])c2c([H])n([H])c3c([H])c([H])c([H])c([H])c23)C([H])([H])C([H])(C([H])([H])[H])C([H])([H])[H])C([H])([H])c2c([H])c([H])c([H])c([H])c2[H])N([H])[H])c([H])c1[H]


 67 71  0  0  0  0  0  0  0  0999 V2000
   33.3383  -11.1464   37.5751 C   0  0  0  0  0  0  0  0  0  0  0  0
   32.8097  -11.4096   38.9250 N   0  0  0  0  0  0  0  0  0  0  0  0
   31.8361  -12.3710   39.2524 C   0  0  0  0  0  0  0  0  0  0  0  0
   31.3296  -13.0927   38.3794 O   0  0  0  0  0  0  0  0  0  0  0  0
   33.1987  -10.8017   39.7001 H   0  0  0  0  0  0  0  0  0  0  0  0
   31.3426  -12.5709   40.6506 C   0  0  0  0  0  0  0  0  0  0  0  0
   29.9120  -12.9643   40.6031 N   0  0  0  0  0  0  0  0  0  0  0  0
   29.4218  -13.7097   41.7400 C   0  0  0  0  0  0  0  0  0  0  0  0
   30.2616  -14.0015   42.6693 O   0  0  0  0  0  0  0  0  0  0  0  0
   29.3697  -12.6849   39.7910 H   0  0  0  0  0  0  0  0  0  0  0  0
   28.0554  -14.1395   41.8920 C   0  0  0  0  0  0  0  0  0  0  0  0
   28.0138  -15.7167   41.8170 C   0  0  0  0  0  0  0  0  0  0  0  0
   28.0703  -15.9666   40.3232 C   0  0  0  0  0  0  0  0  0  0  0  0
   27.5209  -14.7182   39.6929 C   0  0  0  0  0  0  0  0  0  0  0  0
   27.1488  -13.8918   40.7986 N   0  0  0  0  0  0  0  0  0  0  0  0
   26.0568  -12.9735   40.8684 C   0  0  0  0  0  0  0  0  0  0  0  0
   25.8788  -12.3303   41.9625 O   0  0  0  0  0  0  0  0  0  0  0  0
   25.1068  -12.6969   39.7925 C   0  0  0  0  0  0  0  0  0  0  0  0
   23.7808  -13.0848   40.1871 N   0  0  0  0  0  0  0  0  0  0  0  0
   23.7556  -13.7673   40.9555 H   0  0  0  0  0  0  0  0  0  0  0  0
   23.2808  -13.4826   39.3672 H   0  0  0  0  0  0  0  0  0  0  0  0
   25.0604  -11.1696   39.5532 C   0  0  0  0  0  0  0  0  0  0  0  0
   26.4535  -10.7173   39.1954 C   0  0  0  0  0  0  0  0  0  0  0  0
   27.1384  -11.4153   38.2182 C   0  0  0  0  0  0  0  0  0  0  0  0
   28.4304  -10.9979   37.9385 C   0  0  0  0  0  0  0  0  0  0  0  0
   29.0049   -9.9283   38.6090 C   0  0  0  0  0  0  0  0  0  0  0  0
   30.3114   -9.5784   38.2685 O   0  0  0  0  0  0  0  0  0  0  0  0
   28.3040   -9.2697   39.5568 C   0  0  0  0  0  0  0  0  0  0  0  0
   26.9914   -9.6691   39.8631 C   0  0  0  0  0  0  0  0  0  0  0  0
   30.7222   -8.7964   38.7716 H   0  0  0  0  0  0  0  0  0  0  0  0
   33.9603  -13.6299   37.3615 N   0  0  0  0  0  0  0  0  0  0  0  0
   34.1299  -12.2822   37.1269 C   0  0  0  0  0  0  0  0  0  0  0  0
   35.1568  -11.9688   36.3905 O   0  0  0  0  0  0  0  0  0  0  0  0
   33.2219  -14.0366   37.9266 H   0  0  0  0  0  0  0  0  0  0  0  0
   34.9623  -14.6158   36.7383 C   0  0  0  0  0  0  0  0  0  0  0  0
   34.1840  -15.4971   35.8883 C   0  0  0  0  0  0  0  0  0  0  0  0
   33.2545  -14.9490   35.1821 O   0  0  0  0  0  0  0  0  0  0  0  0
   34.3674  -16.8824   35.7482 N   0  0  0  0  0  0  0  0  0  0  0  0
   35.0953  -17.3150   36.3558 H   0  0  0  0  0  0  0  0  0  0  0  0
   33.6611  -17.7658   34.8425 C   0  0  0  0  0  0  0  0  0  0  0  0
   32.6197  -18.5300   35.5074 C   0  0  0  0  0  0  0  0  0  0  0  0
   31.2923  -18.5682   34.9489 N   0  0  0  0  0  0  0  0  0  0  0  0
   32.8532  -19.1535   36.5612 O   0  0  0  0  0  0  0  0  0  0  0  0
   30.8396  -19.4689   34.7975 H   0  0  0  0  0  0  0  0  0  0  0  0
   30.8078  -17.6876   34.7019 H   0  0  0  0  0  0  0  0  0  0  0  0
   34.6534  -18.5692   34.0402 C   0  0  0  0  0  0  0  0  0  0  0  0
   36.0282  -18.6003   34.4546 C   0  0  0  0  0  0  0  0  0  0  0  0
   37.0599  -17.9947   33.7480 C   0  0  0  0  0  0  0  0  0  0  0  0
   38.2284  -18.2439   34.3285 N   0  0  0  0  0  0  0  0  0  0  0  0
   37.9701  -19.0134   35.4217 C   0  0  0  0  0  0  0  0  0  0  0  0
   38.8584  -19.5433   36.3628 C   0  0  0  0  0  0  0  0  0  0  0  0
   38.3571  -20.3047   37.3980 C   0  0  0  0  0  0  0  0  0  0  0  0
   37.0083  -20.5268   37.4822 C   0  0  0  0  0  0  0  0  0  0  0  0
   36.1105  -20.0158   36.5657 C   0  0  0  0  0  0  0  0  0  0  0  0
   36.6161  -19.2487   35.5250 C   0  0  0  0  0  0  0  0  0  0  0  0
   39.1838  -17.9339   34.0397 H   0  0  0  0  0  0  0  0  0  0  0  0
   35.7941  -15.0721   37.8465 C   0  0  0  0  0  0  0  0  0  0  0  0
   37.8290  -16.0082   36.9610 C   0  0  0  0  0  0  0  0  0  0  0  0
   37.2483  -14.9078   37.8954 C   0  0  0  0  0  0  0  0  0  0  0  0
   37.8311  -13.6088   37.4698 C   0  0  0  0  0  0  0  0  0  0  0  0
   34.2247   -9.8786   37.7202 C   0  0  0  0  0  0  0  0  0  0  0  0
   34.0299   -8.8750   36.6778 C   0  0  0  0  0  0  0  0  0  0  0  0
   35.0733   -8.4256   35.9030 C   0  0  0  0  0  0  0  0  0  0  0  0
   34.8636   -7.4418   34.9289 C   0  0  0  0  0  0  0  0  0  0  0  0
   33.6206   -6.8956   34.7145 C   0  0  0  0  0  0  0  0  0  0  0  0
   32.5695   -7.3486   35.4945 C   0  0  0  0  0  0  0  0  0  0  0  0
   32.8038   -8.3074   36.4344 C   0  0  0  0  0  0  0  0  0  0  0  0
 58 59  1  0  0  0
 59 60  1  0  0  0
 59 57  1  0  0  0
 57 35  1  0  0  0
 35 31  1  0  0  0
 31 32  1  0  0  0
 32 33  2  0  0  0
 32  1  1  0  0  0
  1 61  1  0  0  0
 61 62  1  0  0  0
 62 63  2  0  0  0
 63 64  1  0  0  0
 64 65  2  0  0  0
 65 66  1  0  0  0
 66 67  2  0  0  0
  1  2  1  0  0  0
  2  3  1  0  0  0
  3  4  2  0  0  0
  3  6  1  0  0  0
  6  7  1  0  0  0
  7  8  1  0  0  0
  8  9  2  0  0  0
  8 11  1  0  0  0
 11 12  1  0  0  0
 12 13  1  0  0  0
 13 14  1  0  0  0
 14 15  1  0  0  0
 15 16  1  0  0  0
 16 17  2  0  0  0
 16 18  1  0  0  0
 18 19  1  0  0  0
 18 22  1  0  0  0
 22 23  1  0  0  0
 23 24  2  0  0  0
 24 25  1  0  0  0
 25 26  2  0  0  0
 26 27  1  0  0  0
 26 28  1  0  0  0
 28 29  2  0  0  0
 35 36  1  0  0  0
 36 37  2  0  0  0
 36 38  1  0  0  0
 38 40  1  0  0  0
 40 46  1  0  0  0
 46 47  1  0  0  0
 47 48  2  0  0  0
 48 49  1  0  0  0
 49 50  1  0  0  0
 50 51  2  0  0  0
 51 52  1  0  0  0
 52 53  2  0  0  0
 53 54  1  0  0  0
 54 55  2  0  0  0
 40 41  1  0  0  0
 41 42  1  0  0  0
 41 43  2  0  0  0
 67 62  1  0  0  0
 15 11  1  0  0  0
 29 23  1  0  0  0
 55 47  1  0  0  0
 55 50  1  0  0  0
 31 34  1  0  0  0
  2  5  1  0  0  0
  7 10  1  0  0  0
 19 20  1  0  0  0
 19 21  1  0  0  0
 27 30  1  0  0  0
 38 39  1  0  0  0
 49 56  1  0  0  0
 42 44  1  0  0  0
 42 45  1  0  0  0
M  END
> <minimizedAffinity>
-10.29568

> <CNNscore>
0.3440390527

> <CNNaffinity>
8.0522661209

> <CNN_VS>
2.7702939510

> <CNNaffinity_variance>
0.2540758252

$$$$
[H]Oc1c([H])c([H])c(C([H])([H])[C@@]([H])(C(=O)N2C([H])([H])C([H])([H])C([H])([H])[C@@]2([H])C(=O)N([H])C([H])([H])C(=O)N([H])[C@]([H])(C(=O)N([H])[C@]([H])(C(=O)N([H])[C@]([H])(C(=O)N([H])[H])C([H])([H])c2c([H])n([H])c3c([H])c([H])c([H])c([H])c23)C([H])([H])C([H])(C([H])([H])[H])C([H])([H])[H])C([H])([H])c2c([H])c([H])c([H])c([H])c2[H])N([H])[H])c([H])c1[H]


 67 71  0  0  0  0  0  0  0  0999 V2000
   33.4984  -13.0930   36.5824 C   0  0  0  0  0  0  0  0  0  0  0  0
   32.6197  -13.3047   37.7460 N   0  0  0  0  0  0  0  0  0  0  0  0
   31.3732  -12.6874   37.9565 C   0  0  0  0  0  0  0  0  0  0  0  0
   30.9122  -11.8787   37.1360 O   0  0  0  0  0  0  0  0  0  0  0  0
   32.9827  -13.9723   38.4836 H   0  0  0  0  0  0  0  0  0  0  0  0
   30.5426  -12.9483   39.1733 C   0  0  0  0  0  0  0  0  0  0  0  0
   29.2717  -12.1897   39.0587 N   0  0  0  0  0  0  0  0  0  0  0  0
   28.4444  -12.1568   40.2432 C   0  0  0  0  0  0  0  0  0  0  0  0
   28.8513  -12.8102   41.2735 O   0  0  0  0  0  0  0  0  0  0  0  0
   29.0655  -11.7404   38.1714 H   0  0  0  0  0  0  0  0  0  0  0  0
   27.2001  -11.4371   40.3361 C   0  0  0  0  0  0  0  0  0  0  0  0
   27.1412  -10.3826   39.1616 C   0  0  0  0  0  0  0  0  0  0  0  0
   27.9934   -9.2528   39.7042 C   0  0  0  0  0  0  0  0  0  0  0  0
   27.9291   -9.3924   41.1989 C   0  0  0  0  0  0  0  0  0  0  0  0
   27.0484  -10.4970   41.4186 N   0  0  0  0  0  0  0  0  0  0  0  0
   26.1343  -10.6776   42.5014 C   0  0  0  0  0  0  0  0  0  0  0  0
   25.4148  -11.7380   42.5127 O   0  0  0  0  0  0  0  0  0  0  0  0
   25.9378   -9.7496   43.6136 C   0  0  0  0  0  0  0  0  0  0  0  0
   24.7560   -8.9606   43.4009 N   0  0  0  0  0  0  0  0  0  0  0  0
   24.4526   -8.9173   42.4196 H   0  0  0  0  0  0  0  0  0  0  0  0
   24.9217   -7.9938   43.7449 H   0  0  0  0  0  0  0  0  0  0  0  0
   25.6892  -10.5672   44.9027 C   0  0  0  0  0  0  0  0  0  0  0  0
   26.9592  -10.5433   45.7150 C   0  0  0  0  0  0  0  0  0  0  0  0
   27.0006   -9.7459   46.8435 C   0  0  0  0  0  0  0  0  0  0  0  0
   28.1944   -9.7170   47.5475 C   0  0  0  0  0  0  0  0  0  0  0  0
   29.2934  -10.4564   47.1363 C   0  0  0  0  0  0  0  0  0  0  0  0
   30.4566  -10.3651   47.9004 O   0  0  0  0  0  0  0  0  0  0  0  0
   29.2147  -11.2252   46.0290 C   0  0  0  0  0  0  0  0  0  0  0  0
   28.0176  -11.2755   45.2936 C   0  0  0  0  0  0  0  0  0  0  0  0
   31.2560  -10.9076   47.5846 H   0  0  0  0  0  0  0  0  0  0  0  0
   33.4679  -15.6365   36.2220 N   0  0  0  0  0  0  0  0  0  0  0  0
   34.0062  -14.3724   36.1103 C   0  0  0  0  0  0  0  0  0  0  0  0
   35.1472  -14.3047   35.4870 O   0  0  0  0  0  0  0  0  0  0  0  0
   32.5967  -15.8616   36.6910 H   0  0  0  0  0  0  0  0  0  0  0  0
   34.2343  -16.8182   35.6050 C   0  0  0  0  0  0  0  0  0  0  0  0
   33.2266  -17.7326   35.1017 C   0  0  0  0  0  0  0  0  0  0  0  0
   32.9771  -17.6810   33.8375 O   0  0  0  0  0  0  0  0  0  0  0  0
   32.5199  -18.6804   35.8596 N   0  0  0  0  0  0  0  0  0  0  0  0
   32.7044  -18.6809   36.8854 H   0  0  0  0  0  0  0  0  0  0  0  0
   31.5748  -19.6604   35.3640 C   0  0  0  0  0  0  0  0  0  0  0  0
   30.2739  -19.0831   35.0721 C   0  0  0  0  0  0  0  0  0  0  0  0
   30.0059  -18.5476   33.7618 N   0  0  0  0  0  0  0  0  0  0  0  0
   29.3811  -19.0378   35.9407 O   0  0  0  0  0  0  0  0  0  0  0  0
   29.1709  -18.8482   33.2603 H   0  0  0  0  0  0  0  0  0  0  0  0
   30.6592  -17.8673   33.3358 H   0  0  0  0  0  0  0  0  0  0  0  0
   31.5692  -20.8646   36.2715 C   0  0  0  0  0  0  0  0  0  0  0  0
   31.3000  -22.1607   35.7143 C   0  0  0  0  0  0  0  0  0  0  0  0
   32.2157  -22.8784   34.9549 C   0  0  0  0  0  0  0  0  0  0  0  0
   31.6713  -24.0084   34.5175 N   0  0  0  0  0  0  0  0  0  0  0  0
   30.3944  -24.0400   34.9893 C   0  0  0  0  0  0  0  0  0  0  0  0
   29.4064  -25.0129   34.8087 C   0  0  0  0  0  0  0  0  0  0  0  0
   28.1699  -24.8235   35.3901 C   0  0  0  0  0  0  0  0  0  0  0  0
   27.9352  -23.6928   36.1264 C   0  0  0  0  0  0  0  0  0  0  0  0
   28.8933  -22.7170   36.3190 C   0  0  0  0  0  0  0  0  0  0  0  0
   30.1376  -22.9094   35.7344 C   0  0  0  0  0  0  0  0  0  0  0  0
   32.0980  -24.7558   33.9245 H   0  0  0  0  0  0  0  0  0  0  0  0
   35.2464  -17.1786   36.5920 C   0  0  0  0  0  0  0  0  0  0  0  0
   37.0934  -15.9001   37.4612 C   0  0  0  0  0  0  0  0  0  0  0  0
   36.6824  -16.9638   36.4024 C   0  0  0  0  0  0  0  0  0  0  0  0
   37.6002  -18.1224   36.5551 C   0  0  0  0  0  0  0  0  0  0  0  0
   34.6570  -12.1960   37.0993 C   0  0  0  0  0  0  0  0  0  0  0  0
   34.5388  -10.7837   36.7482 C   0  0  0  0  0  0  0  0  0  0  0  0
   35.3933  -10.1881   35.8505 C   0  0  0  0  0  0  0  0  0  0  0  0
   35.2752   -8.8250   35.5529 C   0  0  0  0  0  0  0  0  0  0  0  0
   34.3111   -8.0415   36.1412 C   0  0  0  0  0  0  0  0  0  0  0  0
   33.4500   -8.6414   37.0451 C   0  0  0  0  0  0  0  0  0  0  0  0
   33.5888   -9.9703   37.3145 C   0  0  0  0  0  0  0  0  0  0  0  0
 58 59  1  0  0  0
 59 60  1  0  0  0
 59 57  1  0  0  0
 57 35  1  0  0  0
 35 31  1  0  0  0
 31 32  1  0  0  0
 32 33  2  0  0  0
 32  1  1  0  0  0
  1 61  1  0  0  0
 61 62  1  0  0  0
 62 63  2  0  0  0
 63 64  1  0  0  0
 64 65  2  0  0  0
 65 66  1  0  0  0
 66 67  2  0  0  0
  1  2  1  0  0  0
  2  3  1  0  0  0
  3  4  2  0  0  0
  3  6  1  0  0  0
  6  7  1  0  0  0
  7  8  1  0  0  0
  8  9  2  0  0  0
  8 11  1  0  0  0
 11 12  1  0  0  0
 12 13  1  0  0  0
 13 14  1  0  0  0
 14 15  1  0  0  0
 15 16  1  0  0  0
 16 17  2  0  0  0
 16 18  1  0  0  0
 18 19  1  0  0  0
 18 22  1  0  0  0
 22 23  1  0  0  0
 23 24  2  0  0  0
 24 25  1  0  0  0
 25 26  2  0  0  0
 26 27  1  0  0  0
 26 28  1  0  0  0
 28 29  2  0  0  0
 35 36  1  0  0  0
 36 37  2  0  0  0
 36 38  1  0  0  0
 38 40  1  0  0  0
 40 46  1  0  0  0
 46 47  1  0  0  0
 47 48  2  0  0  0
 48 49  1  0  0  0
 49 50  1  0  0  0
 50 51  2  0  0  0
 51 52  1  0  0  0
 52 53  2  0  0  0
 53 54  1  0  0  0
 54 55  2  0  0  0
 40 41  1  0  0  0
 41 42  1  0  0  0
 41 43  2  0  0  0
 67 62  1  0  0  0
 15 11  1  0  0  0
 29 23  1  0  0  0
 55 47  1  0  0  0
 55 50  1  0  0  0
 31 34  1  0  0  0
  2  5  1  0  0  0
  7 10  1  0  0  0
 19 20  1  0  0  0
 19 21  1  0  0  0
 27 30  1  0  0  0
 38 39  1  0  0  0
 49 56  1  0  0  0
 42 44  1  0  0  0
 42 45  1  0  0  0
M  END
> <minimizedAffinity>
-8.85753

> <CNNscore>
0.3143418729

> <CNNaffinity>
7.2461538315

> <CNN_VS>
2.2777695656

> <CNNaffinity_variance>
0.0289253835

$$$$
[H]Oc1c([H])c([H])c(C([H])([H])[C@@]([H])(C(=O)N2C([H])([H])C([H])([H])C([H])([H])[C@@]2([H])C(=O)N([H])C([H])([H])C(=O)N([H])[C@]([H])(C(=O)N([H])[C@]([H])(C(=O)N([H])[C@]([H])(C(=O)N([H])[H])C([H])([H])c2c([H])n([H])c3c([H])c([H])c([H])c([H])c23)C([H])([H])C([H])(C([H])([H])[H])C([H])([H])[H])C([H])([H])c2c([H])c([H])c([H])c([H])c2[H])N([H])[H])c([H])c1[H]


 67 71  0  0  0  0  0  0  0  0999 V2000
   34.1677  -17.9471   34.7128 C   0  0  0  0  0  0  0  0  0  0  0  0
   35.4119  -18.1258   33.9440 N   0  0  0  0  0  0  0  0  0  0  0  0
   36.7170  -18.0256   34.4595 C   0  0  0  0  0  0  0  0  0  0  0  0
   36.9148  -17.7610   35.6554 O   0  0  0  0  0  0  0  0  0  0  0  0
   35.2917  -18.3329   32.9123 H   0  0  0  0  0  0  0  0  0  0  0  0
   37.9335  -18.2113   33.6084 C   0  0  0  0  0  0  0  0  0  0  0  0
   39.0580  -18.6570   34.4691 N   0  0  0  0  0  0  0  0  0  0  0  0
   40.0559  -19.4840   33.8299 C   0  0  0  0  0  0  0  0  0  0  0  0
   39.8719  -19.7948   32.5955 O   0  0  0  0  0  0  0  0  0  0  0  0
   39.0628  -18.3537   35.4384 H   0  0  0  0  0  0  0  0  0  0  0  0
   41.2380  -19.9748   34.4907 C   0  0  0  0  0  0  0  0  0  0  0  0
   41.6149  -21.3772   33.8694 C   0  0  0  0  0  0  0  0  0  0  0  0
   40.6601  -22.3107   34.5861 C   0  0  0  0  0  0  0  0  0  0  0  0
   40.3257  -21.6186   35.8772 C   0  0  0  0  0  0  0  0  0  0  0  0
   41.1069  -20.4213   35.8553 N   0  0  0  0  0  0  0  0  0  0  0  0
   41.7006  -19.7507   36.9681 C   0  0  0  0  0  0  0  0  0  0  0  0
   42.3817  -18.6896   36.7392 O   0  0  0  0  0  0  0  0  0  0  0  0
   41.6046  -20.1701   38.3651 C   0  0  0  0  0  0  0  0  0  0  0  0
   42.4514  -21.3061   38.6032 N   0  0  0  0  0  0  0  0  0  0  0  0
   42.6990  -21.8291   37.7534 H   0  0  0  0  0  0  0  0  0  0  0  0
   41.9822  -21.9507   39.2702 H   0  0  0  0  0  0  0  0  0  0  0  0
   42.1424  -19.0308   39.2622 C   0  0  0  0  0  0  0  0  0  0  0  0
   41.8443  -19.3935   40.6950 C   0  0  0  0  0  0  0  0  0  0  0  0
   40.6683  -20.0664   40.9696 C   0  0  0  0  0  0  0  0  0  0  0  0
   40.4055  -20.3525   42.3004 C   0  0  0  0  0  0  0  0  0  0  0  0
   41.2850  -19.9806   43.3063 C   0  0  0  0  0  0  0  0  0  0  0  0
   40.9402  -20.3037   44.6185 O   0  0  0  0  0  0  0  0  0  0  0  0
   42.4251  -19.3254   42.9991 C   0  0  0  0  0  0  0  0  0  0  0  0
   42.7197  -19.0209   41.6586 C   0  0  0  0  0  0  0  0  0  0  0  0
   41.5908  -20.0203   45.3462 H   0  0  0  0  0  0  0  0  0  0  0  0
   34.2855  -15.4789   35.4156 N   0  0  0  0  0  0  0  0  0  0  0  0
   34.3191  -16.8381   35.6426 C   0  0  0  0  0  0  0  0  0  0  0  0
   34.5174  -17.1926   36.8796 O   0  0  0  0  0  0  0  0  0  0  0  0
   34.1571  -15.0405   34.5094 H   0  0  0  0  0  0  0  0  0  0  0  0
   34.4656  -14.5297   36.6119 C   0  0  0  0  0  0  0  0  0  0  0  0
   33.2510  -13.7397   36.6851 C   0  0  0  0  0  0  0  0  0  0  0  0
   32.6475  -13.5001   35.5709 O   0  0  0  0  0  0  0  0  0  0  0  0
   32.6637  -13.2360   37.8572 N   0  0  0  0  0  0  0  0  0  0  0  0
   33.1855  -13.4042   38.7435 H   0  0  0  0  0  0  0  0  0  0  0  0
   31.4080  -12.5206   37.9624 C   0  0  0  0  0  0  0  0  0  0  0  0
   31.5028  -11.1532   37.4809 C   0  0  0  0  0  0  0  0  0  0  0  0
   32.6944  -10.3849   37.7369 N   0  0  0  0  0  0  0  0  0  0  0  0
   30.5650  -10.6271   36.8505 O   0  0  0  0  0  0  0  0  0  0  0  0
   33.1623   -9.9156   36.9625 H   0  0  0  0  0  0  0  0  0  0  0  0
   33.0703  -10.3156   38.6987 H   0  0  0  0  0  0  0  0  0  0  0  0
   30.8422  -12.6896   39.3499 C   0  0  0  0  0  0  0  0  0  0  0  0
   29.4173  -12.6936   39.5298 C   0  0  0  0  0  0  0  0  0  0  0  0
   28.6532  -13.8516   39.6047 C   0  0  0  0  0  0  0  0  0  0  0  0
   27.3632  -13.5506   39.7039 N   0  0  0  0  0  0  0  0  0  0  0  0
   27.2731  -12.1919   39.6969 C   0  0  0  0  0  0  0  0  0  0  0  0
   26.1385  -11.3783   39.7758 C   0  0  0  0  0  0  0  0  0  0  0  0
   26.2972  -10.0084   39.7477 C   0  0  0  0  0  0  0  0  0  0  0  0
   27.5544   -9.4755   39.6419 C   0  0  0  0  0  0  0  0  0  0  0  0
   28.6903  -10.2569   39.5616 C   0  0  0  0  0  0  0  0  0  0  0  0
   28.5293  -11.6353   39.5911 C   0  0  0  0  0  0  0  0  0  0  0  0
   26.5428  -14.1943   39.7743 H   0  0  0  0  0  0  0  0  0  0  0  0
   35.8015  -13.9643   36.4575 C   0  0  0  0  0  0  0  0  0  0  0  0
   37.0359  -15.2844   38.0496 C   0  0  0  0  0  0  0  0  0  0  0  0
   36.7633  -13.8348   37.5540 C   0  0  0  0  0  0  0  0  0  0  0  0
   38.0795  -13.2047   37.2737 C   0  0  0  0  0  0  0  0  0  0  0  0
   33.9607  -19.2840   35.4771 C   0  0  0  0  0  0  0  0  0  0  0  0
   32.5931  -19.7950   35.4539 C   0  0  0  0  0  0  0  0  0  0  0  0
   32.3088  -21.1120   35.7285 C   0  0  0  0  0  0  0  0  0  0  0  0
   30.9910  -21.5820   35.6718 C   0  0  0  0  0  0  0  0  0  0  0  0
   29.9454  -20.7526   35.3429 C   0  0  0  0  0  0  0  0  0  0  0  0
   30.2316  -19.4258   35.0669 C   0  0  0  0  0  0  0  0  0  0  0  0
   31.5238  -18.9970   35.1306 C   0  0  0  0  0  0  0  0  0  0  0  0
 58 59  1  0  0  0
 59 60  1  0  0  0
 59 57  1  0  0  0
 57 35  1  0  0  0
 35 31  1  0  0  0
 31 32  1  0  0  0
 32 33  2  0  0  0
 32  1  1  0  0  0
  1 61  1  0  0  0
 61 62  1  0  0  0
 62 63  2  0  0  0
 63 64  1  0  0  0
 64 65  2  0  0  0
 65 66  1  0  0  0
 66 67  2  0  0  0
  1  2  1  0  0  0
  2  3  1  0  0  0
  3  4  2  0  0  0
  3  6  1  0  0  0
  6  7  1  0  0  0
  7  8  1  0  0  0
  8  9  2  0  0  0
  8 11  1  0  0  0
 11 12  1  0  0  0
 12 13  1  0  0  0
 13 14  1  0  0  0
 14 15  1  0  0  0
 15 16  1  0  0  0
 16 17  2  0  0  0
 16 18  1  0  0  0
 18 19  1  0  0  0
 18 22  1  0  0  0
 22 23  1  0  0  0
 23 24  2  0  0  0
 24 25  1  0  0  0
 25 26  2  0  0  0
 26 27  1  0  0  0
 26 28  1  0  0  0
 28 29  2  0  0  0
 35 36  1  0  0  0
 36 37  2  0  0  0
 36 38  1  0  0  0
 38 40  1  0  0  0
 40 46  1  0  0  0
 46 47  1  0  0  0
 47 48  2  0  0  0
 48 49  1  0  0  0
 49 50  1  0  0  0
 50 51  2  0  0  0
 51 52  1  0  0  0
 52 53  2  0  0  0
 53 54  1  0  0  0
 54 55  2  0  0  0
 40 41  1  0  0  0
 41 42  1  0  0  0
 41 43  2  0  0  0
 67 62  1  0  0  0
 15 11  1  0  0  0
 29 23  1  0  0  0
 55 47  1  0  0  0
 55 50  1  0  0  0
 31 34  1  0  0  0
  2  5  1  0  0  0
  7 10  1  0  0  0
 19 20  1  0  0  0
 19 21  1  0  0  0
 27 30  1  0  0  0
 38 39  1  0  0  0
 49 56  1  0  0  0
 42 44  1  0  0  0
 42 45  1  0  0  0
M  END
> <minimizedAffinity>
-8.96543

> <CNNscore>
0.3109194040

> <CNNaffinity>
7.3970093727

> <CNN_VS>
2.2998738289

> <CNNaffinity_variance>
0.2003704011

$$$$
[H]OC([H])([H])[C@@]1(O[H])C([H])([H])[C@@]2([H])O[C@]1(C([H])([H])[H])n1c3c([H])c([H])c([H])c([H])c3c3c4c(c5c6c([H])c([H])c([H])c([H])c6n2c5c31)C(=O)N([H])C4([H])[H]


 36 43  0  0  0  0  0  0  0  0999 V2000
   40.9077  -20.5785   34.2737 C   0  0  0  0  0  0  0  0  0  0  0  0
   40.2038  -20.5813   35.5874 C   0  0  0  0  0  0  0  0  0  0  0  0
   38.9550  -21.1446   35.2051 O   0  0  0  0  0  0  0  0  0  0  0  0
   37.9733  -20.6693   36.0053 C   0  0  0  0  0  0  0  0  0  0  0  0
   38.3335  -19.2951   36.3785 C   0  0  0  0  0  0  0  0  0  0  0  0
   39.8144  -19.2189   36.0800 C   0  0  0  0  0  0  0  0  0  0  0  0
   40.4411  -18.8690   37.2667 O   0  0  0  0  0  0  0  0  0  0  0  0
   37.7518  -21.5687   37.1452 N   0  0  0  0  0  0  0  0  0  0  0  0
   36.6171  -21.9167   37.7273 C   0  0  0  0  0  0  0  0  0  0  0  0
   35.3412  -21.5223   37.4182 C   0  0  0  0  0  0  0  0  0  0  0  0
   34.2927  -22.0255   38.1785 C   0  0  0  0  0  0  0  0  0  0  0  0
   34.5296  -22.8950   39.2121 C   0  0  0  0  0  0  0  0  0  0  0  0
   35.8317  -23.2996   39.5301 C   0  0  0  0  0  0  0  0  0  0  0  0
   36.8538  -22.7993   38.7769 C   0  0  0  0  0  0  0  0  0  0  0  0
   38.2181  -22.9781   38.8104 C   0  0  0  0  0  0  0  0  0  0  0  0
   39.0674  -23.7130   39.6175 C   0  0  0  0  0  0  0  0  0  0  0  0
   38.8847  -24.6110   40.7436 C   0  0  0  0  0  0  0  0  0  0  0  0
   37.8605  -24.9804   41.3203 O   0  0  0  0  0  0  0  0  0  0  0  0
   40.1815  -25.0637   41.1451 N   0  0  0  0  0  0  0  0  0  0  0  0
   41.2053  -24.4776   40.3145 C   0  0  0  0  0  0  0  0  0  0  0  0
   40.4255  -23.6425   39.3686 C   0  0  0  0  0  0  0  0  0  0  0  0
   40.9523  -22.8647   38.3433 C   0  0  0  0  0  0  0  0  0  0  0  0
   42.2029  -22.5913   37.8862 C   0  0  0  0  0  0  0  0  0  0  0  0
   43.4277  -23.0355   38.3282 C   0  0  0  0  0  0  0  0  0  0  0  0
   44.5850  -22.5818   37.6883 C   0  0  0  0  0  0  0  0  0  0  0  0
   44.4565  -21.6994   36.6307 C   0  0  0  0  0  0  0  0  0  0  0  0
   43.2126  -21.2671   36.2048 C   0  0  0  0  0  0  0  0  0  0  0  0
   42.0622  -21.7012   36.8183 C   0  0  0  0  0  0  0  0  0  0  0  0
   40.7462  -21.4281   36.6111 N   0  0  0  0  0  0  0  0  0  0  0  0
   40.0895  -22.1604   37.5729 C   0  0  0  0  0  0  0  0  0  0  0  0
   38.7300  -22.2045   37.7911 C   0  0  0  0  0  0  0  0  0  0  0  0
   40.4939  -17.8839   37.3089 H   0  0  0  0  0  0  0  0  0  0  0  0
   40.4023  -25.7317   41.9324 H   0  0  0  0  0  0  0  0  0  0  0  0
   40.0338  -18.1296   35.0856 C   0  0  0  0  0  0  0  0  0  0  0  0
   41.4068  -17.9961   34.8763 O   0  0  0  0  0  0  0  0  0  0  0  0
   41.7712  -17.1571   35.2573 H   0  0  0  0  0  0  0  0  0  0  0  0
  2  1  1  0  0  0
  2  3  1  0  0  0
  3  4  1  0  0  0
  4  5  1  0  0  0
  5  6  1  0  0  0
  6  7  1  0  0  0
  6 34  1  0  0  0
 34 35  1  0  0  0
  4  8  1  0  0  0
  8  9  1  0  0  0
  9 10  2  0  0  0
 10 11  1  0  0  0
 11 12  2  0  0  0
 12 13  1  0  0  0
 13 14  2  0  0  0
 14 15  1  0  0  0
 15 16  2  0  0  0
 16 17  1  0  0  0
 17 18  2  0  0  0
 17 19  1  0  0  0
 19 20  1  0  0  0
 20 21  1  0  0  0
 21 22  2  0  0  0
 22 23  1  0  0  0
 23 24  2  0  0  0
 24 25  1  0  0  0
 25 26  2  0  0  0
 26 27  1  0  0  0
 27 28  2  0  0  0
 28 29  1  0  0  0
 29 30  1  0  0  0
 30 31  2  0  0  0
  6  2  1  0  0  0
 31  8  1  0  0  0
 29  2  1  0  0  0
 14  9  1  0  0  0
 31 15  1  0  0  0
 21 16  1  0  0  0
 30 22  1  0  0  0
 28 23  1  0  0  0
  7 32  1  0  0  0
 35 36  1  0  0  0
 19 33  1  0  0  0
M  END
> <minimizedAffinity>
-2.50162

> <CNNscore>
0.5190642476

> <CNNaffinity>
5.1964340210

> <CNN_VS>
2.6972830296

> <CNNaffinity_variance>
0.4939349294

$$$$
[H]OC([H])([H])[C@@]1(O[H])C([H])([H])[C@@]2([H])O[C@]1(C([H])([H])[H])n1c3c([H])c([H])c([H])c([H])c3c3c4c(c5c6c([H])c([H])c([H])c([H])c6n2c5c31)C(=O)N([H])C4([H])[H]


 36 43  0  0  0  0  0  0  0  0999 V2000
   38.6043  -20.6176   33.4727 C   0  0  0  0  0  0  0  0  0  0  0  0
   38.7738  -20.4526   34.9442 C   0  0  0  0  0  0  0  0  0  0  0  0
   37.4662  -20.7911   35.3900 O   0  0  0  0  0  0  0  0  0  0  0  0
   37.1829  -20.1213   36.5307 C   0  0  0  0  0  0  0  0  0  0  0  0
   37.8697  -18.8246   36.4643 C   0  0  0  0  0  0  0  0  0  0  0  0
   38.9164  -19.0277   35.3914 C   0  0  0  0  0  0  0  0  0  0  0  0
   40.1441  -18.7615   35.9791 O   0  0  0  0  0  0  0  0  0  0  0  0
   37.5277  -20.9304   37.7070 N   0  0  0  0  0  0  0  0  0  0  0  0
   36.8870  -21.0487   38.8572 C   0  0  0  0  0  0  0  0  0  0  0  0
   35.7261  -20.4387   39.2562 C   0  0  0  0  0  0  0  0  0  0  0  0
   35.2357  -20.7198   40.5255 C   0  0  0  0  0  0  0  0  0  0  0  0
   35.8975  -21.5860   41.3576 C   0  0  0  0  0  0  0  0  0  0  0  0
   37.0835  -22.2104   40.9527 C   0  0  0  0  0  0  0  0  0  0  0  0
   37.5560  -21.9272   39.7042 C   0  0  0  0  0  0  0  0  0  0  0  0
   38.6617  -22.3497   39.0018 C   0  0  0  0  0  0  0  0  0  0  0  0
   39.7118  -23.2017   39.2920 C   0  0  0  0  0  0  0  0  0  0  0  0
   40.0805  -24.0169   40.4354 C   0  0  0  0  0  0  0  0  0  0  0  0
   39.5238  -24.1764   41.5229 O   0  0  0  0  0  0  0  0  0  0  0  0
   41.3030  -24.6851   40.1084 N   0  0  0  0  0  0  0  0  0  0  0  0
   41.7445  -24.3202   38.7842 C   0  0  0  0  0  0  0  0  0  0  0  0
   40.6858  -23.3865   38.3285 C   0  0  0  0  0  0  0  0  0  0  0  0
   40.6382  -22.7489   37.0936 C   0  0  0  0  0  0  0  0  0  0  0  0
   41.4339  -22.7212   35.9919 C   0  0  0  0  0  0  0  0  0  0  0  0
   42.6218  -23.3668   35.7370 C   0  0  0  0  0  0  0  0  0  0  0  0
   43.2622  -23.1504   34.5133 C   0  0  0  0  0  0  0  0  0  0  0  0
   42.6769  -22.2920   33.6000 C   0  0  0  0  0  0  0  0  0  0  0  0
   41.4809  -21.6542   33.8803 C   0  0  0  0  0  0  0  0  0  0  0  0
   40.8338  -21.8533   35.0760 C   0  0  0  0  0  0  0  0  0  0  0  0
   39.6817  -21.3522   35.5966 N   0  0  0  0  0  0  0  0  0  0  0  0
   39.5938  -21.9235   36.8450 C   0  0  0  0  0  0  0  0  0  0  0  0
   38.6047  -21.7133   37.7806 C   0  0  0  0  0  0  0  0  0  0  0  0
   40.3419  -17.8015   35.8591 H   0  0  0  0  0  0  0  0  0  0  0  0
   41.8392  -25.3578   40.7206 H   0  0  0  0  0  0  0  0  0  0  0  0
   38.6774  -18.0271   34.3120 C   0  0  0  0  0  0  0  0  0  0  0  0
   37.4101  -17.4740   34.4987 O   0  0  0  0  0  0  0  0  0  0  0  0
   36.7624  -17.7614   33.8060 H   0  0  0  0  0  0  0  0  0  0  0  0
  2  1  1  0  0  0
  2  3  1  0  0  0
  3  4  1  0  0  0
  4  5  1  0  0  0
  5  6  1  0  0  0
  6  7  1  0  0  0
  6 34  1  0  0  0
 34 35  1  0  0  0
  4  8  1  0  0  0
  8  9  1  0  0  0
  9 10  2  0  0  0
 10 11  1  0  0  0
 11 12  2  0  0  0
 12 13  1  0  0  0
 13 14  2  0  0  0
 14 15  1  0  0  0
 15 16  2  0  0  0
 16 17  1  0  0  0
 17 18  2  0  0  0
 17 19  1  0  0  0
 19 20  1  0  0  0
 20 21  1  0  0  0
 21 22  2  0  0  0
 22 23  1  0  0  0
 23 24  2  0  0  0
 24 25  1  0  0  0
 25 26  2  0  0  0
 26 27  1  0  0  0
 27 28  2  0  0  0
 28 29  1  0  0  0
 29 30  1  0  0  0
 30 31  2  0  0  0
  6  2  1  0  0  0
 31  8  1  0  0  0
 29  2  1  0  0  0
 14  9  1  0  0  0
 31 15  1  0  0  0
 21 16  1  0  0  0
 30 22  1  0  0  0
 28 23  1  0  0  0
  7 32  1  0  0  0
 35 36  1  0  0  0
 19 33  1  0  0  0
M  END
> <minimizedAffinity>
-3.46072

> <CNNscore>
0.4768095613

> <CNNaffinity>
5.0164899826

> <CNN_VS>
2.3919103146

> <CNNaffinity_variance>
0.1995955408

$$$$
[H]OC([H])([H])[C@@]1(O[H])C([H])([H])[C@@]2([H])O[C@]1(C([H])([H])[H])n1c3c([H])c([H])c([H])c([H])c3c3c4c(c5c6c([H])c([H])c([H])c([H])c6n2c5c31)C(=O)N([H])C4([H])[H]


 36 43  0  0  0  0  0  0  0  0999 V2000
   37.2010  -21.3350   36.9298 C   0  0  0  0  0  0  0  0  0  0  0  0
   35.8250  -21.0457   37.4239 C   0  0  0  0  0  0  0  0  0  0  0  0
   35.0856  -21.1952   36.2181 O   0  0  0  0  0  0  0  0  0  0  0  0
   33.9988  -20.3900   36.2436 C   0  0  0  0  0  0  0  0  0  0  0  0
   34.3570  -19.1881   37.0083 C   0  0  0  0  0  0  0  0  0  0  0  0
   35.5885  -19.6077   37.7798 C   0  0  0  0  0  0  0  0  0  0  0  0
   35.2987  -19.4195   39.1229 O   0  0  0  0  0  0  0  0  0  0  0  0
   32.8297  -21.1123   36.7620 N   0  0  0  0  0  0  0  0  0  0  0  0
   31.5675  -21.0471   36.3748 C   0  0  0  0  0  0  0  0  0  0  0  0
   31.0160  -20.2789   35.3825 C   0  0  0  0  0  0  0  0  0  0  0  0
   29.6492  -20.3792   35.1532 C   0  0  0  0  0  0  0  0  0  0  0  0
   28.8724  -21.2261   35.9015 C   0  0  0  0  0  0  0  0  0  0  0  0
   29.4330  -22.0120   36.9156 C   0  0  0  0  0  0  0  0  0  0  0  0
   30.7762  -21.9055   37.1322 C   0  0  0  0  0  0  0  0  0  0  0  0
   31.6337  -22.5121   38.0218 C   0  0  0  0  0  0  0  0  0  0  0  0
   31.4641  -23.4401   39.0331 C   0  0  0  0  0  0  0  0  0  0  0  0
   30.3311  -24.1742   39.5673 C   0  0  0  0  0  0  0  0  0  0  0  0
   29.1421  -24.1651   39.2448 O   0  0  0  0  0  0  0  0  0  0  0  0
   30.8184  -24.9997   40.6299 N   0  0  0  0  0  0  0  0  0  0  0  0
   32.2384  -24.8165   40.8071 C   0  0  0  0  0  0  0  0  0  0  0  0
   32.5768  -23.8230   39.7588 C   0  0  0  0  0  0  0  0  0  0  0  0
   33.8428  -23.3082   39.5025 C   0  0  0  0  0  0  0  0  0  0  0  0
   35.0787  -23.4751   40.0433 C   0  0  0  0  0  0  0  0  0  0  0  0
   35.4915  -24.2673   41.0896 C   0  0  0  0  0  0  0  0  0  0  0  0
   36.8368  -24.2427   41.4692 C   0  0  0  0  0  0  0  0  0  0  0  0
   37.7072  -23.4197   40.7773 C   0  0  0  0  0  0  0  0  0  0  0  0
   37.2672  -22.6318   39.7279 C   0  0  0  0  0  0  0  0  0  0  0  0
   35.9498  -22.6414   39.3372 C   0  0  0  0  0  0  0  0  0  0  0  0
   35.2689  -21.9699   38.3703 N   0  0  0  0  0  0  0  0  0  0  0  0
   33.9700  -22.4030   38.5033 C   0  0  0  0  0  0  0  0  0  0  0  0
   32.8844  -21.9961   37.7591 C   0  0  0  0  0  0  0  0  0  0  0  0
   35.5695  -18.5030   39.3716 H   0  0  0  0  0  0  0  0  0  0  0  0
   30.2526  -25.6631   41.2253 H   0  0  0  0  0  0  0  0  0  0  0  0
   36.7077  -18.6979   37.4014 C   0  0  0  0  0  0  0  0  0  0  0  0
   36.2227  -17.3897   37.3817 O   0  0  0  0  0  0  0  0  0  0  0  0
   36.1611  -17.0193   36.4648 H   0  0  0  0  0  0  0  0  0  0  0  0
  2  1  1  0  0  0
  2  3  1  0  0  0
  3  4  1  0  0  0
  4  5  1  0  0  0
  5  6  1  0  0  0
  6  7  1  0  0  0
  6 34  1  0  0  0
 34 35  1  0  0  0
  4  8  1  0  0  0
  8  9  1  0  0  0
  9 10  2  0  0  0
 10 11  1  0  0  0
 11 12  2  0  0  0
 12 13  1  0  0  0
 13 14  2  0  0  0
 14 15  1  0  0  0
 15 16  2  0  0  0
 16 17  1  0  0  0
 17 18  2  0  0  0
 17 19  1  0  0  0
 19 20  1  0  0  0
 20 21  1  0  0  0
 21 22  2  0  0  0
 22 23  1  0  0  0
 23 24  2  0  0  0
 24 25  1  0  0  0
 25 26  2  0  0  0
 26 27  1  0  0  0
 27 28  2  0  0  0
 28 29  1  0  0  0
 29 30  1  0  0  0
 30 31  2  0  0  0
  6  2  1  0  0  0
 31  8  1  0  0  0
 29  2  1  0  0  0
 14  9  1  0  0  0
 31 15  1  0  0  0
 21 16  1  0  0  0
 30 22  1  0  0  0
 28 23  1  0  0  0
  7 32  1  0  0  0
 35 36  1  0  0  0
 19 33  1  0  0  0
M  END
> <minimizedAffinity>
-4.41859

> <CNNscore>
0.4702917635

> <CNNaffinity>
4.6526031494

> <CNN_VS>
2.1880810261

> <CNNaffinity_variance>
0.1913258135

$$$$
[H]OC([H])([H])[C@@]1(O[H])C([H])([H])[C@@]2([H])O[C@]1(C([H])([H])[H])n1c3c([H])c([H])c([H])c([H])c3c3c4c(c5c6c([H])c([H])c([H])c([H])c6n2c5c31)C(=O)N([H])C4([H])[H]


 36 43  0  0  0  0  0  0  0  0999 V2000
   36.9920  -20.2377   34.4550 C   0  0  0  0  0  0  0  0  0  0  0  0
   36.6617  -19.1976   35.4701 C   0  0  0  0  0  0  0  0  0  0  0  0
   37.7430  -18.2954   35.2702 O   0  0  0  0  0  0  0  0  0  0  0  0
   38.0318  -17.6616   36.4300 C   0  0  0  0  0  0  0  0  0  0  0  0
   37.7514  -18.5974   37.5269 C   0  0  0  0  0  0  0  0  0  0  0  0
   36.8584  -19.6391   36.8902 C   0  0  0  0  0  0  0  0  0  0  0  0
   35.6815  -19.6549   37.6237 O   0  0  0  0  0  0  0  0  0  0  0  0
   37.3066  -16.3876   36.5198 N   0  0  0  0  0  0  0  0  0  0  0  0
   37.7132  -15.2265   37.0036 C   0  0  0  0  0  0  0  0  0  0  0  0
   38.9268  -14.9078   37.5556 C   0  0  0  0  0  0  0  0  0  0  0  0
   39.1279  -13.6070   38.0006 C   0  0  0  0  0  0  0  0  0  0  0  0
   38.1363  -12.6662   37.8898 C   0  0  0  0  0  0  0  0  0  0  0  0
   36.8958  -12.9888   37.3265 C   0  0  0  0  0  0  0  0  0  0  0  0
   36.7092  -14.2692   36.8927 C   0  0  0  0  0  0  0  0  0  0  0  0
   35.6447  -14.9147   36.3054 C   0  0  0  0  0  0  0  0  0  0  0  0
   34.3680  -14.5229   35.9461 C   0  0  0  0  0  0  0  0  0  0  0  0
   33.6231  -13.2786   36.0153 C   0  0  0  0  0  0  0  0  0  0  0  0
   33.9478  -12.1692   36.4417 O   0  0  0  0  0  0  0  0  0  0  0  0
   32.3244  -13.5259   35.4677 N   0  0  0  0  0  0  0  0  0  0  0  0
   32.2010  -14.9015   35.0505 C   0  0  0  0  0  0  0  0  0  0  0  0
   33.5331  -15.4666   35.3773 C   0  0  0  0  0  0  0  0  0  0  0  0
   33.9370  -16.7793   35.1594 C   0  0  0  0  0  0  0  0  0  0  0  0
   33.3508  -17.8967   34.6540 C   0  0  0  0  0  0  0  0  0  0  0  0
   32.0806  -18.0889   34.1615 C   0  0  0  0  0  0  0  0  0  0  0  0
   31.7123  -19.3608   33.7131 C   0  0  0  0  0  0  0  0  0  0  0  0
   32.6411  -20.3838   33.7814 C   0  0  0  0  0  0  0  0  0  0  0  0
   33.9130  -20.1650   34.2813 C   0  0  0  0  0  0  0  0  0  0  0  0
   34.2965  -18.9227   34.7261 C   0  0  0  0  0  0  0  0  0  0  0  0
   35.4536  -18.4514   35.2634 N   0  0  0  0  0  0  0  0  0  0  0  0
   35.1948  -17.1253   35.5226 C   0  0  0  0  0  0  0  0  0  0  0  0
   36.0552  -16.2131   36.0932 C   0  0  0  0  0  0  0  0  0  0  0  0
   35.7791  -20.3173   38.3495 H   0  0  0  0  0  0  0  0  0  0  0  0
   31.5382  -12.8286   35.3650 H   0  0  0  0  0  0  0  0  0  0  0  0
   37.5224  -20.9674   37.0253 C   0  0  0  0  0  0  0  0  0  0  0  0
   38.5632  -20.8463   37.9467 O   0  0  0  0  0  0  0  0  0  0  0  0
   39.4570  -20.9056   37.5229 H   0  0  0  0  0  0  0  0  0  0  0  0
  2  1  1  0  0  0
  2  3  1  0  0  0
  3  4  1  0  0  0
  4  5  1  0  0  0
  5  6  1  0  0  0
  6  7  1  0  0  0
  6 34  1  0  0  0
 34 35  1  0  0  0
  4  8  1  0  0  0
  8  9  1  0  0  0
  9 10  2  0  0  0
 10 11  1  0  0  0
 11 12  2  0  0  0
 12 13  1  0  0  0
 13 14  2  0  0  0
 14 15  1  0  0  0
 15 16  2  0  0  0
 16 17  1  0  0  0
 17 18  2  0  0  0
 17 19  1  0  0  0
 19 20  1  0  0  0
 20 21  1  0  0  0
 21 22  2  0  0  0
 22 23  1  0  0  0
 23 24  2  0  0  0
 24 25  1  0  0  0
 25 26  2  0  0  0
 26 27  1  0  0  0
 27 28  2  0  0  0
 28 29  1  0  0  0
 29 30  1  0  0  0
 30 31  2  0  0  0
  6  2  1  0  0  0
 31  8  1  0  0  0
 29  2  1  0  0  0
 14  9  1  0  0  0
 31 15  1  0  0  0
 21 16  1  0  0  0
 30 22  1  0  0  0
 28 23  1  0  0  0
  7 32  1  0  0  0
 35 36  1  0  0  0
 19 33  1  0  0  0
M  END
> <minimizedAffinity>
2.43783

> <CNNscore>
0.4258829355

> <CNNaffinity>
5.2684025764

> <CNN_VS>
2.2437226772

> <CNNaffinity_variance>
0.3669317663

$$$$
[H]OC([H])([H])[C@@]1(O[H])C([H])([H])[C@@]2([H])O[C@]1(C([H])([H])[H])n1c3c([H])c([H])c([H])c([H])c3c3c4c(c5c6c([H])c([H])c([H])c([H])c6n2c5c31)C(=O)N([H])C4([H])[H]


 36 43  0  0  0  0  0  0  0  0999 V2000
   34.8870  -12.2894   35.5755 C   0  0  0  0  0  0  0  0  0  0  0  0
   34.5958  -13.6246   36.1702 C   0  0  0  0  0  0  0  0  0  0  0  0
   33.9505  -14.2566   35.0714 O   0  0  0  0  0  0  0  0  0  0  0  0
   33.0546  -15.1630   35.5252 C   0  0  0  0  0  0  0  0  0  0  0  0
   32.5152  -14.6549   36.7934 C   0  0  0  0  0  0  0  0  0  0  0  0
   33.5234  -13.6107   37.2191 C   0  0  0  0  0  0  0  0  0  0  0  0
   33.9819  -13.9891   38.4720 O   0  0  0  0  0  0  0  0  0  0  0  0
   33.6654  -16.4956   35.6168 N   0  0  0  0  0  0  0  0  0  0  0  0
   33.1407  -17.6766   35.3387 C   0  0  0  0  0  0  0  0  0  0  0  0
   31.8778  -17.9676   34.8922 C   0  0  0  0  0  0  0  0  0  0  0  0
   31.5483  -19.2984   34.6660 C   0  0  0  0  0  0  0  0  0  0  0  0
   32.4647  -20.2950   34.8842 C   0  0  0  0  0  0  0  0  0  0  0  0
   33.7554  -20.0007   35.3401 C   0  0  0  0  0  0  0  0  0  0  0  0
   34.0681  -18.6905   35.5590 C   0  0  0  0  0  0  0  0  0  0  0  0
   35.2107  -18.0594   35.9957 C   0  0  0  0  0  0  0  0  0  0  0  0
   36.4598  -18.5051   36.3878 C   0  0  0  0  0  0  0  0  0  0  0  0
   37.0963  -19.8062   36.4862 C   0  0  0  0  0  0  0  0  0  0  0  0
   36.6670  -20.9331   36.2337 O   0  0  0  0  0  0  0  0  0  0  0  0
   38.4286  -19.5961   36.9646 N   0  0  0  0  0  0  0  0  0  0  0  0
   38.6741  -18.1920   37.1879 C   0  0  0  0  0  0  0  0  0  0  0  0
   37.3883  -17.5652   36.7951 C   0  0  0  0  0  0  0  0  0  0  0  0
   37.1043  -16.2042   36.8198 C   0  0  0  0  0  0  0  0  0  0  0  0
   37.7858  -15.0838   37.1776 C   0  0  0  0  0  0  0  0  0  0  0  0
   39.0659  -14.9382   37.6603 C   0  0  0  0  0  0  0  0  0  0  0  0
   39.5298  -13.6579   37.9767 C   0  0  0  0  0  0  0  0  0  0  0  0
   38.6823  -12.5802   37.7930 C   0  0  0  0  0  0  0  0  0  0  0  0
   37.3983  -12.7528   37.3059 C   0  0  0  0  0  0  0  0  0  0  0  0
   36.9223  -14.0019   36.9873 C   0  0  0  0  0  0  0  0  0  0  0  0
   35.7248  -14.4404   36.5149 N   0  0  0  0  0  0  0  0  0  0  0  0
   35.8712  -15.8055   36.4270 C   0  0  0  0  0  0  0  0  0  0  0  0
   34.9192  -16.7125   36.0158 C   0  0  0  0  0  0  0  0  0  0  0  0
   33.4012  -13.5710   39.1524 H   0  0  0  0  0  0  0  0  0  0  0  0
   39.1604  -20.3360   37.1428 H   0  0  0  0  0  0  0  0  0  0  0  0
   32.8159  -12.3041   37.3449 C   0  0  0  0  0  0  0  0  0  0  0  0
   31.6942  -12.3305   36.5155 O   0  0  0  0  0  0  0  0  0  0  0  0
   31.7865  -11.7342   35.7295 H   0  0  0  0  0  0  0  0  0  0  0  0
  2  1  1  0  0  0
  2  3  1  0  0  0
  3  4  1  0  0  0
  4  5  1  0  0  0
  5  6  1  0  0  0
  6  7  1  0  0  0
  6 34  1  0  0  0
 34 35  1  0  0  0
  4  8  1  0  0  0
  8  9  1  0  0  0
  9 10  2  0  0  0
 10 11  1  0  0  0
 11 12  2  0  0  0
 12 13  1  0  0  0
 13 14  2  0  0  0
 14 15  1  0  0  0
 15 16  2  0  0  0
 16 17  1  0  0  0
 17 18  2  0  0  0
 17 19  1  0  0  0
 19 20  1  0  0  0
 20 21  1  0  0  0
 21 22  2  0  0  0
 22 23  1  0  0  0
 23 24  2  0  0  0
 24 25  1  0  0  0
 25 26  2  0  0  0
 26 27  1  0  0  0
 27 28  2  0  0  0
 28 29  1  0  0  0
 29 30  1  0  0  0
 30 31  2  0  0  0
  6  2  1  0  0  0
 31  8  1  0  0  0
 29  2  1  0  0  0
 14  9  1  0  0  0
 31 15  1  0  0  0
 21 16  1  0  0  0
 30 22  1  0  0  0
 28 23  1  0  0  0
  7 32  1  0  0  0
 35 36  1  0  0  0
 19 33  1  0  0  0
M  END
> <minimizedAffinity>
4.11246

> <CNNscore>
0.4218677878

> <CNNaffinity>
5.5063371658

> <CNN_VS>
2.3229463100

> <CNNaffinity_variance>
0.1401888728

$$$$
[H]OC([H])([H])[C@@]1(O[H])C([H])([H])[C@@]2([H])O[C@]1(C([H])([H])[H])n1c3c([H])c([H])c([H])c([H])c3c3c4c(c5c6c([H])c([H])c([H])c([H])c6n2c5c31)C(=O)N([H])C4([H])[H]


 36 43  0  0  0  0  0  0  0  0999 V2000
   30.5730  -19.3064   35.5455 C   0  0  0  0  0  0  0  0  0  0  0  0
   31.7001  -20.2619   35.7400 C   0  0  0  0  0  0  0  0  0  0  0  0
   32.5225  -19.5083   36.6224 O   0  0  0  0  0  0  0  0  0  0  0  0
   33.8209  -19.8374   36.4327 C   0  0  0  0  0  0  0  0  0  0  0  0
   33.9893  -20.1714   35.0122 C   0  0  0  0  0  0  0  0  0  0  0  0
   32.5777  -20.4320   34.5353 C   0  0  0  0  0  0  0  0  0  0  0  0
   32.5621  -21.7225   34.0276 O   0  0  0  0  0  0  0  0  0  0  0  0
   34.2268  -20.9032   37.3582 N   0  0  0  0  0  0  0  0  0  0  0  0
   35.3704  -21.0603   38.0023 C   0  0  0  0  0  0  0  0  0  0  0  0
   36.4861  -20.2645   37.9707 C   0  0  0  0  0  0  0  0  0  0  0  0
   37.5821  -20.6342   38.7406 C   0  0  0  0  0  0  0  0  0  0  0  0
   37.5474  -21.7672   39.5125 C   0  0  0  0  0  0  0  0  0  0  0  0
   36.4093  -22.5818   39.5467 C   0  0  0  0  0  0  0  0  0  0  0  0
   35.3387  -22.2093   38.7868 C   0  0  0  0  0  0  0  0  0  0  0  0
   34.0933  -22.7605   38.5870 C   0  0  0  0  0  0  0  0  0  0  0  0
   33.4615  -23.8951   39.0624 C   0  0  0  0  0  0  0  0  0  0  0  0
   33.8280  -24.9622   39.9760 C   0  0  0  0  0  0  0  0  0  0  0  0
   34.8660  -25.1571   40.6106 O   0  0  0  0  0  0  0  0  0  0  0  0
   32.7143  -25.8571   40.0580 N   0  0  0  0  0  0  0  0  0  0  0  0
   31.6343  -25.4048   39.2151 C   0  0  0  0  0  0  0  0  0  0  0  0
   32.1766  -24.1568   38.6243 C   0  0  0  0  0  0  0  0  0  0  0  0
   31.5124  -23.3219   37.7325 C   0  0  0  0  0  0  0  0  0  0  0  0
   30.2946  -23.3307   37.1286 C   0  0  0  0  0  0  0  0  0  0  0  0
   29.2626  -24.2357   37.2220 C   0  0  0  0  0  0  0  0  0  0  0  0
   28.1035  -24.0224   36.4700 C   0  0  0  0  0  0  0  0  0  0  0  0
   28.0358  -22.9059   35.6562 C   0  0  0  0  0  0  0  0  0  0  0  0
   29.0880  -22.0100   35.5794 C   0  0  0  0  0  0  0  0  0  0  0  0
   30.2359  -22.1994   36.3107 C   0  0  0  0  0  0  0  0  0  0  0  0
   31.3957  -21.4956   36.4067 N   0  0  0  0  0  0  0  0  0  0  0  0
   32.1626  -22.2194   37.2902 C   0  0  0  0  0  0  0  0  0  0  0  0
   33.4437  -21.9259   37.7032 C   0  0  0  0  0  0  0  0  0  0  0  0
   32.7793  -21.6782   33.0654 H   0  0  0  0  0  0  0  0  0  0  0  0
   32.6506  -26.7355   40.6404 H   0  0  0  0  0  0  0  0  0  0  0  0
   32.2771  -19.4801   33.4275 C   0  0  0  0  0  0  0  0  0  0  0  0
   32.9964  -18.3055   33.6506 O   0  0  0  0  0  0  0  0  0  0  0  0
   32.4152  -17.5449   33.9067 H   0  0  0  0  0  0  0  0  0  0  0  0
  2  1  1  0  0  0
  2  3  1  0  0  0
  3  4  1  0  0  0
  4  5  1  0  0  0
  5  6  1  0  0  0
  6  7  1  0  0  0
  6 34  1  0  0  0
 34 35  1  0  0  0
  4  8  1  0  0  0
  8  9  1  0  0  0
  9 10  2  0  0  0
 10 11  1  0  0  0
 11 12  2  0  0  0
 12 13  1  0  0  0
 13 14  2  0  0  0
 14 15  1  0  0  0
 15 16  2  0  0  0
 16 17  1  0  0  0
 17 18  2  0  0  0
 17 19  1  0  0  0
 19 20  1  0  0  0
 20 21  1  0  0  0
 21 22  2  0  0  0
 22 23  1  0  0  0
 23 24  2  0  0  0
 24 25  1  0  0  0
 25 26  2  0  0  0
 26 27  1  0  0  0
 27 28  2  0  0  0
 28 29  1  0  0  0
 29 30  1  0  0  0
 30 31  2  0  0  0
  6  2  1  0  0  0
 31  8  1  0  0  0
 29  2  1  0  0  0
 14  9  1  0  0  0
 31 15  1  0  0  0
 21 16  1  0  0  0
 30 22  1  0  0  0
 28 23  1  0  0  0
  7 32  1  0  0  0
 35 36  1  0  0  0
 19 33  1  0  0  0
M  END
> <minimizedAffinity>
-5.45711

> <CNNscore>
0.4024246335

> <CNNaffinity>
4.6571936607

> <CNN_VS>
1.8741694689

> <CNNaffinity_variance>
0.5176367760

$$$$
[H]OC([H])([H])[C@@]1(O[H])C([H])([H])[C@@]2([H])O[C@]1(C([H])([H])[H])n1c3c([H])c([H])c([H])c([H])c3c3c4c(c5c6c([H])c([H])c([H])c([H])c6n2c5c31)C(=O)N([H])C4([H])[H]


 36 43  0  0  0  0  0  0  0  0999 V2000
   41.4564  -21.2852   33.6044 C   0  0  0  0  0  0  0  0  0  0  0  0
   40.6818  -20.6048   34.6807 C   0  0  0  0  0  0  0  0  0  0  0  0
   39.3717  -21.0735   34.3856 O   0  0  0  0  0  0  0  0  0  0  0  0
   38.4584  -20.1490   34.7615 C   0  0  0  0  0  0  0  0  0  0  0  0
   39.0689  -18.8253   34.5803 C   0  0  0  0  0  0  0  0  0  0  0  0
   40.5500  -19.1214   34.5004 C   0  0  0  0  0  0  0  0  0  0  0  0
   41.1556  -18.3936   35.5138 O   0  0  0  0  0  0  0  0  0  0  0  0
   37.9814  -20.4150   36.1249 N   0  0  0  0  0  0  0  0  0  0  0  0
   36.7634  -20.2911   36.6235 C   0  0  0  0  0  0  0  0  0  0  0  0
   35.6196  -19.8747   35.9932 C   0  0  0  0  0  0  0  0  0  0  0  0
   34.4419  -19.8243   36.7289 C   0  0  0  0  0  0  0  0  0  0  0  0
   34.4256  -20.1825   38.0526 C   0  0  0  0  0  0  0  0  0  0  0  0
   35.5923  -20.6081   38.6989 C   0  0  0  0  0  0  0  0  0  0  0  0
   36.7431  -20.6538   37.9669 C   0  0  0  0  0  0  0  0  0  0  0  0
   38.0360  -21.0130   38.2735 C   0  0  0  0  0  0  0  0  0  0  0  0
   38.6602  -21.4471   39.4288 C   0  0  0  0  0  0  0  0  0  0  0  0
   38.2222  -21.7240   40.7850 C   0  0  0  0  0  0  0  0  0  0  0  0
   37.1080  -21.6388   41.3039 O   0  0  0  0  0  0  0  0  0  0  0  0
   39.3684  -22.1551   41.5255 N   0  0  0  0  0  0  0  0  0  0  0  0
   40.5437  -22.1587   40.6886 C   0  0  0  0  0  0  0  0  0  0  0  0
   40.0170  -21.7072   39.3774 C   0  0  0  0  0  0  0  0  0  0  0  0
   40.7595  -21.5472   38.2126 C   0  0  0  0  0  0  0  0  0  0  0  0
   42.0670  -21.7012   37.8744 C   0  0  0  0  0  0  0  0  0  0  0  0
   43.1420  -22.0958   38.6371 C   0  0  0  0  0  0  0  0  0  0  0  0
   44.4076  -22.1547   38.0461 C   0  0  0  0  0  0  0  0  0  0  0  0
   44.5341  -21.8127   36.7117 C   0  0  0  0  0  0  0  0  0  0  0  0
   43.4370  -21.4186   35.9656 C   0  0  0  0  0  0  0  0  0  0  0  0
   42.1838  -21.3549   36.5258 C   0  0  0  0  0  0  0  0  0  0  0  0
   40.9690  -20.9954   36.0313 N   0  0  0  0  0  0  0  0  0  0  0  0
   40.1134  -21.1222   37.1010 C   0  0  0  0  0  0  0  0  0  0  0  0
   38.7626  -20.8517   37.1135 C   0  0  0  0  0  0  0  0  0  0  0  0
   41.4076  -17.5104   35.1512 H   0  0  0  0  0  0  0  0  0  0  0  0
   39.3941  -22.4393   42.5420 H   0  0  0  0  0  0  0  0  0  0  0  0
   41.0546  -18.6233   33.1886 C   0  0  0  0  0  0  0  0  0  0  0  0
   40.3252  -17.4858   32.8408 O   0  0  0  0  0  0  0  0  0  0  0  0
   39.7138  -17.6432   32.0771 H   0  0  0  0  0  0  0  0  0  0  0  0
  2  1  1  0  0  0
  2  3  1  0  0  0
  3  4  1  0  0  0
  4  5  1  0  0  0
  5  6  1  0  0  0
  6  7  1  0  0  0
  6 34  1  0  0  0
 34 35  1  0  0  0
  4  8  1  0  0  0
  8  9  1  0  0  0
  9 10  2  0  0  0
 10 11  1  0  0  0
 11 12  2  0  0  0
 12 13  1  0  0  0
 13 14  2  0  0  0
 14 15  1  0  0  0
 15 16  2  0  0  0
 16 17  1  0  0  0
 17 18  2  0  0  0
 17 19  1  0  0  0
 19 20  1  0  0  0
 20 21  1  0  0  0
 21 22  2  0  0  0
 22 23  1  0  0  0
 23 24  2  0  0  0
 24 25  1  0  0  0
 25 26  2  0  0  0
 26 27  1  0  0  0
 27 28  2  0  0  0
 28 29  1  0  0  0
 29 30  1  0  0  0
 30 31  2  0  0  0
  6  2  1  0  0  0
 31  8  1  0  0  0
 29  2  1  0  0  0
 14  9  1  0  0  0
 31 15  1  0  0  0
 21 16  1  0  0  0
 30 22  1  0  0  0
 28 23  1  0  0  0
  7 32  1  0  0  0
 35 36  1  0  0  0
 19 33  1  0  0  0
M  END
> <minimizedAffinity>
-5.76259

> <CNNscore>
0.3963257670

> <CNNaffinity>
4.8879919052

> <CNN_VS>
1.9372371435

> <CNNaffinity_variance>
0.1395575255

$$$$
[H]OC([H])([H])[C@@]1(O[H])C([H])([H])[C@@]2([H])O[C@]1(C([H])([H])[H])n1c3c([H])c([H])c([H])c([H])c3c3c4c(c5c6c([H])c([H])c([H])c([H])c6n2c5c31)C(=O)N([H])C4([H])[H]


 36 43  0  0  0  0  0  0  0  0999 V2000
   39.9020  -18.3867   33.9056 C   0  0  0  0  0  0  0  0  0  0  0  0
   39.7312  -19.5763   34.7870 C   0  0  0  0  0  0  0  0  0  0  0  0
   40.7557  -19.3331   35.7431 O   0  0  0  0  0  0  0  0  0  0  0  0
   41.2236  -20.5082   36.2230 C   0  0  0  0  0  0  0  0  0  0  0  0
   41.1363  -21.4949   35.1384 C   0  0  0  0  0  0  0  0  0  0  0  0
   40.1621  -20.8711   34.1638 C   0  0  0  0  0  0  0  0  0  0  0  0
   39.1213  -21.7746   34.0098 O   0  0  0  0  0  0  0  0  0  0  0  0
   40.5096  -20.8896   37.4485 N   0  0  0  0  0  0  0  0  0  0  0  0
   40.9776  -21.4586   38.5460 C   0  0  0  0  0  0  0  0  0  0  0  0
   42.2617  -21.8476   38.8268 C   0  0  0  0  0  0  0  0  0  0  0  0
   42.5192  -22.4312   40.0612 C   0  0  0  0  0  0  0  0  0  0  0  0
   41.5131  -22.6130   40.9751 C   0  0  0  0  0  0  0  0  0  0  0  0
   40.2006  -22.2167   40.6911 C   0  0  0  0  0  0  0  0  0  0  0  0
   39.9590  -21.6446   39.4758 C   0  0  0  0  0  0  0  0  0  0  0  0
   38.8197  -21.1518   38.8812 C   0  0  0  0  0  0  0  0  0  0  0  0
   37.4973  -21.0601   39.2758 C   0  0  0  0  0  0  0  0  0  0  0  0
   36.7608  -21.4204   40.4739 C   0  0  0  0  0  0  0  0  0  0  0  0
   37.1391  -21.9394   41.5254 O   0  0  0  0  0  0  0  0  0  0  0  0
   35.3927  -21.0593   40.2603 N   0  0  0  0  0  0  0  0  0  0  0  0
   35.2172  -20.4800   38.9507 C   0  0  0  0  0  0  0  0  0  0  0  0
   36.5906  -20.5070   38.3908 C   0  0  0  0  0  0  0  0  0  0  0  0
   36.9671  -20.0466   37.1339 C   0  0  0  0  0  0  0  0  0  0  0  0
   36.3180  -19.4913   36.0765 C   0  0  0  0  0  0  0  0  0  0  0  0
   34.9864  -19.1872   35.9111 C   0  0  0  0  0  0  0  0  0  0  0  0
   34.5631  -18.6311   34.7002 C   0  0  0  0  0  0  0  0  0  0  0  0
   35.5012  -18.4065   33.7087 C   0  0  0  0  0  0  0  0  0  0  0  0
   36.8355  -18.7213   33.8995 C   0  0  0  0  0  0  0  0  0  0  0  0
   37.2735  -19.2673   35.0821 C   0  0  0  0  0  0  0  0  0  0  0  0
   38.4978  -19.6721   35.5141 N   0  0  0  0  0  0  0  0  0  0  0  0
   38.2710  -20.1514   36.7835 C   0  0  0  0  0  0  0  0  0  0  0  0
   39.2035  -20.6979   37.6378 C   0  0  0  0  0  0  0  0  0  0  0  0
   39.3432  -22.3759   33.2587 H   0  0  0  0  0  0  0  0  0  0  0  0
   34.5930  -21.1822   40.9388 H   0  0  0  0  0  0  0  0  0  0  0  0
   40.8532  -20.7117   32.8521 C   0  0  0  0  0  0  0  0  0  0  0  0
   42.0027  -21.5025   32.8625 O   0  0  0  0  0  0  0  0  0  0  0  0
   42.8349  -20.9657   32.8973 H   0  0  0  0  0  0  0  0  0  0  0  0
  2  1  1  0  0  0
  2  3  1  0  0  0
  3  4  1  0  0  0
  4  5  1  0  0  0
  5  6  1  0  0  0
  6  7  1  0  0  0
  6 34  1  0  0  0
 34 35  1  0  0  0
  4  8  1  0  0  0
  8  9  1  0  0  0
  9 10  2  0  0  0
 10 11  1  0  0  0
 11 12  2  0  0  0
 12 13  1  0  0  0
 13 14  2  0  0  0
 14 15  1  0  0  0
 15 16  2  0  0  0
 16 17  1  0  0  0
 17 18  2  0  0  0
 17 19  1  0  0  0
 19 20  1  0  0  0
 20 21  1  0  0  0
 21 22  2  0  0  0
 22 23  1  0  0  0
 23 24  2  0  0  0
 24 25  1  0  0  0
 25 26  2  0  0  0
 26 27  1  0  0  0
 27 28  2  0  0  0
 28 29  1  0  0  0
 29 30  1  0  0  0
 30 31  2  0  0  0
  6  2  1  0  0  0
 31  8  1  0  0  0
 29  2  1  0  0  0
 14  9  1  0  0  0
 31 15  1  0  0  0
 21 16  1  0  0  0
 30 22  1  0  0  0
 28 23  1  0  0  0
  7 32  1  0  0  0
 35 36  1  0  0  0
 19 33  1  0  0  0
M  END
> <minimizedAffinity>
-6.41346

> <CNNscore>
0.3938021660

> <CNNaffinity>
4.8714742661

> <CNN_VS>
1.9183970690

> <CNNaffinity_variance>
0.3315862715

$$$$
[H]OC([H])([H])[C@@]1(O[H])C([H])([H])[C@@]2([H])O[C@]1(C([H])([H])[H])n1c3c([H])c([H])c([H])c([H])c3c3c4c(c5c6c([H])c([H])c([H])c([H])c6n2c5c31)C(=O)N([H])C4([H])[H]


 36 43  0  0  0  0  0  0  0  0999 V2000
   34.6526  -10.9907   34.9026 C   0  0  0  0  0  0  0  0  0  0  0  0
   33.9337  -10.8935   36.2045 C   0  0  0  0  0  0  0  0  0  0  0  0
   32.8117  -10.1099   35.8170 O   0  0  0  0  0  0  0  0  0  0  0  0
   32.3877   -9.3664   36.8646 C   0  0  0  0  0  0  0  0  0  0  0  0
   33.5676   -9.0231   37.6694 C   0  0  0  0  0  0  0  0  0  0  0  0
   34.6117  -10.0203   37.2185 C   0  0  0  0  0  0  0  0  0  0  0  0
   35.0150  -10.7122   38.3506 O   0  0  0  0  0  0  0  0  0  0  0  0
   31.3318  -10.0685   37.6058 N   0  0  0  0  0  0  0  0  0  0  0  0
   30.2390   -9.5809   38.1675 C   0  0  0  0  0  0  0  0  0  0  0  0
   29.8053   -8.2812   38.2081 C   0  0  0  0  0  0  0  0  0  0  0  0
   28.6119   -8.0041   38.8635 C   0  0  0  0  0  0  0  0  0  0  0  0
   27.8868   -9.0067   39.4547 C   0  0  0  0  0  0  0  0  0  0  0  0
   28.3274  -10.3351   39.4149 C   0  0  0  0  0  0  0  0  0  0  0  0
   29.5007  -10.5959   38.7686 C   0  0  0  0  0  0  0  0  0  0  0  0
   30.2100  -11.7537   38.5433 C   0  0  0  0  0  0  0  0  0  0  0  0
   30.0162  -13.0779   38.8919 C   0  0  0  0  0  0  0  0  0  0  0  0
   28.9884  -13.8044   39.6156 C   0  0  0  0  0  0  0  0  0  0  0  0
   27.9496  -13.4115   40.1490 O   0  0  0  0  0  0  0  0  0  0  0  0
   29.3718  -15.1830   39.6351 N   0  0  0  0  0  0  0  0  0  0  0  0
   30.6271  -15.3724   38.9495 C   0  0  0  0  0  0  0  0  0  0  0  0
   30.9690  -14.0003   38.5013 C   0  0  0  0  0  0  0  0  0  0  0  0
   32.0997  -13.6377   37.7776 C   0  0  0  0  0  0  0  0  0  0  0  0
   33.1822  -14.2971   37.2866 C   0  0  0  0  0  0  0  0  0  0  0  0
   33.5185  -15.6294   37.3565 C   0  0  0  0  0  0  0  0  0  0  0  0
   34.7171  -16.0575   36.7781 C   0  0  0  0  0  0  0  0  0  0  0  0
   35.5246  -15.1233   36.1546 C   0  0  0  0  0  0  0  0  0  0  0  0
   35.1640  -13.7882   36.0977 C   0  0  0  0  0  0  0  0  0  0  0  0
   33.9899  -13.3458   36.6583 C   0  0  0  0  0  0  0  0  0  0  0  0
   33.4184  -12.1154   36.7526 N   0  0  0  0  0  0  0  0  0  0  0  0
   32.2543  -12.3321   37.4531 C   0  0  0  0  0  0  0  0  0  0  0  0
   31.3270  -11.3838   37.8256 C   0  0  0  0  0  0  0  0  0  0  0  0
   35.7803  -10.2323   38.7494 H   0  0  0  0  0  0  0  0  0  0  0  0
   28.8404  -15.9808   40.0777 H   0  0  0  0  0  0  0  0  0  0  0  0
   35.7785   -9.2624   36.6819 C   0  0  0  0  0  0  0  0  0  0  0  0
   35.4082   -7.9240   36.5467 O   0  0  0  0  0  0  0  0  0  0  0  0
   35.3195   -7.6463   35.5997 H   0  0  0  0  0  0  0  0  0  0  0  0
  2  1  1  0  0  0
  2  3  1  0  0  0
  3  4  1  0  0  0
  4  5  1  0  0  0
  5  6  1  0  0  0
  6  7  1  0  0  0
  6 34  1  0  0  0
 34 35  1  0  0  0
  4  8  1  0  0  0
  8  9  1  0  0  0
  9 10  2  0  0  0
 10 11  1  0  0  0
 11 12  2  0  0  0
 12 13  1  0  0  0
 13 14  2  0  0  0
 14 15  1  0  0  0
 15 16  2  0  0  0
 16 17  1  0  0  0
 17 18  2  0  0  0
 17 19  1  0  0  0
 19 20  1  0  0  0
 20 21  1  0  0  0
 21 22  2  0  0  0
 22 23  1  0  0  0
 23 24  2  0  0  0
 24 25  1  0  0  0
 25 26  2  0  0  0
 26 27  1  0  0  0
 27 28  2  0  0  0
 28 29  1  0  0  0
 29 30  1  0  0  0
 30 31  2  0  0  0
  6  2  1  0  0  0
 31  8  1  0  0  0
 29  2  1  0  0  0
 14  9  1  0  0  0
 31 15  1  0  0  0
 21 16  1  0  0  0
 30 22  1  0  0  0
 28 23  1  0  0  0
  7 32  1  0  0  0
 35 36  1  0  0  0
 19 33  1  0  0  0
M  END
> <minimizedAffinity>
22.99475

> <CNNscore>
0.3818517923

> <CNNaffinity>
5.8708062172

> <CNN_VS>
2.2417778969

> <CNNaffinity_variance>
0.3232588172

$$$$
