[H]c1c([H])c([H])c2c(c1[H])c1c3c(c4c5c([H])c([H])c([H])c([H])c5n5c4c1n2[C@@]1([H])O[C@]5(C([H])([H])[H])[C@@]([H])(OC([H])([H])[H])[C@@]([H])(N([H])C([H])([H])[H])C1([H])[H])C([H])([H])N([H])C3=O


 37 44  0  0  0  0  0  0  0  0999 V2000
  -88.1855   25.9693   -0.1464 C   0  0  0  0  0  0  0  0  0  0  0  0
  -87.1306   26.4856    0.7424 C   0  0  0  0  0  0  0  0  0  0  0  0
  -87.5406   27.6169    1.6271 C   0  0  0  0  0  0  0  0  0  0  0  0
  -88.8074   27.9025    1.7650 O   0  0  0  0  0  0  0  0  0  0  0  0
  -89.7549   27.7392    0.7809 C   0  0  0  0  0  0  0  0  0  0  0  0
  -91.0483   27.7442    1.6219 C   0  0  0  0  0  0  0  0  0  0  0  0
  -89.5935   26.4228    0.1679 C   0  0  0  0  0  0  0  0  0  0  0  0
  -89.7079   28.8952   -0.0988 N   0  0  0  0  0  0  0  0  0  0  0  0
  -90.6811   29.4021   -0.8623 C   0  0  0  0  0  0  0  0  0  0  0  0
  -91.9654   29.0072   -1.0900 C   0  0  0  0  0  0  0  0  0  0  0  0
  -92.7801   29.7287   -1.9497 C   0  0  0  0  0  0  0  0  0  0  0  0
  -92.3513   30.8563   -2.6065 C   0  0  0  0  0  0  0  0  0  0  0  0
  -91.0374   31.2721   -2.3827 C   0  0  0  0  0  0  0  0  0  0  0  0
  -90.2531   30.5367   -1.5249 C   0  0  0  0  0  0  0  0  0  0  0  0
  -88.9379   30.7345   -1.1439 C   0  0  0  0  0  0  0  0  0  0  0  0
  -87.9883   31.6962   -1.4600 C   0  0  0  0  0  0  0  0  0  0  0  0
  -88.1089   32.8716   -2.3752 C   0  0  0  0  0  0  0  0  0  0  0  0
  -86.8393   33.5372   -2.3149 N   0  0  0  0  0  0  0  0  0  0  0  0
  -85.9657   32.8218   -1.4453 C   0  0  0  0  0  0  0  0  0  0  0  0
  -84.8075   33.1954   -1.2438 O   0  0  0  0  0  0  0  0  0  0  0  0
  -86.7131   31.6874   -0.9338 C   0  0  0  0  0  0  0  0  0  0  0  0
  -86.4236   30.6561   -0.0648 C   0  0  0  0  0  0  0  0  0  0  0  0
  -85.2952   30.2959    0.6409 C   0  0  0  0  0  0  0  0  0  0  0  0
  -84.0417   30.8253    0.7605 C   0  0  0  0  0  0  0  0  0  0  0  0
  -83.1197   30.1846    1.5873 C   0  0  0  0  0  0  0  0  0  0  0  0
  -83.4196   29.0381    2.2901 C   0  0  0  0  0  0  0  0  0  0  0  0
  -84.6860   28.5050    2.1676 C   0  0  0  0  0  0  0  0  0  0  0  0
  -85.5848   29.1286    1.3624 C   0  0  0  0  0  0  0  0  0  0  0  0
  -86.8509   28.8044    1.0929 N   0  0  0  0  0  0  0  0  0  0  0  0
  -87.3720   29.6986    0.2480 C   0  0  0  0  0  0  0  0  0  0  0  0
  -88.6430   29.7356   -0.2929 C   0  0  0  0  0  0  0  0  0  0  0  0
  -86.6027   34.4272   -2.8445 H   0  0  0  0  0  0  0  0  0  0  0  0
  -86.6321   26.9423   -1.5989 C   0  0  0  0  0  0  0  0  0  0  0  0
  -87.9132   26.2680   -1.5586 N   0  0  0  0  0  0  0  0  0  0  0  0
  -87.8403   25.4272   -2.1385 H   0  0  0  0  0  0  0  0  0  0  0  0
  -90.3044   26.1510   -0.9906 O   0  0  0  0  0  0  0  0  0  0  0  0
  -91.2256   25.1456   -0.8985 C   0  0  0  0  0  0  0  0  0  0  0  0
 33 34  1  0  0  0
 34  1  1  0  0  0
  1  2  1  0  0  0
  2  3  1  0  0  0
  3  4  1  0  0  0
  4  5  1  0  0  0
  5  6  1  0  0  0
  5  7  1  0  0  0
  7 36  1  0  0  0
 36 37  1  0  0  0
  5  8  1  0  0  0
  8  9  1  0  0  0
  9 10  2  0  0  0
 10 11  1  0  0  0
 11 12  2  0  0  0
 12 13  1  0  0  0
 13 14  2  0  0  0
 14 15  1  0  0  0
 15 16  2  0  0  0
 16 17  1  0  0  0
 17 18  1  0  0  0
 18 19  1  0  0  0
 19 20  2  0  0  0
 19 21  1  0  0  0
 21 22  2  0  0  0
 22 23  1  0  0  0
 23 24  2  0  0  0
 24 25  1  0  0  0
 25 26  2  0  0  0
 26 27  1  0  0  0
 27 28  2  0  0  0
 28 29  1  0  0  0
 29 30  1  0  0  0
 30 31  2  0  0  0
  7  1  1  0  0  0
 31  8  1  0  0  0
 29  3  1  0  0  0
 14  9  1  0  0  0
 31 15  1  0  0  0
 21 16  1  0  0  0
 30 22  1  0  0  0
 28 23  1  0  0  0
 34 35  1  0  0  0
 18 32  1  0  0  0
M  END
> <minimizedAffinity>
-10.88776

> <CNNscore>
0.4939234257

> <CNNaffinity>
6.9002966881

> <CNN_VS>
3.4082181454

> <CNNaffinity_variance>
0.1545022726

$$$$
[H]c1c([H])c([H])c2c(c1[H])c1c3c(c4c5c([H])c([H])c([H])c([H])c5n5c4c1n2[C@@]1([H])O[C@]5(C([H])([H])[H])[C@@]([H])(OC([H])([H])[H])[C@@]([H])(N([H])C([H])([H])[H])C1([H])[H])C([H])([H])N([H])C3=O


 37 44  0  0  0  0  0  0  0  0999 V2000
  -88.3905   27.3909   -1.3457 C   0  0  0  0  0  0  0  0  0  0  0  0
  -87.5705   27.1197   -0.1527 C   0  0  0  0  0  0  0  0  0  0  0  0
  -87.7299   28.0973    0.9652 C   0  0  0  0  0  0  0  0  0  0  0  0
  -88.7267   28.9407    0.9484 O   0  0  0  0  0  0  0  0  0  0  0  0
  -89.2761   29.4754   -0.1941 C   0  0  0  0  0  0  0  0  0  0  0  0
  -90.6431   29.9522    0.3390 C   0  0  0  0  0  0  0  0  0  0  0  0
  -89.4937   28.4103   -1.1702 C   0  0  0  0  0  0  0  0  0  0  0  0
  -88.4625   30.6056   -0.6099 N   0  0  0  0  0  0  0  0  0  0  0  0
  -88.8235   31.6731   -1.3291 C   0  0  0  0  0  0  0  0  0  0  0  0
  -90.0024   32.0261   -1.9146 C   0  0  0  0  0  0  0  0  0  0  0  0
  -90.1075   33.2152   -2.6207 C   0  0  0  0  0  0  0  0  0  0  0  0
  -89.0556   34.0860   -2.7681 C   0  0  0  0  0  0  0  0  0  0  0  0
  -87.8416   33.7366   -2.1736 C   0  0  0  0  0  0  0  0  0  0  0  0
  -87.7674   32.5514   -1.4796 C   0  0  0  0  0  0  0  0  0  0  0  0
  -86.6954   31.9855   -0.8128 C   0  0  0  0  0  0  0  0  0  0  0  0
  -85.3837   32.3878   -0.6027 C   0  0  0  0  0  0  0  0  0  0  0  0
  -84.6921   33.6250   -1.0766 C   0  0  0  0  0  0  0  0  0  0  0  0
  -83.3571   33.5417   -0.5577 N   0  0  0  0  0  0  0  0  0  0  0  0
  -83.2028   32.3264    0.1707 C   0  0  0  0  0  0  0  0  0  0  0  0
  -82.1311   32.0236    0.7011 O   0  0  0  0  0  0  0  0  0  0  0  0
  -84.4799   31.6382    0.1214 C   0  0  0  0  0  0  0  0  0  0  0  0
  -84.9527   30.4476    0.6329 C   0  0  0  0  0  0  0  0  0  0  0  0
  -84.3797   29.4383    1.3772 C   0  0  0  0  0  0  0  0  0  0  0  0
  -83.1350   29.2361    1.9022 C   0  0  0  0  0  0  0  0  0  0  0  0
  -82.8943   28.0683    2.6253 C   0  0  0  0  0  0  0  0  0  0  0  0
  -83.8602   27.1081    2.8332 C   0  0  0  0  0  0  0  0  0  0  0  0
  -85.1165   27.3143    2.3019 C   0  0  0  0  0  0  0  0  0  0  0  0
  -85.3517   28.4515    1.5974 C   0  0  0  0  0  0  0  0  0  0  0  0
  -86.4718   28.8637    1.0004 N   0  0  0  0  0  0  0  0  0  0  0  0
  -86.2606   30.0490    0.4214 C   0  0  0  0  0  0  0  0  0  0  0  0
  -87.1441   30.8233   -0.3060 C   0  0  0  0  0  0  0  0  0  0  0  0
  -82.6094   34.2820   -0.7036 H   0  0  0  0  0  0  0  0  0  0  0  0
  -86.1922   27.5744   -2.1222 C   0  0  0  0  0  0  0  0  0  0  0  0
  -87.5735   27.7949   -2.4977 N   0  0  0  0  0  0  0  0  0  0  0  0
  -87.7606   27.2373   -3.3360 H   0  0  0  0  0  0  0  0  0  0  0  0
  -89.8318   28.7712   -2.4652 O   0  0  0  0  0  0  0  0  0  0  0  0
  -91.1087   28.4719   -2.8497 C   0  0  0  0  0  0  0  0  0  0  0  0
 33 34  1  0  0  0
 34  1  1  0  0  0
  1  2  1  0  0  0
  2  3  1  0  0  0
  3  4  1  0  0  0
  4  5  1  0  0  0
  5  6  1  0  0  0
  5  7  1  0  0  0
  7 36  1  0  0  0
 36 37  1  0  0  0
  5  8  1  0  0  0
  8  9  1  0  0  0
  9 10  2  0  0  0
 10 11  1  0  0  0
 11 12  2  0  0  0
 12 13  1  0  0  0
 13 14  2  0  0  0
 14 15  1  0  0  0
 15 16  2  0  0  0
 16 17  1  0  0  0
 17 18  1  0  0  0
 18 19  1  0  0  0
 19 20  2  0  0  0
 19 21  1  0  0  0
 21 22  2  0  0  0
 22 23  1  0  0  0
 23 24  2  0  0  0
 24 25  1  0  0  0
 25 26  2  0  0  0
 26 27  1  0  0  0
 27 28  2  0  0  0
 28 29  1  0  0  0
 29 30  1  0  0  0
 30 31  2  0  0  0
  7  1  1  0  0  0
 31  8  1  0  0  0
 29  3  1  0  0  0
 14  9  1  0  0  0
 31 15  1  0  0  0
 21 16  1  0  0  0
 30 22  1  0  0  0
 28 23  1  0  0  0
 34 35  1  0  0  0
 18 32  1  0  0  0
M  END
> <minimizedAffinity>
-9.95777

> <CNNscore>
0.2291288078

> <CNNaffinity>
6.5785737038

> <CNN_VS>
1.5073407888

> <CNNaffinity_variance>
0.5726304054

$$$$
[H]c1c([H])c([H])c2c(c1[H])c1c3c(c4c5c([H])c([H])c([H])c([H])c5n5c4c1n2[C@@]1([H])O[C@]5(C([H])([H])[H])[C@@]([H])(OC([H])([H])[H])[C@@]([H])(N([H])C([H])([H])[H])C1([H])[H])C([H])([H])N([H])C3=O


 37 44  0  0  0  0  0  0  0  0999 V2000
  -89.1233   30.2082   -3.1858 C   0  0  0  0  0  0  0  0  0  0  0  0
  -89.8584   29.3425   -2.2479 C   0  0  0  0  0  0  0  0  0  0  0  0
  -89.9411   29.8490   -0.8453 C   0  0  0  0  0  0  0  0  0  0  0  0
  -89.6173   31.0871   -0.5856 O   0  0  0  0  0  0  0  0  0  0  0  0
  -88.6528   31.7987   -1.2611 C   0  0  0  0  0  0  0  0  0  0  0  0
  -89.0497   33.2435   -0.8937 C   0  0  0  0  0  0  0  0  0  0  0  0
  -88.8306   31.6097   -2.6989 C   0  0  0  0  0  0  0  0  0  0  0  0
  -87.3553   31.4621   -0.6993 N   0  0  0  0  0  0  0  0  0  0  0  0
  -86.2370   32.1944   -0.6860 C   0  0  0  0  0  0  0  0  0  0  0  0
  -85.9407   33.4219   -1.1985 C   0  0  0  0  0  0  0  0  0  0  0  0
  -84.6728   33.9615   -1.0406 C   0  0  0  0  0  0  0  0  0  0  0  0
  -83.6655   33.3067   -0.3749 C   0  0  0  0  0  0  0  0  0  0  0  0
  -83.9552   32.0479    0.1550 C   0  0  0  0  0  0  0  0  0  0  0  0
  -85.2212   31.5385   -0.0172 C   0  0  0  0  0  0  0  0  0  0  0  0
  -85.7507   30.3313    0.4028 C   0  0  0  0  0  0  0  0  0  0  0  0
  -85.2327   29.2608    1.1186 C   0  0  0  0  0  0  0  0  0  0  0  0
  -83.8566   29.0774    1.6719 C   0  0  0  0  0  0  0  0  0  0  0  0
  -83.8753   27.8047    2.3341 N   0  0  0  0  0  0  0  0  0  0  0  0
  -85.1622   27.2097    2.1892 C   0  0  0  0  0  0  0  0  0  0  0  0
  -85.4176   26.1004    2.6645 O   0  0  0  0  0  0  0  0  0  0  0  0
  -85.9766   28.1417    1.4308 C   0  0  0  0  0  0  0  0  0  0  0  0
  -87.2824   28.1392    0.9864 C   0  0  0  0  0  0  0  0  0  0  0  0
  -88.3161   27.2313    1.0779 C   0  0  0  0  0  0  0  0  0  0  0  0
  -88.4481   25.9986    1.6513 C   0  0  0  0  0  0  0  0  0  0  0  0
  -89.6737   25.3410    1.5517 C   0  0  0  0  0  0  0  0  0  0  0  0
  -90.7591   25.8825    0.8983 C   0  0  0  0  0  0  0  0  0  0  0  0
  -90.6234   27.1275    0.3198 C   0  0  0  0  0  0  0  0  0  0  0  0
  -89.4299   27.7688    0.4164 C   0  0  0  0  0  0  0  0  0  0  0  0
  -89.0678   28.9635   -0.0549 N   0  0  0  0  0  0  0  0  0  0  0  0
  -87.7958   29.2074    0.2727 C   0  0  0  0  0  0  0  0  0  0  0  0
  -87.0266   30.3168   -0.0223 C   0  0  0  0  0  0  0  0  0  0  0  0
  -83.0470   27.3843    2.8495 H   0  0  0  0  0  0  0  0  0  0  0  0
  -87.8335   28.2604   -3.0764 C   0  0  0  0  0  0  0  0  0  0  0  0
  -87.8584   29.6018   -3.6217 N   0  0  0  0  0  0  0  0  0  0  0  0
  -87.7816   29.5249   -4.6400 H   0  0  0  0  0  0  0  0  0  0  0  0
  -87.8296   32.0610   -3.5450 O   0  0  0  0  0  0  0  0  0  0  0  0
  -88.1761   33.0871   -4.3786 C   0  0  0  0  0  0  0  0  0  0  0  0
 33 34  1  0  0  0
 34  1  1  0  0  0
  1  2  1  0  0  0
  2  3  1  0  0  0
  3  4  1  0  0  0
  4  5  1  0  0  0
  5  6  1  0  0  0
  5  7  1  0  0  0
  7 36  1  0  0  0
 36 37  1  0  0  0
  5  8  1  0  0  0
  8  9  1  0  0  0
  9 10  2  0  0  0
 10 11  1  0  0  0
 11 12  2  0  0  0
 12 13  1  0  0  0
 13 14  2  0  0  0
 14 15  1  0  0  0
 15 16  2  0  0  0
 16 17  1  0  0  0
 17 18  1  0  0  0
 18 19  1  0  0  0
 19 20  2  0  0  0
 19 21  1  0  0  0
 21 22  2  0  0  0
 22 23  1  0  0  0
 23 24  2  0  0  0
 24 25  1  0  0  0
 25 26  2  0  0  0
 26 27  1  0  0  0
 27 28  2  0  0  0
 28 29  1  0  0  0
 29 30  1  0  0  0
 30 31  2  0  0  0
  7  1  1  0  0  0
 31  8  1  0  0  0
 29  3  1  0  0  0
 14  9  1  0  0  0
 31 15  1  0  0  0
 21 16  1  0  0  0
 30 22  1  0  0  0
 28 23  1  0  0  0
 34 35  1  0  0  0
 18 32  1  0  0  0
M  END
> <minimizedAffinity>
-10.22291

> <CNNscore>
0.2255734354

> <CNNaffinity>
6.7412385941

> <CNN_VS>
1.5206443071

> <CNNaffinity_variance>
0.1352533698

$$$$
[H]c1c([H])c([H])c2c(c1[H])c1c3c(c4c5c([H])c([H])c([H])c([H])c5n5c4c1n2[C@@]1([H])O[C@]5(C([H])([H])[H])[C@@]([H])(OC([H])([H])[H])[C@@]([H])(N([H])C([H])([H])[H])C1([H])[H])C([H])([H])N([H])C3=O


 37 44  0  0  0  0  0  0  0  0999 V2000
  -90.8335   29.7277   -1.1477 C   0  0  0  0  0  0  0  0  0  0  0  0
  -90.4437   30.6047   -2.2650 C   0  0  0  0  0  0  0  0  0  0  0  0
  -89.2458   30.1580   -3.0372 C   0  0  0  0  0  0  0  0  0  0  0  0
  -88.7874   28.9462   -2.8742 O   0  0  0  0  0  0  0  0  0  0  0  0
  -88.8445   28.2436   -1.6926 C   0  0  0  0  0  0  0  0  0  0  0  0
  -88.6432   26.8020   -2.2041 C   0  0  0  0  0  0  0  0  0  0  0  0
  -90.1852   28.3616   -1.1241 C   0  0  0  0  0  0  0  0  0  0  0  0
  -87.7276   28.6551   -0.8587 N   0  0  0  0  0  0  0  0  0  0  0  0
  -87.1119   27.9682    0.1089 C   0  0  0  0  0  0  0  0  0  0  0  0
  -87.3342   26.7317    0.6370 C   0  0  0  0  0  0  0  0  0  0  0  0
  -86.5299   26.2496    1.6589 C   0  0  0  0  0  0  0  0  0  0  0  0
  -85.4875   26.9720    2.1862 C   0  0  0  0  0  0  0  0  0  0  0  0
  -85.2487   28.2408    1.6547 C   0  0  0  0  0  0  0  0  0  0  0  0
  -86.0626   28.6922    0.6420 C   0  0  0  0  0  0  0  0  0  0  0  0
  -86.0362   29.8953   -0.0406 C   0  0  0  0  0  0  0  0  0  0  0  0
  -85.2204   31.0158    0.0340 C   0  0  0  0  0  0  0  0  0  0  0  0
  -84.0624   31.2771    0.9419 C   0  0  0  0  0  0  0  0  0  0  0  0
  -83.5742   32.5761    0.5777 N   0  0  0  0  0  0  0  0  0  0  0  0
  -84.3801   33.1135   -0.4678 C   0  0  0  0  0  0  0  0  0  0  0  0
  -84.1626   34.2319   -0.9404 O   0  0  0  0  0  0  0  0  0  0  0  0
  -85.3895   32.1177   -0.7786 C   0  0  0  0  0  0  0  0  0  0  0  0
  -86.4290   32.0496   -1.6827 C   0  0  0  0  0  0  0  0  0  0  0  0
  -86.9218   32.9197   -2.6321 C   0  0  0  0  0  0  0  0  0  0  0  0
  -86.5648   34.1705   -3.0490 C   0  0  0  0  0  0  0  0  0  0  0  0
  -87.3045   34.7748   -4.0650 C   0  0  0  0  0  0  0  0  0  0  0  0
  -88.3820   34.1629   -4.6673 C   0  0  0  0  0  0  0  0  0  0  0  0
  -88.7409   32.8998   -4.2445 C   0  0  0  0  0  0  0  0  0  0  0  0
  -88.0209   32.3104   -3.2549 C   0  0  0  0  0  0  0  0  0  0  0  0
  -88.1765   31.1110   -2.6911 N   0  0  0  0  0  0  0  0  0  0  0  0
  -87.2408   30.9316   -1.7545 C   0  0  0  0  0  0  0  0  0  0  0  0
  -87.0447   29.8411   -0.9289 C   0  0  0  0  0  0  0  0  0  0  0  0
  -82.7378   33.0510    1.0288 H   0  0  0  0  0  0  0  0  0  0  0  0
  -90.0631   31.6772   -0.1109 C   0  0  0  0  0  0  0  0  0  0  0  0
  -90.6093   30.3630    0.1576 N   0  0  0  0  0  0  0  0  0  0  0  0
  -91.4720   30.4887    0.6947 H   0  0  0  0  0  0  0  0  0  0  0  0
  -90.3863   27.9127    0.1718 O   0  0  0  0  0  0  0  0  0  0  0  0
  -91.3131   26.9190    0.3177 C   0  0  0  0  0  0  0  0  0  0  0  0
 33 34  1  0  0  0
 34  1  1  0  0  0
  1  2  1  0  0  0
  2  3  1  0  0  0
  3  4  1  0  0  0
  4  5  1  0  0  0
  5  6  1  0  0  0
  5  7  1  0  0  0
  7 36  1  0  0  0
 36 37  1  0  0  0
  5  8  1  0  0  0
  8  9  1  0  0  0
  9 10  2  0  0  0
 10 11  1  0  0  0
 11 12  2  0  0  0
 12 13  1  0  0  0
 13 14  2  0  0  0
 14 15  1  0  0  0
 15 16  2  0  0  0
 16 17  1  0  0  0
 17 18  1  0  0  0
 18 19  1  0  0  0
 19 20  2  0  0  0
 19 21  1  0  0  0
 21 22  2  0  0  0
 22 23  1  0  0  0
 23 24  2  0  0  0
 24 25  1  0  0  0
 25 26  2  0  0  0
 26 27  1  0  0  0
 27 28  2  0  0  0
 28 29  1  0  0  0
 29 30  1  0  0  0
 30 31  2  0  0  0
  7  1  1  0  0  0
 31  8  1  0  0  0
 29  3  1  0  0  0
 14  9  1  0  0  0
 31 15  1  0  0  0
 21 16  1  0  0  0
 30 22  1  0  0  0
 28 23  1  0  0  0
 34 35  1  0  0  0
 18 32  1  0  0  0
M  END
> <minimizedAffinity>
-8.67784

> <CNNscore>
0.2188499868

> <CNNaffinity>
6.3617639542

> <CNN_VS>
1.3922719955

> <CNNaffinity_variance>
0.4248330593

$$$$
[H]c1c([H])c([H])c2c(c1[H])c1c3c(c4c5c([H])c([H])c([H])c([H])c5n5c4c1n2[C@@]1([H])O[C@]5(C([H])([H])[H])[C@@]([H])(OC([H])([H])[H])[C@@]([H])(N([H])C([H])([H])[H])C1([H])[H])C([H])([H])N([H])C3=O


 37 44  0  0  0  0  0  0  0  0999 V2000
  -93.4637   23.4724   -3.7476 C   0  0  0  0  0  0  0  0  0  0  0  0
  -94.1053   22.4597   -2.8920 C   0  0  0  0  0  0  0  0  0  0  0  0
  -94.7809   22.9929   -1.6712 C   0  0  0  0  0  0  0  0  0  0  0  0
  -94.9980   24.2758   -1.5617 O   0  0  0  0  0  0  0  0  0  0  0  0
  -94.1798   25.2521   -2.0817 C   0  0  0  0  0  0  0  0  0  0  0  0
  -95.1410   26.4588   -2.0921 C   0  0  0  0  0  0  0  0  0  0  0  0
  -93.8340   24.9100   -3.4593 C   0  0  0  0  0  0  0  0  0  0  0  0
  -93.0833   25.4749   -1.1541 N   0  0  0  0  0  0  0  0  0  0  0  0
  -92.3459   26.5768   -0.9839 C   0  0  0  0  0  0  0  0  0  0  0  0
  -92.3482   27.7858   -1.6129 C   0  0  0  0  0  0  0  0  0  0  0  0
  -91.4558   28.7770   -1.2327 C   0  0  0  0  0  0  0  0  0  0  0  0
  -90.5393   28.6031   -0.2245 C   0  0  0  0  0  0  0  0  0  0  0  0
  -90.5256   27.3691    0.4283 C   0  0  0  0  0  0  0  0  0  0  0  0
  -91.4224   26.4054    0.0296 C   0  0  0  0  0  0  0  0  0  0  0  0
  -91.6059   25.1199    0.5071 C   0  0  0  0  0  0  0  0  0  0  0  0
  -90.9964   24.3800    1.5108 C   0  0  0  0  0  0  0  0  0  0  0  0
  -89.8801   24.7733    2.4233 C   0  0  0  0  0  0  0  0  0  0  0  0
  -89.6614   23.6388    3.2740 N   0  0  0  0  0  0  0  0  0  0  0  0
  -90.5556   22.5901    2.9109 C   0  0  0  0  0  0  0  0  0  0  0  0
  -90.5462   21.5032    3.4941 O   0  0  0  0  0  0  0  0  0  0  0  0
  -91.3678   23.0866    1.8150 C   0  0  0  0  0  0  0  0  0  0  0  0
  -92.3910   22.5561    1.0573 C   0  0  0  0  0  0  0  0  0  0  0  0
  -93.0249   21.3319    1.0397 C   0  0  0  0  0  0  0  0  0  0  0  0
  -92.8935   20.1849    1.7697 C   0  0  0  0  0  0  0  0  0  0  0  0
  -93.7255   19.1049    1.4767 C   0  0  0  0  0  0  0  0  0  0  0  0
  -94.6763   19.1455    0.4803 C   0  0  0  0  0  0  0  0  0  0  0  0
  -94.8071   20.3048   -0.2558 C   0  0  0  0  0  0  0  0  0  0  0  0
  -93.9970   21.3572    0.0290 C   0  0  0  0  0  0  0  0  0  0  0  0
  -93.9422   22.5639   -0.5381 N   0  0  0  0  0  0  0  0  0  0  0  0
  -92.9963   23.2960    0.0570 C   0  0  0  0  0  0  0  0  0  0  0  0
  -92.6044   24.5912   -0.2226 C   0  0  0  0  0  0  0  0  0  0  0  0
  -88.9385   23.6024    4.0515 H   0  0  0  0  0  0  0  0  0  0  0  0
  -91.6892   22.0268   -3.2678 C   0  0  0  0  0  0  0  0  0  0  0  0
  -91.9989   23.3646   -3.7280 N   0  0  0  0  0  0  0  0  0  0  0  0
  -91.5769   23.4804   -4.6538 H   0  0  0  0  0  0  0  0  0  0  0  0
  -92.8419   25.6483   -4.0856 O   0  0  0  0  0  0  0  0  0  0  0  0
  -91.6800   25.7969   -3.3815 C   0  0  0  0  0  0  0  0  0  0  0  0
 33 34  1  0  0  0
 34  1  1  0  0  0
  1  2  1  0  0  0
  2  3  1  0  0  0
  3  4  1  0  0  0
  4  5  1  0  0  0
  5  6  1  0  0  0
  5  7  1  0  0  0
  7 36  1  0  0  0
 36 37  1  0  0  0
  5  8  1  0  0  0
  8  9  1  0  0  0
  9 10  2  0  0  0
 10 11  1  0  0  0
 11 12  2  0  0  0
 12 13  1  0  0  0
 13 14  2  0  0  0
 14 15  1  0  0  0
 15 16  2  0  0  0
 16 17  1  0  0  0
 17 18  1  0  0  0
 18 19  1  0  0  0
 19 20  2  0  0  0
 19 21  1  0  0  0
 21 22  2  0  0  0
 22 23  1  0  0  0
 23 24  2  0  0  0
 24 25  1  0  0  0
 25 26  2  0  0  0
 26 27  1  0  0  0
 27 28  2  0  0  0
 28 29  1  0  0  0
 29 30  1  0  0  0
 30 31  2  0  0  0
  7  1  1  0  0  0
 31  8  1  0  0  0
 29  3  1  0  0  0
 14  9  1  0  0  0
 31 15  1  0  0  0
 21 16  1  0  0  0
 30 22  1  0  0  0
 28 23  1  0  0  0
 34 35  1  0  0  0
 18 32  1  0  0  0
M  END
> <minimizedAffinity>
-3.28389

> <CNNscore>
0.2124501616

> <CNNaffinity>
5.4091215134

> <CNN_VS>
1.1491687298

> <CNNaffinity_variance>
0.1761521995

$$$$
[H]c1c([H])c([H])c2c(c1[H])c1c3c(c4c5c([H])c([H])c([H])c([H])c5n5c4c1n2[C@@]1([H])O[C@]5(C([H])([H])[H])[C@@]([H])(OC([H])([H])[H])[C@@]([H])(N([H])C([H])([H])[H])C1([H])[H])C([H])([H])N([H])C3=O


 37 44  0  0  0  0  0  0  0  0999 V2000
  -89.4137   27.1419   -2.0216 C   0  0  0  0  0  0  0  0  0  0  0  0
  -88.6711   27.2675   -0.7558 C   0  0  0  0  0  0  0  0  0  0  0  0
  -89.1448   28.3519    0.1554 C   0  0  0  0  0  0  0  0  0  0  0  0
  -90.2951   28.9277   -0.0693 O   0  0  0  0  0  0  0  0  0  0  0  0
  -90.8370   29.1256   -1.3183 C   0  0  0  0  0  0  0  0  0  0  0  0
  -92.3192   29.3548   -0.9569 C   0  0  0  0  0  0  0  0  0  0  0  0
  -90.7239   27.8934   -2.0953 C   0  0  0  0  0  0  0  0  0  0  0  0
  -90.2534   30.3290   -1.8871 N   0  0  0  0  0  0  0  0  0  0  0  0
  -90.7683   31.1510   -2.8070 C   0  0  0  0  0  0  0  0  0  0  0  0
  -91.9348   31.1209   -3.5110 C   0  0  0  0  0  0  0  0  0  0  0  0
  -92.2289   32.1208   -4.4260 C   0  0  0  0  0  0  0  0  0  0  0  0
  -91.3826   33.1746   -4.6709 C   0  0  0  0  0  0  0  0  0  0  0  0
  -90.1837   33.2178   -3.9568 C   0  0  0  0  0  0  0  0  0  0  0  0
  -89.9193   32.2125   -3.0561 C   0  0  0  0  0  0  0  0  0  0  0  0
  -88.8180   32.0271   -2.2396 C   0  0  0  0  0  0  0  0  0  0  0  0
  -87.6513   32.7504   -2.0341 C   0  0  0  0  0  0  0  0  0  0  0  0
  -87.2040   34.0187   -2.6860 C   0  0  0  0  0  0  0  0  0  0  0  0
  -85.9383   34.3325   -2.0878 N   0  0  0  0  0  0  0  0  0  0  0  0
  -85.5927   33.3226   -1.1434 C   0  0  0  0  0  0  0  0  0  0  0  0
  -84.5361   33.3669   -0.5086 O   0  0  0  0  0  0  0  0  0  0  0  0
  -86.6788   32.3594   -1.1371 C   0  0  0  0  0  0  0  0  0  0  0  0
  -86.9274   31.1927   -0.4448 C   0  0  0  0  0  0  0  0  0  0  0  0
  -86.2216   30.4795    0.5009 C   0  0  0  0  0  0  0  0  0  0  0  0
  -85.0182   30.6595    1.1217 C   0  0  0  0  0  0  0  0  0  0  0  0
  -84.5987   29.7142    2.0571 C   0  0  0  0  0  0  0  0  0  0  0  0
  -85.3476   28.6044    2.3824 C   0  0  0  0  0  0  0  0  0  0  0  0
  -86.5624   28.4246    1.7540 C   0  0  0  0  0  0  0  0  0  0  0  0
  -86.9718   29.3449    0.8428 C   0  0  0  0  0  0  0  0  0  0  0  0
  -88.0929   29.3832    0.1200 N   0  0  0  0  0  0  0  0  0  0  0  0
  -88.0910   30.4735   -0.6521 C   0  0  0  0  0  0  0  0  0  0  0  0
  -89.0488   30.8923   -1.5556 C   0  0  0  0  0  0  0  0  0  0  0  0
  -85.3592   35.1912   -2.3244 H   0  0  0  0  0  0  0  0  0  0  0  0
  -87.2783   27.8380   -2.6731 C   0  0  0  0  0  0  0  0  0  0  0  0
  -88.5988   27.5286   -3.1810 N   0  0  0  0  0  0  0  0  0  0  0  0
  -88.4990   26.7763   -3.8686 H   0  0  0  0  0  0  0  0  0  0  0  0
  -91.0081   27.9485   -3.4509 O   0  0  0  0  0  0  0  0  0  0  0  0
  -92.0729   27.1979   -3.8641 C   0  0  0  0  0  0  0  0  0  0  0  0
 33 34  1  0  0  0
 34  1  1  0  0  0
  1  2  1  0  0  0
  2  3  1  0  0  0
  3  4  1  0  0  0
  4  5  1  0  0  0
  5  6  1  0  0  0
  5  7  1  0  0  0
  7 36  1  0  0  0
 36 37  1  0  0  0
  5  8  1  0  0  0
  8  9  1  0  0  0
  9 10  2  0  0  0
 10 11  1  0  0  0
 11 12  2  0  0  0
 12 13  1  0  0  0
 13 14  2  0  0  0
 14 15  1  0  0  0
 15 16  2  0  0  0
 16 17  1  0  0  0
 17 18  1  0  0  0
 18 19  1  0  0  0
 19 20  2  0  0  0
 19 21  1  0  0  0
 21 22  2  0  0  0
 22 23  1  0  0  0
 23 24  2  0  0  0
 24 25  1  0  0  0
 25 26  2  0  0  0
 26 27  1  0  0  0
 27 28  2  0  0  0
 28 29  1  0  0  0
 29 30  1  0  0  0
 30 31  2  0  0  0
  7  1  1  0  0  0
 31  8  1  0  0  0
 29  3  1  0  0  0
 14  9  1  0  0  0
 31 15  1  0  0  0
 21 16  1  0  0  0
 30 22  1  0  0  0
 28 23  1  0  0  0
 34 35  1  0  0  0
 18 32  1  0  0  0
M  END
> <minimizedAffinity>
-9.68581

> <CNNscore>
0.1722070724

> <CNNaffinity>
6.3327403069

> <CNN_VS>
1.0905426741

> <CNNaffinity_variance>
0.1618671715

$$$$
[H]c1c([H])c([H])c2c(c1[H])c1c3c(c4c5c([H])c([H])c([H])c([H])c5n5c4c1n2[C@@]1([H])O[C@]5(C([H])([H])[H])[C@@]([H])(OC([H])([H])[H])[C@@]([H])(N([H])C([H])([H])[H])C1([H])[H])C([H])([H])N([H])C3=O


 37 44  0  0  0  0  0  0  0  0999 V2000
  -90.3219   23.8877   -0.4850 C   0  0  0  0  0  0  0  0  0  0  0  0
  -90.1460   25.2516    0.0427 C   0  0  0  0  0  0  0  0  0  0  0  0
  -91.4031   26.0444    0.1901 C   0  0  0  0  0  0  0  0  0  0  0  0
  -92.5592   25.4425    0.1104 O   0  0  0  0  0  0  0  0  0  0  0  0
  -92.8137   24.3445   -0.6787 C   0  0  0  0  0  0  0  0  0  0  0  0
  -94.0959   23.8022   -0.0138 C   0  0  0  0  0  0  0  0  0  0  0  0
  -91.7415   23.3670   -0.5074 C   0  0  0  0  0  0  0  0  0  0  0  0
  -93.0886   24.8035   -2.0300 N   0  0  0  0  0  0  0  0  0  0  0  0
  -93.8129   24.2068   -2.9821 C   0  0  0  0  0  0  0  0  0  0  0  0
  -94.4722   23.0147   -3.0185 C   0  0  0  0  0  0  0  0  0  0  0  0
  -95.1603   22.6272   -4.1587 C   0  0  0  0  0  0  0  0  0  0  0  0
  -95.2166   23.4030   -5.2908 C   0  0  0  0  0  0  0  0  0  0  0  0
  -94.5452   24.6269   -5.2675 C   0  0  0  0  0  0  0  0  0  0  0  0
  -93.8714   24.9844   -4.1229 C   0  0  0  0  0  0  0  0  0  0  0  0
  -93.1373   26.1253   -3.8517 C   0  0  0  0  0  0  0  0  0  0  0  0
  -92.8388   27.2639   -4.5873 C   0  0  0  0  0  0  0  0  0  0  0  0
  -93.2366   27.6113   -5.9853 C   0  0  0  0  0  0  0  0  0  0  0  0
  -92.6752   28.9082   -6.2335 N   0  0  0  0  0  0  0  0  0  0  0  0
  -91.9501   29.3423   -5.0859 C   0  0  0  0  0  0  0  0  0  0  0  0
  -91.3637   30.4273   -5.0654 O   0  0  0  0  0  0  0  0  0  0  0  0
  -92.0747   28.2974   -4.0860 C   0  0  0  0  0  0  0  0  0  0  0  0
  -91.6126   28.1386   -2.7961 C   0  0  0  0  0  0  0  0  0  0  0  0
  -90.8315   28.9122   -1.9640 C   0  0  0  0  0  0  0  0  0  0  0  0
  -90.2292   30.1316   -2.0911 C   0  0  0  0  0  0  0  0  0  0  0  0
  -89.4931   30.6306   -1.0171 C   0  0  0  0  0  0  0  0  0  0  0  0
  -89.3471   29.9449    0.1690 C   0  0  0  0  0  0  0  0  0  0  0  0
  -89.9560   28.7135    0.2950 C   0  0  0  0  0  0  0  0  0  0  0  0
  -90.6733   28.2267   -0.7507 C   0  0  0  0  0  0  0  0  0  0  0  0
  -91.3424   27.0773   -0.8591 N   0  0  0  0  0  0  0  0  0  0  0  0
  -91.9113   27.0023   -2.0655 C   0  0  0  0  0  0  0  0  0  0  0  0
  -92.6823   25.9846   -2.5939 C   0  0  0  0  0  0  0  0  0  0  0  0
  -92.7917   29.4489   -7.1404 H   0  0  0  0  0  0  0  0  0  0  0  0
  -89.0153   24.9527   -2.1060 C   0  0  0  0  0  0  0  0  0  0  0  0
  -89.7592   23.7403   -1.8338 N   0  0  0  0  0  0  0  0  0  0  0  0
  -89.1095   22.9527   -1.9123 H   0  0  0  0  0  0  0  0  0  0  0  0
  -91.6946   22.2905   -1.3794 O   0  0  0  0  0  0  0  0  0  0  0  0
  -92.2637   21.1342   -0.9246 C   0  0  0  0  0  0  0  0  0  0  0  0
 33 34  1  0  0  0
 34  1  1  0  0  0
  1  2  1  0  0  0
  2  3  1  0  0  0
  3  4  1  0  0  0
  4  5  1  0  0  0
  5  6  1  0  0  0
  5  7  1  0  0  0
  7 36  1  0  0  0
 36 37  1  0  0  0
  5  8  1  0  0  0
  8  9  1  0  0  0
  9 10  2  0  0  0
 10 11  1  0  0  0
 11 12  2  0  0  0
 12 13  1  0  0  0
 13 14  2  0  0  0
 14 15  1  0  0  0
 15 16  2  0  0  0
 16 17  1  0  0  0
 17 18  1  0  0  0
 18 19  1  0  0  0
 19 20  2  0  0  0
 19 21  1  0  0  0
 21 22  2  0  0  0
 22 23  1  0  0  0
 23 24  2  0  0  0
 24 25  1  0  0  0
 25 26  2  0  0  0
 26 27  1  0  0  0
 27 28  2  0  0  0
 28 29  1  0  0  0
 29 30  1  0  0  0
 30 31  2  0  0  0
  7  1  1  0  0  0
 31  8  1  0  0  0
 29  3  1  0  0  0
 14  9  1  0  0  0
 31 15  1  0  0  0
 21 16  1  0  0  0
 30 22  1  0  0  0
 28 23  1  0  0  0
 34 35  1  0  0  0
 18 32  1  0  0  0
M  END
> <minimizedAffinity>
-6.12538

> <CNNscore>
0.0811601579

> <CNNaffinity>
5.5181584358

> <CNN_VS>
0.4478546083

> <CNNaffinity_variance>
0.0680447817

$$$$
[H]c1c([H])c([H])c2c(c1[H])c1c3c(c4c5c([H])c([H])c([H])c([H])c5n5c4c1n2[C@@]1([H])O[C@]5(C([H])([H])[H])[C@@]([H])(OC([H])([H])[H])[C@@]([H])(N([H])C([H])([H])[H])C1([H])[H])C([H])([H])N([H])C3=O


 37 44  0  0  0  0  0  0  0  0999 V2000
  -87.4908   26.2538   -0.1466 C   0  0  0  0  0  0  0  0  0  0  0  0
  -86.8517   27.4528    0.4220 C   0  0  0  0  0  0  0  0  0  0  0  0
  -87.7633   28.3620    1.1791 C   0  0  0  0  0  0  0  0  0  0  0  0
  -88.9540   27.9466    1.5181 O   0  0  0  0  0  0  0  0  0  0  0  0
  -89.7123   27.0673    0.7800 C   0  0  0  0  0  0  0  0  0  0  0  0
  -90.7131   26.5815    1.8489 C   0  0  0  0  0  0  0  0  0  0  0  0
  -88.8793   25.9412    0.3643 C   0  0  0  0  0  0  0  0  0  0  0  0
  -90.3951   27.8132   -0.2639 N   0  0  0  0  0  0  0  0  0  0  0  0
  -91.5380   27.5154   -0.8901 C   0  0  0  0  0  0  0  0  0  0  0  0
  -92.3846   26.4518   -0.7930 C   0  0  0  0  0  0  0  0  0  0  0  0
  -93.5264   26.3892   -1.5778 C   0  0  0  0  0  0  0  0  0  0  0  0
  -93.8633   27.3711   -2.4772 C   0  0  0  0  0  0  0  0  0  0  0  0
  -93.0045   28.4665   -2.5873 C   0  0  0  0  0  0  0  0  0  0  0  0
  -91.8799   28.5012   -1.7961 C   0  0  0  0  0  0  0  0  0  0  0  0
  -90.8847   29.4591   -1.7197 C   0  0  0  0  0  0  0  0  0  0  0  0
  -90.6748   30.6692   -2.3665 C   0  0  0  0  0  0  0  0  0  0  0  0
  -91.5087   31.3322   -3.4146 C   0  0  0  0  0  0  0  0  0  0  0  0
  -90.8403   32.5660   -3.7137 N   0  0  0  0  0  0  0  0  0  0  0  0
  -89.6529   32.6677   -2.9321 C   0  0  0  0  0  0  0  0  0  0  0  0
  -88.8996   33.6399   -3.0261 O   0  0  0  0  0  0  0  0  0  0  0  0
  -89.5844   31.4740   -2.1089 C   0  0  0  0  0  0  0  0  0  0  0  0
  -88.6971   31.0068   -1.1618 C   0  0  0  0  0  0  0  0  0  0  0  0
  -87.5144   31.4924   -0.6456 C   0  0  0  0  0  0  0  0  0  0  0  0
  -86.7775   32.6219   -0.8625 C   0  0  0  0  0  0  0  0  0  0  0  0
  -85.5959   32.7995   -0.1437 C   0  0  0  0  0  0  0  0  0  0  0  0
  -85.1392   31.8826    0.7777 C   0  0  0  0  0  0  0  0  0  0  0  0
  -85.8849   30.7425    0.9950 C   0  0  0  0  0  0  0  0  0  0  0  0
  -87.0360   30.5688    0.2951 C   0  0  0  0  0  0  0  0  0  0  0  0
  -87.9109   29.5621    0.3369 N   0  0  0  0  0  0  0  0  0  0  0  0
  -88.9086   29.8000   -0.5191 C   0  0  0  0  0  0  0  0  0  0  0  0
  -90.0127   29.0167   -0.7963 C   0  0  0  0  0  0  0  0  0  0  0  0
  -91.1905   33.2837   -4.4143 H   0  0  0  0  0  0  0  0  0  0  0  0
  -86.8935   27.5301   -2.0130 C   0  0  0  0  0  0  0  0  0  0  0  0
  -87.5425   26.2984   -1.6139 N   0  0  0  0  0  0  0  0  0  0  0  0
  -87.0386   25.5242   -2.0557 H   0  0  0  0  0  0  0  0  0  0  0  0
  -89.3951   25.0588   -0.5721 O   0  0  0  0  0  0  0  0  0  0  0  0
  -89.6718   23.8018   -0.1124 C   0  0  0  0  0  0  0  0  0  0  0  0
 33 34  1  0  0  0
 34  1  1  0  0  0
  1  2  1  0  0  0
  2  3  1  0  0  0
  3  4  1  0  0  0
  4  5  1  0  0  0
  5  6  1  0  0  0
  5  7  1  0  0  0
  7 36  1  0  0  0
 36 37  1  0  0  0
  5  8  1  0  0  0
  8  9  1  0  0  0
  9 10  2  0  0  0
 10 11  1  0  0  0
 11 12  2  0  0  0
 12 13  1  0  0  0
 13 14  2  0  0  0
 14 15  1  0  0  0
 15 16  2  0  0  0
 16 17  1  0  0  0
 17 18  1  0  0  0
 18 19  1  0  0  0
 19 20  2  0  0  0
 19 21  1  0  0  0
 21 22  2  0  0  0
 22 23  1  0  0  0
 23 24  2  0  0  0
 24 25  1  0  0  0
 25 26  2  0  0  0
 26 27  1  0  0  0
 27 28  2  0  0  0
 28 29  1  0  0  0
 29 30  1  0  0  0
 30 31  2  0  0  0
  7  1  1  0  0  0
 31  8  1  0  0  0
 29  3  1  0  0  0
 14  9  1  0  0  0
 31 15  1  0  0  0
 21 16  1  0  0  0
 30 22  1  0  0  0
 28 23  1  0  0  0
 34 35  1  0  0  0
 18 32  1  0  0  0
M  END
> <minimizedAffinity>
-8.96314

> <CNNscore>
0.0788697377

> <CNNaffinity>
5.9812517166

> <CNN_VS>
0.4717397392

> <CNNaffinity_variance>
0.3570260406

$$$$
[H]c1c([H])c([H])c2c(c1[H])c1c3c(c4c5c([H])c([H])c([H])c([H])c5n5c4c1n2[C@@]1([H])O[C@]5(C([H])([H])[H])[C@@]([H])(OC([H])([H])[H])[C@@]([H])(N([H])C([H])([H])[H])C1([H])[H])C([H])([H])N([H])C3=O


 37 44  0  0  0  0  0  0  0  0999 V2000
  -89.2286   33.0555   -1.9979 C   0  0  0  0  0  0  0  0  0  0  0  0
  -87.7899   33.1379   -1.6935 C   0  0  0  0  0  0  0  0  0  0  0  0
  -86.9353   32.1204   -2.3756 C   0  0  0  0  0  0  0  0  0  0  0  0
  -87.4277   31.4199   -3.3616 O   0  0  0  0  0  0  0  0  0  0  0  0
  -88.7454   31.0377   -3.4644 C   0  0  0  0  0  0  0  0  0  0  0  0
  -88.8352   30.7136   -4.9700 C   0  0  0  0  0  0  0  0  0  0  0  0
  -89.6051   32.1828   -3.1742 C   0  0  0  0  0  0  0  0  0  0  0  0
  -88.9397   29.8384   -2.6667 N   0  0  0  0  0  0  0  0  0  0  0  0
  -89.8562   28.8768   -2.8163 C   0  0  0  0  0  0  0  0  0  0  0  0
  -90.8852   28.7222   -3.6963 C   0  0  0  0  0  0  0  0  0  0  0  0
  -91.7051   27.6056   -3.6291 C   0  0  0  0  0  0  0  0  0  0  0  0
  -91.5328   26.6139   -2.6945 C   0  0  0  0  0  0  0  0  0  0  0  0
  -90.4824   26.7597   -1.7862 C   0  0  0  0  0  0  0  0  0  0  0  0
  -89.6861   27.8774   -1.8773 C   0  0  0  0  0  0  0  0  0  0  0  0
  -88.6000   28.2516   -1.1063 C   0  0  0  0  0  0  0  0  0  0  0  0
  -87.9481   27.6658   -0.0300 C   0  0  0  0  0  0  0  0  0  0  0  0
  -88.2543   26.3806    0.6687 C   0  0  0  0  0  0  0  0  0  0  0  0
  -87.2564   26.2521    1.6915 N   0  0  0  0  0  0  0  0  0  0  0  0
  -86.3943   27.3866    1.6630 C   0  0  0  0  0  0  0  0  0  0  0  0
  -85.4627   27.5095    2.4620 O   0  0  0  0  0  0  0  0  0  0  0  0
  -86.8537   28.2404    0.5826 C   0  0  0  0  0  0  0  0  0  0  0  0
  -86.4342   29.4479    0.0643 C   0  0  0  0  0  0  0  0  0  0  0  0
  -85.4195   30.3220    0.3919 C   0  0  0  0  0  0  0  0  0  0  0  0
  -84.4375   30.3227    1.3414 C   0  0  0  0  0  0  0  0  0  0  0  0
  -83.5523   31.3991    1.3892 C   0  0  0  0  0  0  0  0  0  0  0  0
  -83.6261   32.4640    0.5180 C   0  0  0  0  0  0  0  0  0  0  0  0
  -84.6188   32.4613   -0.4399 C   0  0  0  0  0  0  0  0  0  0  0  0
  -85.4815   31.4131   -0.4871 C   0  0  0  0  0  0  0  0  0  0  0  0
  -86.5049   31.1929   -1.3146 N   0  0  0  0  0  0  0  0  0  0  0  0
  -87.0863   30.0297   -1.0083 C   0  0  0  0  0  0  0  0  0  0  0  0
  -88.1786   29.4282   -1.6034 C   0  0  0  0  0  0  0  0  0  0  0  0
  -87.1851   25.4298    2.3603 H   0  0  0  0  0  0  0  0  0  0  0  0
  -89.0821   32.4686    0.2611 C   0  0  0  0  0  0  0  0  0  0  0  0
  -90.0153   32.6214   -0.8359 N   0  0  0  0  0  0  0  0  0  0  0  0
  -90.7201   33.3075   -0.5511 H   0  0  0  0  0  0  0  0  0  0  0  0
  -90.9620   31.9541   -3.0067 O   0  0  0  0  0  0  0  0  0  0  0  0
  -91.7584   32.3182   -4.0561 C   0  0  0  0  0  0  0  0  0  0  0  0
 33 34  1  0  0  0
 34  1  1  0  0  0
  1  2  1  0  0  0
  2  3  1  0  0  0
  3  4  1  0  0  0
  4  5  1  0  0  0
  5  6  1  0  0  0
  5  7  1  0  0  0
  7 36  1  0  0  0
 36 37  1  0  0  0
  5  8  1  0  0  0
  8  9  1  0  0  0
  9 10  2  0  0  0
 10 11  1  0  0  0
 11 12  2  0  0  0
 12 13  1  0  0  0
 13 14  2  0  0  0
 14 15  1  0  0  0
 15 16  2  0  0  0
 16 17  1  0  0  0
 17 18  1  0  0  0
 18 19  1  0  0  0
 19 20  2  0  0  0
 19 21  1  0  0  0
 21 22  2  0  0  0
 22 23  1  0  0  0
 23 24  2  0  0  0
 24 25  1  0  0  0
 25 26  2  0  0  0
 26 27  1  0  0  0
 27 28  2  0  0  0
 28 29  1  0  0  0
 29 30  1  0  0  0
 30 31  2  0  0  0
  7  1  1  0  0  0
 31  8  1  0  0  0
 29  3  1  0  0  0
 14  9  1  0  0  0
 31 15  1  0  0  0
 21 16  1  0  0  0
 30 22  1  0  0  0
 28 23  1  0  0  0
 34 35  1  0  0  0
 18 32  1  0  0  0
M  END
> <minimizedAffinity>
-7.71797

> <CNNscore>
0.0640811324

> <CNNaffinity>
5.8786001205

> <CNN_VS>
0.3767073452

> <CNNaffinity_variance>
0.6747230291

$$$$
[H]OC([H])([H])[C@@]1(O[H])C([H])([H])[C@@]2([H])O[C@]1(C([H])([H])[H])n1c3c([H])c([H])c([H])c([H])c3c3c4c(c5c6c([H])c([H])c([H])c([H])c6n2c5c31)C(=O)N([H])C4([H])[H]


 36 43  0  0  0  0  0  0  0  0999 V2000
  -90.0000   28.1082    0.4098 C   0  0  0  0  0  0  0  0  0  0  0  0
  -89.1289   28.8856   -0.5165 C   0  0  0  0  0  0  0  0  0  0  0  0
  -89.8249   30.1257   -0.5388 O   0  0  0  0  0  0  0  0  0  0  0  0
  -89.6390   30.7347   -1.7324 C   0  0  0  0  0  0  0  0  0  0  0  0
  -89.5164   29.6833   -2.7508 C   0  0  0  0  0  0  0  0  0  0  0  0
  -89.2007   28.4411   -1.9475 C   0  0  0  0  0  0  0  0  0  0  0  0
  -87.9945   27.9537   -2.4278 O   0  0  0  0  0  0  0  0  0  0  0  0
  -88.4972   31.6566   -1.6725 N   0  0  0  0  0  0  0  0  0  0  0  0
  -88.3546   32.8479   -2.2275 C   0  0  0  0  0  0  0  0  0  0  0  0
  -89.2416   33.5370   -3.0133 C   0  0  0  0  0  0  0  0  0  0  0  0
  -88.8681   34.7880   -3.4887 C   0  0  0  0  0  0  0  0  0  0  0  0
  -87.6424   35.3192   -3.1787 C   0  0  0  0  0  0  0  0  0  0  0  0
  -86.7344   34.6177   -2.3763 C   0  0  0  0  0  0  0  0  0  0  0  0
  -87.1116   33.3900   -1.9149 C   0  0  0  0  0  0  0  0  0  0  0  0
  -86.4862   32.4523   -1.1250 C   0  0  0  0  0  0  0  0  0  0  0  0
  -85.2469   32.3885   -0.5145 C   0  0  0  0  0  0  0  0  0  0  0  0
  -84.1019   33.2773   -0.4304 C   0  0  0  0  0  0  0  0  0  0  0  0
  -83.9142   34.3954   -0.9127 O   0  0  0  0  0  0  0  0  0  0  0  0
  -83.1105   32.6240    0.3684 N   0  0  0  0  0  0  0  0  0  0  0  0
  -83.5769   31.3289    0.8007 C   0  0  0  0  0  0  0  0  0  0  0  0
  -84.9358   31.2533    0.2107 C   0  0  0  0  0  0  0  0  0  0  0  0
  -85.8227   30.1902    0.3412 C   0  0  0  0  0  0  0  0  0  0  0  0
  -85.7896   28.9772    0.9537 C   0  0  0  0  0  0  0  0  0  0  0  0
  -84.7938   28.3815    1.6929 C   0  0  0  0  0  0  0  0  0  0  0  0
  -85.0050   27.0981    2.2053 C   0  0  0  0  0  0  0  0  0  0  0  0
  -86.2113   26.4710    1.9496 C   0  0  0  0  0  0  0  0  0  0  0  0
  -87.1976   27.0916    1.2029 C   0  0  0  0  0  0  0  0  0  0  0  0
  -87.0118   28.3532    0.6908 C   0  0  0  0  0  0  0  0  0  0  0  0
  -87.7945   29.1653   -0.0690 N   0  0  0  0  0  0  0  0  0  0  0  0
  -87.0274   30.2896   -0.2693 C   0  0  0  0  0  0  0  0  0  0  0  0
  -87.3728   31.4043   -1.0014 C   0  0  0  0  0  0  0  0  0  0  0  0
  -88.1873   27.3186   -3.1588 H   0  0  0  0  0  0  0  0  0  0  0  0
  -82.1592   33.0009    0.6286 H   0  0  0  0  0  0  0  0  0  0  0  0
  -90.2640   27.4304   -2.2153 C   0  0  0  0  0  0  0  0  0  0  0  0
  -89.8952   26.6928   -3.3408 O   0  0  0  0  0  0  0  0  0  0  0  0
  -90.4625   26.8899   -4.1290 H   0  0  0  0  0  0  0  0  0  0  0  0
  2  1  1  0  0  0
  2  3  1  0  0  0
  3  4  1  0  0  0
  4  5  1  0  0  0
  5  6  1  0  0  0
  6  7  1  0  0  0
  6 34  1  0  0  0
 34 35  1  0  0  0
  4  8  1  0  0  0
  8  9  1  0  0  0
  9 10  2  0  0  0
 10 11  1  0  0  0
 11 12  2  0  0  0
 12 13  1  0  0  0
 13 14  2  0  0  0
 14 15  1  0  0  0
 15 16  2  0  0  0
 16 17  1  0  0  0
 17 18  2  0  0  0
 17 19  1  0  0  0
 19 20  1  0  0  0
 20 21  1  0  0  0
 21 22  2  0  0  0
 22 23  1  0  0  0
 23 24  2  0  0  0
 24 25  1  0  0  0
 25 26  2  0  0  0
 26 27  1  0  0  0
 27 28  2  0  0  0
 28 29  1  0  0  0
 29 30  1  0  0  0
 30 31  2  0  0  0
  6  2  1  0  0  0
 31  8  1  0  0  0
 29  2  1  0  0  0
 14  9  1  0  0  0
 31 15  1  0  0  0
 21 16  1  0  0  0
 30 22  1  0  0  0
 28 23  1  0  0  0
  7 32  1  0  0  0
 35 36  1  0  0  0
 19 33  1  0  0  0
M  END
> <minimizedAffinity>
-11.82059

> <CNNscore>
0.7555632591

> <CNNaffinity>
6.8099517822

> <CNN_VS>
5.1453495026

> <CNNaffinity_variance>
0.0649764165

$$$$
[H]OC([H])([H])[C@@]1(O[H])C([H])([H])[C@@]2([H])O[C@]1(C([H])([H])[H])n1c3c([H])c([H])c([H])c([H])c3c3c4c(c5c6c([H])c([H])c([H])c([H])c6n2c5c31)C(=O)N([H])C4([H])[H]


 36 43  0  0  0  0  0  0  0  0999 V2000
  -90.5949   31.5271   -2.2113 C   0  0  0  0  0  0  0  0  0  0  0  0
  -89.1863   31.0462   -2.1369 C   0  0  0  0  0  0  0  0  0  0  0  0
  -88.5899   32.1176   -1.4161 O   0  0  0  0  0  0  0  0  0  0  0  0
  -87.2916   32.2449   -1.7744 C   0  0  0  0  0  0  0  0  0  0  0  0
  -87.1832   31.8598   -3.1877 C   0  0  0  0  0  0  0  0  0  0  0  0
  -88.4540   31.0810   -3.4457 C   0  0  0  0  0  0  0  0  0  0  0  0
  -88.0669   29.8245   -3.8869 O   0  0  0  0  0  0  0  0  0  0  0  0
  -86.4258   31.4782   -0.8690 N   0  0  0  0  0  0  0  0  0  0  0  0
  -85.2344   31.7896   -0.3885 C   0  0  0  0  0  0  0  0  0  0  0  0
  -84.4888   32.9174   -0.6153 C   0  0  0  0  0  0  0  0  0  0  0  0
  -83.2507   33.0257    0.0059 C   0  0  0  0  0  0  0  0  0  0  0  0
  -82.7871   32.0286    0.8254 C   0  0  0  0  0  0  0  0  0  0  0  0
  -83.5464   30.8757    1.0588 C   0  0  0  0  0  0  0  0  0  0  0  0
  -84.7608   30.7798    0.4437 C   0  0  0  0  0  0  0  0  0  0  0  0
  -85.7411   29.8136    0.4490 C   0  0  0  0  0  0  0  0  0  0  0  0
  -85.8650   28.5794    1.0608 C   0  0  0  0  0  0  0  0  0  0  0  0
  -85.0366   27.7966    1.9601 C   0  0  0  0  0  0  0  0  0  0  0  0
  -83.9306   28.0352    2.4479 O   0  0  0  0  0  0  0  0  0  0  0  0
  -85.7389   26.5818    2.2409 N   0  0  0  0  0  0  0  0  0  0  0  0
  -87.0004   26.5494    1.5414 C   0  0  0  0  0  0  0  0  0  0  0  0
  -87.0134   27.8472    0.8232 C   0  0  0  0  0  0  0  0  0  0  0  0
  -88.0321   28.3118   -0.0014 C   0  0  0  0  0  0  0  0  0  0  0  0
  -89.2282   27.8236   -0.4241 C   0  0  0  0  0  0  0  0  0  0  0  0
  -89.8499   26.6288   -0.1432 C   0  0  0  0  0  0  0  0  0  0  0  0
  -91.0885   26.3543   -0.7306 C   0  0  0  0  0  0  0  0  0  0  0  0
  -91.6459   27.2966   -1.5762 C   0  0  0  0  0  0  0  0  0  0  0  0
  -91.0004   28.4914   -1.8431 C   0  0  0  0  0  0  0  0  0  0  0  0
  -89.7832   28.7824   -1.2756 C   0  0  0  0  0  0  0  0  0  0  0  0
  -88.9489   29.8515   -1.3783 N   0  0  0  0  0  0  0  0  0  0  0  0
  -87.8758   29.5255   -0.5816 C   0  0  0  0  0  0  0  0  0  0  0  0
  -86.7452   30.2836   -0.3697 C   0  0  0  0  0  0  0  0  0  0  0  0
  -87.9945   29.8518   -4.8713 H   0  0  0  0  0  0  0  0  0  0  0  0
  -85.4155   25.7944    2.8656 H   0  0  0  0  0  0  0  0  0  0  0  0
  -89.2030   31.7612   -4.5411 C   0  0  0  0  0  0  0  0  0  0  0  0
  -88.8527   31.1609   -5.7510 O   0  0  0  0  0  0  0  0  0  0  0  0
  -88.3001   31.7511   -6.3239 H   0  0  0  0  0  0  0  0  0  0  0  0
  2  1  1  0  0  0
  2  3  1  0  0  0
  3  4  1  0  0  0
  4  5  1  0  0  0
  5  6  1  0  0  0
  6  7  1  0  0  0
  6 34  1  0  0  0
 34 35  1  0  0  0
  4  8  1  0  0  0
  8  9  1  0  0  0
  9 10  2  0  0  0
 10 11  1  0  0  0
 11 12  2  0  0  0
 12 13  1  0  0  0
 13 14  2  0  0  0
 14 15  1  0  0  0
 15 16  2  0  0  0
 16 17  1  0  0  0
 17 18  2  0  0  0
 17 19  1  0  0  0
 19 20  1  0  0  0
 20 21  1  0  0  0
 21 22  2  0  0  0
 22 23  1  0  0  0
 23 24  2  0  0  0
 24 25  1  0  0  0
 25 26  2  0  0  0
 26 27  1  0  0  0
 27 28  2  0  0  0
 28 29  1  0  0  0
 29 30  1  0  0  0
 30 31  2  0  0  0
  6  2  1  0  0  0
 31  8  1  0  0  0
 29  2  1  0  0  0
 14  9  1  0  0  0
 31 15  1  0  0  0
 21 16  1  0  0  0
 30 22  1  0  0  0
 28 23  1  0  0  0
  7 32  1  0  0  0
 35 36  1  0  0  0
 19 33  1  0  0  0
M  END
> <minimizedAffinity>
-11.82347

> <CNNscore>
0.5217380524

> <CNNaffinity>
6.6304526329

> <CNN_VS>
3.4593594074

> <CNNaffinity_variance>
0.2181271613

$$$$
[H]OC([H])([H])[C@@]1(O[H])C([H])([H])[C@@]2([H])O[C@]1(C([H])([H])[H])n1c3c([H])c([H])c([H])c([H])c3c3c4c(c5c6c([H])c([H])c([H])c([H])c6n2c5c31)C(=O)N([H])C4([H])[H]


 36 43  0  0  0  0  0  0  0  0999 V2000
  -89.4830   33.3882   -1.7744 C   0  0  0  0  0  0  0  0  0  0  0  0
  -88.3731   32.3938   -1.7566 C   0  0  0  0  0  0  0  0  0  0  0  0
  -87.5343   32.9674   -0.7614 O   0  0  0  0  0  0  0  0  0  0  0  0
  -86.2428   32.6537   -1.0137 C   0  0  0  0  0  0  0  0  0  0  0  0
  -86.0848   32.5698   -2.4717 C   0  0  0  0  0  0  0  0  0  0  0  0
  -87.5024   32.4212   -2.9780 C   0  0  0  0  0  0  0  0  0  0  0  0
  -87.5433   31.2396   -3.7028 O   0  0  0  0  0  0  0  0  0  0  0  0
  -85.8536   31.4358   -0.2908 N   0  0  0  0  0  0  0  0  0  0  0  0
  -84.7111   31.1487    0.3089 C   0  0  0  0  0  0  0  0  0  0  0  0
  -83.5811   31.9181    0.4096 C   0  0  0  0  0  0  0  0  0  0  0  0
  -82.4896   31.4006    1.0963 C   0  0  0  0  0  0  0  0  0  0  0  0
  -82.5427   30.1511    1.6590 C   0  0  0  0  0  0  0  0  0  0  0  0
  -83.6955   29.3631    1.5577 C   0  0  0  0  0  0  0  0  0  0  0  0
  -84.7615   29.8812    0.8811 C   0  0  0  0  0  0  0  0  0  0  0  0
  -86.0173   29.3953    0.5959 C   0  0  0  0  0  0  0  0  0  0  0  0
  -86.6684   28.2063    0.8701 C   0  0  0  0  0  0  0  0  0  0  0  0
  -86.3187   26.9899    1.5813 C   0  0  0  0  0  0  0  0  0  0  0  0
  -85.2825   26.6691    2.1656 O   0  0  0  0  0  0  0  0  0  0  0  0
  -87.4483   26.1140    1.5128 N   0  0  0  0  0  0  0  0  0  0  0  0
  -88.5225   26.7254    0.7686 C   0  0  0  0  0  0  0  0  0  0  0  0
  -87.9592   28.0476    0.4011 C   0  0  0  0  0  0  0  0  0  0  0  0
  -88.6107   29.0368   -0.3273 C   0  0  0  0  0  0  0  0  0  0  0  0
  -89.8303   29.1549   -0.9159 C   0  0  0  0  0  0  0  0  0  0  0  0
  -90.8785   28.2657   -0.9753 C   0  0  0  0  0  0  0  0  0  0  0  0
  -92.0358   28.6272   -1.6713 C   0  0  0  0  0  0  0  0  0  0  0  0
  -92.0854   29.8696   -2.2775 C   0  0  0  0  0  0  0  0  0  0  0  0
  -91.0172   30.7466   -2.2033 C   0  0  0  0  0  0  0  0  0  0  0  0
  -89.8708   30.4125   -1.5235 C   0  0  0  0  0  0  0  0  0  0  0  0
  -88.6980   31.0682   -1.3134 N   0  0  0  0  0  0  0  0  0  0  0  0
  -87.9418   30.1880   -0.5745 C   0  0  0  0  0  0  0  0  0  0  0  0
  -86.6543   30.3824   -0.1247 C   0  0  0  0  0  0  0  0  0  0  0  0
  -87.3282   31.4473   -4.6439 H   0  0  0  0  0  0  0  0  0  0  0  0
  -87.5264   25.1488    1.9335 H   0  0  0  0  0  0  0  0  0  0  0  0
  -87.7889   33.5569   -3.9008 C   0  0  0  0  0  0  0  0  0  0  0  0
  -86.6683   34.3875   -3.9361 O   0  0  0  0  0  0  0  0  0  0  0  0
  -86.8229   35.2564   -3.4853 H   0  0  0  0  0  0  0  0  0  0  0  0
  2  1  1  0  0  0
  2  3  1  0  0  0
  3  4  1  0  0  0
  4  5  1  0  0  0
  5  6  1  0  0  0
  6  7  1  0  0  0
  6 34  1  0  0  0
 34 35  1  0  0  0
  4  8  1  0  0  0
  8  9  1  0  0  0
  9 10  2  0  0  0
 10 11  1  0  0  0
 11 12  2  0  0  0
 12 13  1  0  0  0
 13 14  2  0  0  0
 14 15  1  0  0  0
 15 16  2  0  0  0
 16 17  1  0  0  0
 17 18  2  0  0  0
 17 19  1  0  0  0
 19 20  1  0  0  0
 20 21  1  0  0  0
 21 22  2  0  0  0
 22 23  1  0  0  0
 23 24  2  0  0  0
 24 25  1  0  0  0
 25 26  2  0  0  0
 26 27  1  0  0  0
 27 28  2  0  0  0
 28 29  1  0  0  0
 29 30  1  0  0  0
 30 31  2  0  0  0
  6  2  1  0  0  0
 31  8  1  0  0  0
 29  2  1  0  0  0
 14  9  1  0  0  0
 31 15  1  0  0  0
 21 16  1  0  0  0
 30 22  1  0  0  0
 28 23  1  0  0  0
  7 32  1  0  0  0
 35 36  1  0  0  0
 19 33  1  0  0  0
M  END
> <minimizedAffinity>
-11.80095

> <CNNscore>
0.4768676460

> <CNNaffinity>
6.6368231773

> <CNN_VS>
3.1648862362

> <CNNaffinity_variance>
0.1702991426

$$$$
[H]OC([H])([H])[C@@]1(O[H])C([H])([H])[C@@]2([H])O[C@]1(C([H])([H])[H])n1c3c([H])c([H])c([H])c([H])c3c3c4c(c5c6c([H])c([H])c([H])c([H])c6n2c5c31)C(=O)N([H])C4([H])[H]


 36 43  0  0  0  0  0  0  0  0999 V2000
  -90.9170   32.0237   -3.2946 C   0  0  0  0  0  0  0  0  0  0  0  0
  -89.6139   31.3526   -3.0252 C   0  0  0  0  0  0  0  0  0  0  0  0
  -89.1747   32.0955   -1.8946 O   0  0  0  0  0  0  0  0  0  0  0  0
  -87.8227   32.1366   -1.8698 C   0  0  0  0  0  0  0  0  0  0  0  0
  -87.3548   32.1393   -3.2621 C   0  0  0  0  0  0  0  0  0  0  0  0
  -88.5506   31.6415   -4.0433 C   0  0  0  0  0  0  0  0  0  0  0  0
  -88.1333   30.5117   -4.7308 O   0  0  0  0  0  0  0  0  0  0  0  0
  -87.2851   31.0416   -1.0518 N   0  0  0  0  0  0  0  0  0  0  0  0
  -86.2543   31.0445   -0.2243 C   0  0  0  0  0  0  0  0  0  0  0  0
  -85.4092   32.0784    0.0854 C   0  0  0  0  0  0  0  0  0  0  0  0
  -84.3842   31.8432    0.9935 C   0  0  0  0  0  0  0  0  0  0  0  0
  -84.2230   30.6072    1.5652 C   0  0  0  0  0  0  0  0  0  0  0  0
  -85.0846   29.5493    1.2507 C   0  0  0  0  0  0  0  0  0  0  0  0
  -86.0877   29.7915    0.3577 C   0  0  0  0  0  0  0  0  0  0  0  0
  -87.0880   29.0038   -0.1654 C   0  0  0  0  0  0  0  0  0  0  0  0
  -87.4481   27.6788    0.0002 C   0  0  0  0  0  0  0  0  0  0  0  0
  -86.9456   26.5752    0.7986 C   0  0  0  0  0  0  0  0  0  0  0  0
  -86.0032   26.5184    1.5903 O   0  0  0  0  0  0  0  0  0  0  0  0
  -87.7692   25.4377    0.5233 N   0  0  0  0  0  0  0  0  0  0  0  0
  -88.7907   25.7697   -0.4400 C   0  0  0  0  0  0  0  0  0  0  0  0
  -88.5291   27.2031   -0.7183 C   0  0  0  0  0  0  0  0  0  0  0  0
  -89.2536   28.0093   -1.5894 C   0  0  0  0  0  0  0  0  0  0  0  0
  -90.3154   27.8229   -2.4174 C   0  0  0  0  0  0  0  0  0  0  0  0
  -91.0604   26.6935   -2.6670 C   0  0  0  0  0  0  0  0  0  0  0  0
  -92.1050   26.7612   -3.5936 C   0  0  0  0  0  0  0  0  0  0  0  0
  -92.3524   27.9650   -4.2287 C   0  0  0  0  0  0  0  0  0  0  0  0
  -91.5883   29.0874   -3.9603 C   0  0  0  0  0  0  0  0  0  0  0  0
  -90.5578   29.0436   -3.0524 C   0  0  0  0  0  0  0  0  0  0  0  0
  -89.6650   29.9758   -2.6240 N   0  0  0  0  0  0  0  0  0  0  0  0
  -88.8723   29.3018   -1.7241 C   0  0  0  0  0  0  0  0  0  0  0  0
  -87.7997   29.8116   -1.0259 C   0  0  0  0  0  0  0  0  0  0  0  0
  -87.7928   30.7956   -5.6131 H   0  0  0  0  0  0  0  0  0  0  0  0
  -87.6768   24.4736    0.9437 H   0  0  0  0  0  0  0  0  0  0  0  0
  -88.9292   32.6899   -5.0339 C   0  0  0  0  0  0  0  0  0  0  0  0
  -88.0542   33.7671   -4.8893 O   0  0  0  0  0  0  0  0  0  0  0  0
  -88.4926   34.5650   -4.4981 H   0  0  0  0  0  0  0  0  0  0  0  0
  2  1  1  0  0  0
  2  3  1  0  0  0
  3  4  1  0  0  0
  4  5  1  0  0  0
  5  6  1  0  0  0
  6  7  1  0  0  0
  6 34  1  0  0  0
 34 35  1  0  0  0
  4  8  1  0  0  0
  8  9  1  0  0  0
  9 10  2  0  0  0
 10 11  1  0  0  0
 11 12  2  0  0  0
 12 13  1  0  0  0
 13 14  2  0  0  0
 14 15  1  0  0  0
 15 16  2  0  0  0
 16 17  1  0  0  0
 17 18  2  0  0  0
 17 19  1  0  0  0
 19 20  1  0  0  0
 20 21  1  0  0  0
 21 22  2  0  0  0
 22 23  1  0  0  0
 23 24  2  0  0  0
 24 25  1  0  0  0
 25 26  2  0  0  0
 26 27  1  0  0  0
 27 28  2  0  0  0
 28 29  1  0  0  0
 29 30  1  0  0  0
 30 31  2  0  0  0
  6  2  1  0  0  0
 31  8  1  0  0  0
 29  2  1  0  0  0
 14  9  1  0  0  0
 31 15  1  0  0  0
 21 16  1  0  0  0
 30 22  1  0  0  0
 28 23  1  0  0  0
  7 32  1  0  0  0
 35 36  1  0  0  0
 19 33  1  0  0  0
M  END
> <minimizedAffinity>
-11.13059

> <CNNscore>
0.3584600389

> <CNNaffinity>
6.0091986656

> <CNN_VS>
2.1540575027

> <CNNaffinity_variance>
0.9365102053

$$$$
[H]OC([H])([H])[C@@]1(O[H])C([H])([H])[C@@]2([H])O[C@]1(C([H])([H])[H])n1c3c([H])c([H])c([H])c([H])c3c3c4c(c5c6c([H])c([H])c([H])c([H])c6n2c5c31)C(=O)N([H])C4([H])[H]


 36 43  0  0  0  0  0  0  0  0999 V2000
  -90.1395   27.4838   -1.8673 C   0  0  0  0  0  0  0  0  0  0  0  0
  -89.3517   28.2356   -0.8498 C   0  0  0  0  0  0  0  0  0  0  0  0
  -88.2049   27.4004   -0.7486 O   0  0  0  0  0  0  0  0  0  0  0  0
  -87.6845   27.4847    0.4972 C   0  0  0  0  0  0  0  0  0  0  0  0
  -88.7995   27.7025    1.4283 C   0  0  0  0  0  0  0  0  0  0  0  0
  -89.9237   28.1799    0.5359 C   0  0  0  0  0  0  0  0  0  0  0  0
  -90.3113   29.4220    1.0157 O   0  0  0  0  0  0  0  0  0  0  0  0
  -86.6376   28.5132    0.5541 N   0  0  0  0  0  0  0  0  0  0  0  0
  -85.4904   28.5030    1.2109 C   0  0  0  0  0  0  0  0  0  0  0  0
  -84.9768   27.5228    2.0199 C   0  0  0  0  0  0  0  0  0  0  0  0
  -83.7375   27.7370    2.6105 C   0  0  0  0  0  0  0  0  0  0  0  0
  -83.0462   28.9004    2.3886 C   0  0  0  0  0  0  0  0  0  0  0  0
  -83.5682   29.9032    1.5628 C   0  0  0  0  0  0  0  0  0  0  0  0
  -84.7861   29.6823    0.9880 C   0  0  0  0  0  0  0  0  0  0  0  0
  -85.5750   30.4317    0.1451 C   0  0  0  0  0  0  0  0  0  0  0  0
  -85.4450   31.6850   -0.4251 C   0  0  0  0  0  0  0  0  0  0  0  0
  -84.4284   32.7211   -0.3950 C   0  0  0  0  0  0  0  0  0  0  0  0
  -83.3423   32.7661    0.1849 O   0  0  0  0  0  0  0  0  0  0  0  0
  -84.8937   33.8012   -1.2104 N   0  0  0  0  0  0  0  0  0  0  0  0
  -86.1908   33.4988   -1.7649 C   0  0  0  0  0  0  0  0  0  0  0  0
  -86.4706   32.1434   -1.2309 C   0  0  0  0  0  0  0  0  0  0  0  0
  -87.6118   31.3891   -1.4802 C   0  0  0  0  0  0  0  0  0  0  0  0
  -88.7557   31.5776   -2.1900 C   0  0  0  0  0  0  0  0  0  0  0  0
  -89.1686   32.6539   -2.9410 C   0  0  0  0  0  0  0  0  0  0  0  0
  -90.4184   32.6056   -3.5655 C   0  0  0  0  0  0  0  0  0  0  0  0
  -91.1977   31.4740   -3.4051 C   0  0  0  0  0  0  0  0  0  0  0  0
  -90.7598   30.4040   -2.6441 C   0  0  0  0  0  0  0  0  0  0  0  0
  -89.5344   30.4297   -2.0227 C   0  0  0  0  0  0  0  0  0  0  0  0
  -88.8850   29.5395   -1.2257 N   0  0  0  0  0  0  0  0  0  0  0  0
  -87.7027   30.1661   -0.9059 C   0  0  0  0  0  0  0  0  0  0  0  0
  -86.7019   29.6757   -0.0961 C   0  0  0  0  0  0  0  0  0  0  0  0
  -91.0250   29.2857    1.6843 H   0  0  0  0  0  0  0  0  0  0  0  0
  -84.3903   34.7088   -1.4050 H   0  0  0  0  0  0  0  0  0  0  0  0
  -91.0676   27.2344    0.6815 C   0  0  0  0  0  0  0  0  0  0  0  0
  -90.7476   26.3077    1.6744 O   0  0  0  0  0  0  0  0  0  0  0  0
  -90.5820   25.4008    1.3110 H   0  0  0  0  0  0  0  0  0  0  0  0
  2  1  1  0  0  0
  2  3  1  0  0  0
  3  4  1  0  0  0
  4  5  1  0  0  0
  5  6  1  0  0  0
  6  7  1  0  0  0
  6 34  1  0  0  0
 34 35  1  0  0  0
  4  8  1  0  0  0
  8  9  1  0  0  0
  9 10  2  0  0  0
 10 11  1  0  0  0
 11 12  2  0  0  0
 12 13  1  0  0  0
 13 14  2  0  0  0
 14 15  1  0  0  0
 15 16  2  0  0  0
 16 17  1  0  0  0
 17 18  2  0  0  0
 17 19  1  0  0  0
 19 20  1  0  0  0
 20 21  1  0  0  0
 21 22  2  0  0  0
 22 23  1  0  0  0
 23 24  2  0  0  0
 24 25  1  0  0  0
 25 26  2  0  0  0
 26 27  1  0  0  0
 27 28  2  0  0  0
 28 29  1  0  0  0
 29 30  1  0  0  0
 30 31  2  0  0  0
  6  2  1  0  0  0
 31  8  1  0  0  0
 29  2  1  0  0  0
 14  9  1  0  0  0
 31 15  1  0  0  0
 21 16  1  0  0  0
 30 22  1  0  0  0
 28 23  1  0  0  0
  7 32  1  0  0  0
 35 36  1  0  0  0
 19 33  1  0  0  0
M  END
> <minimizedAffinity>
-11.77198

> <CNNscore>
0.3047394753

> <CNNaffinity>
6.2885828018

> <CNN_VS>
1.9163794518

> <CNNaffinity_variance>
0.2586268783

$$$$
[H]OC([H])([H])[C@@]1(O[H])C([H])([H])[C@@]2([H])O[C@]1(C([H])([H])[H])n1c3c([H])c([H])c([H])c([H])c3c3c4c(c5c6c([H])c([H])c([H])c([H])c6n2c5c31)C(=O)N([H])C4([H])[H]


 36 43  0  0  0  0  0  0  0  0999 V2000
  -88.6170   26.7492    1.5964 C   0  0  0  0  0  0  0  0  0  0  0  0
  -88.3769   27.5321    0.3512 C   0  0  0  0  0  0  0  0  0  0  0  0
  -89.6103   28.2333    0.2504 O   0  0  0  0  0  0  0  0  0  0  0  0
  -89.8947   28.4766   -1.0496 C   0  0  0  0  0  0  0  0  0  0  0  0
  -89.3583   27.3582   -1.8363 C   0  0  0  0  0  0  0  0  0  0  0  0
  -88.3631   26.7070   -0.9017 C   0  0  0  0  0  0  0  0  0  0  0  0
  -87.1382   26.7240   -1.5517 O   0  0  0  0  0  0  0  0  0  0  0  0
  -89.3928   29.7968   -1.4525 N   0  0  0  0  0  0  0  0  0  0  0  0
  -89.9454   30.6930   -2.2518 C   0  0  0  0  0  0  0  0  0  0  0  0
  -91.1393   30.6209   -2.9215 C   0  0  0  0  0  0  0  0  0  0  0  0
  -91.5179   31.6984   -3.7130 C   0  0  0  0  0  0  0  0  0  0  0  0
  -90.7162   32.8058   -3.8206 C   0  0  0  0  0  0  0  0  0  0  0  0
  -89.4963   32.8822   -3.1378 C   0  0  0  0  0  0  0  0  0  0  0  0
  -89.1345   31.8184   -2.3634 C   0  0  0  0  0  0  0  0  0  0  0  0
  -88.0343   31.5620   -1.5770 C   0  0  0  0  0  0  0  0  0  0  0  0
  -86.8820   32.2685   -1.2838 C   0  0  0  0  0  0  0  0  0  0  0  0
  -86.3577   33.5696   -1.6579 C   0  0  0  0  0  0  0  0  0  0  0  0
  -86.8264   34.4473   -2.3845 O   0  0  0  0  0  0  0  0  0  0  0  0
  -85.0921   33.7242   -1.0082 N   0  0  0  0  0  0  0  0  0  0  0  0
  -84.7745   32.5539   -0.2265 C   0  0  0  0  0  0  0  0  0  0  0  0
  -85.9543   31.6813   -0.4436 C   0  0  0  0  0  0  0  0  0  0  0  0
  -86.1462   30.4188    0.1068 C   0  0  0  0  0  0  0  0  0  0  0  0
  -85.4269   29.6037    0.9227 C   0  0  0  0  0  0  0  0  0  0  0  0
  -84.1936   29.7907    1.5031 C   0  0  0  0  0  0  0  0  0  0  0  0
  -83.6564   28.7731    2.2971 C   0  0  0  0  0  0  0  0  0  0  0  0
  -84.3863   27.6109    2.4707 C   0  0  0  0  0  0  0  0  0  0  0  0
  -85.6252   27.4468    1.8759 C   0  0  0  0  0  0  0  0  0  0  0  0
  -86.1726   28.4344    1.0928 C   0  0  0  0  0  0  0  0  0  0  0  0
  -87.3385   28.5214    0.3981 N   0  0  0  0  0  0  0  0  0  0  0  0
  -87.2874   29.7583   -0.2019 C   0  0  0  0  0  0  0  0  0  0  0  0
  -88.2346   30.3102   -1.0363 C   0  0  0  0  0  0  0  0  0  0  0  0
  -87.0536   25.8895   -2.0726 H   0  0  0  0  0  0  0  0  0  0  0  0
  -84.4496   34.5600   -1.0662 H   0  0  0  0  0  0  0  0  0  0  0  0
  -88.7750   25.2885   -0.6974 C   0  0  0  0  0  0  0  0  0  0  0  0
  -89.0151   24.7167   -1.9473 O   0  0  0  0  0  0  0  0  0  0  0  0
  -89.9767   24.5393   -2.1075 H   0  0  0  0  0  0  0  0  0  0  0  0
  2  1  1  0  0  0
  2  3  1  0  0  0
  3  4  1  0  0  0
  4  5  1  0  0  0
  5  6  1  0  0  0
  6  7  1  0  0  0
  6 34  1  0  0  0
 34 35  1  0  0  0
  4  8  1  0  0  0
  8  9  1  0  0  0
  9 10  2  0  0  0
 10 11  1  0  0  0
 11 12  2  0  0  0
 12 13  1  0  0  0
 13 14  2  0  0  0
 14 15  1  0  0  0
 15 16  2  0  0  0
 16 17  1  0  0  0
 17 18  2  0  0  0
 17 19  1  0  0  0
 19 20  1  0  0  0
 20 21  1  0  0  0
 21 22  2  0  0  0
 22 23  1  0  0  0
 23 24  2  0  0  0
 24 25  1  0  0  0
 25 26  2  0  0  0
 26 27  1  0  0  0
 27 28  2  0  0  0
 28 29  1  0  0  0
 29 30  1  0  0  0
 30 31  2  0  0  0
  6  2  1  0  0  0
 31  8  1  0  0  0
 29  2  1  0  0  0
 14  9  1  0  0  0
 31 15  1  0  0  0
 21 16  1  0  0  0
 30 22  1  0  0  0
 28 23  1  0  0  0
  7 32  1  0  0  0
 35 36  1  0  0  0
 19 33  1  0  0  0
M  END
> <minimizedAffinity>
-11.85044

> <CNNscore>
0.2866034210

> <CNNaffinity>
6.2720613480

> <CNN_VS>
1.7975941896

> <CNNaffinity_variance>
0.2713534832

$$$$
[H]OC([H])([H])[C@@]1(O[H])C([H])([H])[C@@]2([H])O[C@]1(C([H])([H])[H])n1c3c([H])c([H])c([H])c([H])c3c3c4c(c5c6c([H])c([H])c([H])c([H])c6n2c5c31)C(=O)N([H])C4([H])[H]


 36 43  0  0  0  0  0  0  0  0999 V2000
  -89.8700   34.1572   -3.2807 C   0  0  0  0  0  0  0  0  0  0  0  0
  -88.8321   33.1341   -2.9693 C   0  0  0  0  0  0  0  0  0  0  0  0
  -88.3313   33.6463   -1.7405 O   0  0  0  0  0  0  0  0  0  0  0  0
  -87.0289   33.3088   -1.5997 C   0  0  0  0  0  0  0  0  0  0  0  0
  -86.4326   33.2776   -2.9418 C   0  0  0  0  0  0  0  0  0  0  0  0
  -87.6286   33.1861   -3.8634 C   0  0  0  0  0  0  0  0  0  0  0  0
  -87.4607   32.0351   -4.6185 O   0  0  0  0  0  0  0  0  0  0  0  0
  -86.8961   32.0540   -0.8481 N   0  0  0  0  0  0  0  0  0  0  0  0
  -85.9963   31.7138    0.0586 C   0  0  0  0  0  0  0  0  0  0  0  0
  -84.9416   32.4488    0.5346 C   0  0  0  0  0  0  0  0  0  0  0  0
  -84.1202   31.8764    1.4981 C   0  0  0  0  0  0  0  0  0  0  0  0
  -84.3596   30.6079    1.9607 C   0  0  0  0  0  0  0  0  0  0  0  0
  -85.4360   29.8549    1.4763 C   0  0  0  0  0  0  0  0  0  0  0  0
  -86.2363   30.4267    0.5303 C   0  0  0  0  0  0  0  0  0  0  0  0
  -87.3505   29.9855   -0.1467 C   0  0  0  0  0  0  0  0  0  0  0  0
  -88.0697   28.8042   -0.1387 C   0  0  0  0  0  0  0  0  0  0  0  0
  -87.9709   27.5523    0.5898 C   0  0  0  0  0  0  0  0  0  0  0  0
  -87.1681   27.1819    1.4479 O   0  0  0  0  0  0  0  0  0  0  0  0
  -89.0365   26.7098    0.1398 N   0  0  0  0  0  0  0  0  0  0  0  0
  -89.8227   27.3776   -0.8689 C   0  0  0  0  0  0  0  0  0  0  0  0
  -89.1565   28.6978   -0.9865 C   0  0  0  0  0  0  0  0  0  0  0  0
  -89.5404   29.7314   -1.8339 C   0  0  0  0  0  0  0  0  0  0  0  0
  -90.5191   29.9044   -2.7612 C   0  0  0  0  0  0  0  0  0  0  0  0
  -91.5101   29.0460   -3.1783 C   0  0  0  0  0  0  0  0  0  0  0  0
  -92.3935   29.4645   -4.1777 C   0  0  0  0  0  0  0  0  0  0  0  0
  -92.2386   30.7305   -4.7134 C   0  0  0  0  0  0  0  0  0  0  0  0
  -91.2332   31.5756   -4.2768 C   0  0  0  0  0  0  0  0  0  0  0  0
  -90.3549   31.1852   -3.2948 C   0  0  0  0  0  0  0  0  0  0  0  0
  -89.2945   31.8013   -2.7068 N   0  0  0  0  0  0  0  0  0  0  0  0
  -88.8129   30.8734   -1.8126 C   0  0  0  0  0  0  0  0  0  0  0  0
  -87.7229   31.0163   -0.9823 C   0  0  0  0  0  0  0  0  0  0  0  0
  -86.9648   32.2734   -5.4384 H   0  0  0  0  0  0  0  0  0  0  0  0
  -89.2524   25.7313    0.4726 H   0  0  0  0  0  0  0  0  0  0  0  0
  -87.6034   34.3640   -4.7775 C   0  0  0  0  0  0  0  0  0  0  0  0
  -86.6379   35.2586   -4.3145 O   0  0  0  0  0  0  0  0  0  0  0  0
  -87.0333   36.0840   -3.9346 H   0  0  0  0  0  0  0  0  0  0  0  0
  2  1  1  0  0  0
  2  3  1  0  0  0
  3  4  1  0  0  0
  4  5  1  0  0  0
  5  6  1  0  0  0
  6  7  1  0  0  0
  6 34  1  0  0  0
 34 35  1  0  0  0
  4  8  1  0  0  0
  8  9  1  0  0  0
  9 10  2  0  0  0
 10 11  1  0  0  0
 11 12  2  0  0  0
 12 13  1  0  0  0
 13 14  2  0  0  0
 14 15  1  0  0  0
 15 16  2  0  0  0
 16 17  1  0  0  0
 17 18  2  0  0  0
 17 19  1  0  0  0
 19 20  1  0  0  0
 20 21  1  0  0  0
 21 22  2  0  0  0
 22 23  1  0  0  0
 23 24  2  0  0  0
 24 25  1  0  0  0
 25 26  2  0  0  0
 26 27  1  0  0  0
 27 28  2  0  0  0
 28 29  1  0  0  0
 29 30  1  0  0  0
 30 31  2  0  0  0
  6  2  1  0  0  0
 31  8  1  0  0  0
 29  2  1  0  0  0
 14  9  1  0  0  0
 31 15  1  0  0  0
 21 16  1  0  0  0
 30 22  1  0  0  0
 28 23  1  0  0  0
  7 32  1  0  0  0
 35 36  1  0  0  0
 19 33  1  0  0  0
M  END
> <minimizedAffinity>
-10.70990

> <CNNscore>
0.2571989894

> <CNNaffinity>
6.0751919746

> <CNN_VS>
1.5625332594

> <CNNaffinity_variance>
0.3611299992

$$$$
[H]OC([H])([H])[C@@]1(O[H])C([H])([H])[C@@]2([H])O[C@]1(C([H])([H])[H])n1c3c([H])c([H])c([H])c([H])c3c3c4c(c5c6c([H])c([H])c([H])c([H])c6n2c5c31)C(=O)N([H])C4([H])[H]


 36 43  0  0  0  0  0  0  0  0999 V2000
  -89.9370   25.9329   -0.6671 C   0  0  0  0  0  0  0  0  0  0  0  0
  -89.2002   26.9291    0.1611 C   0  0  0  0  0  0  0  0  0  0  0  0
  -87.8791   26.4105    0.0664 O   0  0  0  0  0  0  0  0  0  0  0  0
  -87.1862   26.7130    1.1881 C   0  0  0  0  0  0  0  0  0  0  0  0
  -88.1376   26.7200    2.3072 C   0  0  0  0  0  0  0  0  0  0  0  0
  -89.4855   26.8388    1.6311 C   0  0  0  0  0  0  0  0  0  0  0  0
  -90.0859   27.9804    2.1406 O   0  0  0  0  0  0  0  0  0  0  0  0
  -86.4429   27.9681    1.0166 N   0  0  0  0  0  0  0  0  0  0  0  0
  -85.2338   28.2888    1.4440 C   0  0  0  0  0  0  0  0  0  0  0  0
  -84.3530   27.5280    2.1682 C   0  0  0  0  0  0  0  0  0  0  0  0
  -83.1252   28.0832    2.5069 C   0  0  0  0  0  0  0  0  0  0  0  0
  -82.8035   29.3605    2.1255 C   0  0  0  0  0  0  0  0  0  0  0  0
  -83.7011   30.1399    1.3857 C   0  0  0  0  0  0  0  0  0  0  0  0
  -84.9040   29.5847    1.0587 C   0  0  0  0  0  0  0  0  0  0  0  0
  -85.9938   30.0523    0.3599 C   0  0  0  0  0  0  0  0  0  0  0  0
  -86.2901   31.2528   -0.2596 C   0  0  0  0  0  0  0  0  0  0  0  0
  -85.5824   32.5059   -0.4518 C   0  0  0  0  0  0  0  0  0  0  0  0
  -84.4589   32.8591   -0.0898 O   0  0  0  0  0  0  0  0  0  0  0  0
  -86.4437   33.3746   -1.1942 N   0  0  0  0  0  0  0  0  0  0  0  0
  -87.6977   32.7226   -1.4840 C   0  0  0  0  0  0  0  0  0  0  0  0
  -87.5241   31.3840   -0.8688 C   0  0  0  0  0  0  0  0  0  0  0  0
  -88.4609   30.3564   -0.8760 C   0  0  0  0  0  0  0  0  0  0  0  0
  -89.7216   30.2049   -1.3611 C   0  0  0  0  0  0  0  0  0  0  0  0
  -90.5210   31.0877   -2.0501 C   0  0  0  0  0  0  0  0  0  0  0  0
  -91.8071   30.6877   -2.4248 C   0  0  0  0  0  0  0  0  0  0  0  0
  -92.2313   29.4149   -2.0878 C   0  0  0  0  0  0  0  0  0  0  0  0
  -91.4080   28.5451   -1.3939 C   0  0  0  0  0  0  0  0  0  0  0  0
  -90.1400   28.9170   -1.0170 C   0  0  0  0  0  0  0  0  0  0  0  0
  -89.1551   28.2756   -0.3329 N   0  0  0  0  0  0  0  0  0  0  0  0
  -88.1343   29.1950   -0.2608 C   0  0  0  0  0  0  0  0  0  0  0  0
  -86.9150   29.0272    0.3580 C   0  0  0  0  0  0  0  0  0  0  0  0
  -90.6119   27.7238    2.9359 H   0  0  0  0  0  0  0  0  0  0  0  0
  -86.2308   34.3606   -1.5061 H   0  0  0  0  0  0  0  0  0  0  0  0
  -90.3064   25.6554    2.0174 C   0  0  0  0  0  0  0  0  0  0  0  0
  -89.5136   24.8035    2.7872 O   0  0  0  0  0  0  0  0  0  0  0  0
  -89.2797   23.9663    2.3116 H   0  0  0  0  0  0  0  0  0  0  0  0
  2  1  1  0  0  0
  2  3  1  0  0  0
  3  4  1  0  0  0
  4  5  1  0  0  0
  5  6  1  0  0  0
  6  7  1  0  0  0
  6 34  1  0  0  0
 34 35  1  0  0  0
  4  8  1  0  0  0
  8  9  1  0  0  0
  9 10  2  0  0  0
 10 11  1  0  0  0
 11 12  2  0  0  0
 12 13  1  0  0  0
 13 14  2  0  0  0
 14 15  1  0  0  0
 15 16  2  0  0  0
 16 17  1  0  0  0
 17 18  2  0  0  0
 17 19  1  0  0  0
 19 20  1  0  0  0
 20 21  1  0  0  0
 21 22  2  0  0  0
 22 23  1  0  0  0
 23 24  2  0  0  0
 24 25  1  0  0  0
 25 26  2  0  0  0
 26 27  1  0  0  0
 27 28  2  0  0  0
 28 29  1  0  0  0
 29 30  1  0  0  0
 30 31  2  0  0  0
  6  2  1  0  0  0
 31  8  1  0  0  0
 29  2  1  0  0  0
 14  9  1  0  0  0
 31 15  1  0  0  0
 21 16  1  0  0  0
 30 22  1  0  0  0
 28 23  1  0  0  0
  7 32  1  0  0  0
 35 36  1  0  0  0
 19 33  1  0  0  0
M  END
> <minimizedAffinity>
-12.29914

> <CNNscore>
0.2272503674

> <CNNaffinity>
6.2947912216

> <CNN_VS>
1.4304935932

> <CNNaffinity_variance>
0.1885927022

$$$$
[H]OC([H])([H])[C@@]1(O[H])C([H])([H])[C@@]2([H])O[C@]1(C([H])([H])[H])n1c3c([H])c([H])c([H])c([H])c3c3c4c(c5c6c([H])c([H])c([H])c([H])c6n2c5c31)C(=O)N([H])C4([H])[H]


 36 43  0  0  0  0  0  0  0  0999 V2000
  -89.9491   29.5684   -2.8726 C   0  0  0  0  0  0  0  0  0  0  0  0
  -89.1972   29.8457   -1.6160 C   0  0  0  0  0  0  0  0  0  0  0  0
  -88.3848   28.6804   -1.5439 O   0  0  0  0  0  0  0  0  0  0  0  0
  -88.1217   28.3841   -0.2505 C   0  0  0  0  0  0  0  0  0  0  0  0
  -89.2886   28.7924    0.5429 C   0  0  0  0  0  0  0  0  0  0  0  0
  -90.0254   29.7483   -0.3690 C   0  0  0  0  0  0  0  0  0  0  0  0
  -90.1251   30.9511    0.3141 O   0  0  0  0  0  0  0  0  0  0  0  0
  -86.8556   28.9950    0.1749 N   0  0  0  0  0  0  0  0  0  0  0  0
  -85.9155   28.5061    0.9651 C   0  0  0  0  0  0  0  0  0  0  0  0
  -85.8790   27.2927    1.6018 C   0  0  0  0  0  0  0  0  0  0  0  0
  -84.7744   26.9942    2.3901 C   0  0  0  0  0  0  0  0  0  0  0  0
  -83.7468   27.8918    2.5270 C   0  0  0  0  0  0  0  0  0  0  0  0
  -83.7813   29.1319    1.8779 C   0  0  0  0  0  0  0  0  0  0  0  0
  -84.8708   29.4147    1.1063 C   0  0  0  0  0  0  0  0  0  0  0  0
  -85.2250   30.5076    0.3483 C   0  0  0  0  0  0  0  0  0  0  0  0
  -84.6274   31.7281    0.0912 C   0  0  0  0  0  0  0  0  0  0  0  0
  -83.3823   32.3604    0.4883 C   0  0  0  0  0  0  0  0  0  0  0  0
  -82.4679   31.9553    1.2079 O   0  0  0  0  0  0  0  0  0  0  0  0
  -83.3433   33.6524   -0.1259 N   0  0  0  0  0  0  0  0  0  0  0  0
  -84.5347   33.8814   -0.9067 C   0  0  0  0  0  0  0  0  0  0  0  0
  -85.2947   32.6201   -0.7276 C   0  0  0  0  0  0  0  0  0  0  0  0
  -86.5314   32.3271   -1.2916 C   0  0  0  0  0  0  0  0  0  0  0  0
  -87.4065   32.9898   -2.0934 C   0  0  0  0  0  0  0  0  0  0  0  0
  -87.3324   34.2507   -2.6389 C   0  0  0  0  0  0  0  0  0  0  0  0
  -88.3921   34.7129   -3.4250 C   0  0  0  0  0  0  0  0  0  0  0  0
  -89.4807   33.8833   -3.6263 C   0  0  0  0  0  0  0  0  0  0  0  0
  -89.5315   32.6186   -3.0663 C   0  0  0  0  0  0  0  0  0  0  0  0
  -88.5006   32.1438   -2.2915 C   0  0  0  0  0  0  0  0  0  0  0  0
  -88.3086   30.9723   -1.6280 N   0  0  0  0  0  0  0  0  0  0  0  0
  -87.0844   31.1214   -1.0185 C   0  0  0  0  0  0  0  0  0  0  0  0
  -86.4504   30.2070   -0.2062 C   0  0  0  0  0  0  0  0  0  0  0  0
  -90.9662   30.9434    0.8313 H   0  0  0  0  0  0  0  0  0  0  0  0
  -82.5710   34.3678   -0.0449 H   0  0  0  0  0  0  0  0  0  0  0  0
  -91.3986   29.2123   -0.5939 C   0  0  0  0  0  0  0  0  0  0  0  0
  -91.9073   28.7797    0.6312 O   0  0  0  0  0  0  0  0  0  0  0  0
  -91.9793   27.7931    0.6875 H   0  0  0  0  0  0  0  0  0  0  0  0
  2  1  1  0  0  0
  2  3  1  0  0  0
  3  4  1  0  0  0
  4  5  1  0  0  0
  5  6  1  0  0  0
  6  7  1  0  0  0
  6 34  1  0  0  0
 34 35  1  0  0  0
  4  8  1  0  0  0
  8  9  1  0  0  0
  9 10  2  0  0  0
 10 11  1  0  0  0
 11 12  2  0  0  0
 12 13  1  0  0  0
 13 14  2  0  0  0
 14 15  1  0  0  0
 15 16  2  0  0  0
 16 17  1  0  0  0
 17 18  2  0  0  0
 17 19  1  0  0  0
 19 20  1  0  0  0
 20 21  1  0  0  0
 21 22  2  0  0  0
 22 23  1  0  0  0
 23 24  2  0  0  0
 24 25  1  0  0  0
 25 26  2  0  0  0
 26 27  1  0  0  0
 27 28  2  0  0  0
 28 29  1  0  0  0
 29 30  1  0  0  0
 30 31  2  0  0  0
  6  2  1  0  0  0
 31  8  1  0  0  0
 29  2  1  0  0  0
 14  9  1  0  0  0
 31 15  1  0  0  0
 21 16  1  0  0  0
 30 22  1  0  0  0
 28 23  1  0  0  0
  7 32  1  0  0  0
 35 36  1  0  0  0
 19 33  1  0  0  0
M  END
> <minimizedAffinity>
-11.60350

> <CNNscore>
0.1831458509

> <CNNaffinity>
6.0084409714

> <CNN_VS>
1.1004210711

> <CNNaffinity_variance>
0.6104825735

$$$$
[H]c1c([H])c([H])c2c(c1[H])c1c3c(c4c5c([H])c([H])c([H])c([H])c5n5c4c1n2[C@]1([H])O[C@]5(C([H])([H])[H])[C@@]([H])(OC([H])([H])[H])[C@@]([H])(N([H])C([H])([H])[H])C1([H])[H])C([H])([H])N([H])C3=O


 37 44  0  0  0  0  0  0  0  0999 V2000
  -89.0143   26.0113    0.5100 C   0  0  0  0  0  0  0  0  0  0  0  0
  -87.7149   26.4098    1.2894 C   0  0  0  0  0  0  0  0  0  0  0  0
  -87.5219   27.7008    0.8693 C   0  0  0  0  0  0  0  0  0  0  0  0
  -88.6785   28.3613    1.2590 O   0  0  0  0  0  0  0  0  0  0  0  0
  -89.4690   28.4716    0.0685 C   0  0  0  0  0  0  0  0  0  0  0  0
  -90.8439   28.8823    0.7046 C   0  0  0  0  0  0  0  0  0  0  0  0
  -89.5026   27.1249   -0.4496 C   0  0  0  0  0  0  0  0  0  0  0  0
  -88.9434   29.6083   -0.6410 N   0  0  0  0  0  0  0  0  0  0  0  0
  -89.6547   30.4198   -1.4574 C   0  0  0  0  0  0  0  0  0  0  0  0
  -90.9439   30.3871   -1.9734 C   0  0  0  0  0  0  0  0  0  0  0  0
  -91.4148   31.3867   -2.8197 C   0  0  0  0  0  0  0  0  0  0  0  0
  -90.6117   32.4476   -3.1758 C   0  0  0  0  0  0  0  0  0  0  0  0
  -89.3264   32.5106   -2.6819 C   0  0  0  0  0  0  0  0  0  0  0  0
  -88.8981   31.5114   -1.8533 C   0  0  0  0  0  0  0  0  0  0  0  0
  -87.6806   31.3606   -1.2629 C   0  0  0  0  0  0  0  0  0  0  0  0
  -86.4838   32.0874   -1.2000 C   0  0  0  0  0  0  0  0  0  0  0  0
  -86.1647   33.3626   -1.8656 C   0  0  0  0  0  0  0  0  0  0  0  0
  -84.8062   33.6625   -1.4928 N   0  0  0  0  0  0  0  0  0  0  0  0
  -84.3093   32.6349   -0.6088 C   0  0  0  0  0  0  0  0  0  0  0  0
  -83.1569   32.7176   -0.1606 O   0  0  0  0  0  0  0  0  0  0  0  0
  -85.3867   31.6830   -0.4604 C   0  0  0  0  0  0  0  0  0  0  0  0
  -85.4302   30.5020    0.2684 C   0  0  0  0  0  0  0  0  0  0  0  0
  -84.5741   29.7740    1.0430 C   0  0  0  0  0  0  0  0  0  0  0  0
  -83.2979   29.9669    1.4635 C   0  0  0  0  0  0  0  0  0  0  0  0
  -82.7156   28.9772    2.2762 C   0  0  0  0  0  0  0  0  0  0  0  0
  -83.4148   27.8481    2.6354 C   0  0  0  0  0  0  0  0  0  0  0  0
  -84.7242   27.6555    2.2011 C   0  0  0  0  0  0  0  0  0  0  0  0
  -85.2694   28.6364    1.4091 C   0  0  0  0  0  0  0  0  0  0  0  0
  -86.4895   28.6463    0.8989 N   0  0  0  0  0  0  0  0  0  0  0  0
  -86.6068   29.8041    0.1949 C   0  0  0  0  0  0  0  0  0  0  0  0
  -87.7217   30.2254   -0.5526 C   0  0  0  0  0  0  0  0  0  0  0  0
  -84.3075   34.5121   -1.8418 H   0  0  0  0  0  0  0  0  0  0  0  0
  -89.5714   23.8061   -0.3092 C   0  0  0  0  0  0  0  0  0  0  0  0
  -88.6513   24.9015   -0.3493 N   0  0  0  0  0  0  0  0  0  0  0  0
  -87.6579   24.6581   -0.3408 H   0  0  0  0  0  0  0  0  0  0  0  0
  -89.1808   26.8781   -1.7671 O   0  0  0  0  0  0  0  0  0  0  0  0
  -90.2125   26.8504   -2.6604 C   0  0  0  0  0  0  0  0  0  0  0  0
 33 34  1  0  0  0
 34  1  1  0  0  0
  1  2  1  0  0  0
  2  3  1  0  0  0
  3  4  1  0  0  0
  4  5  1  0  0  0
  5  6  1  0  0  0
  5  7  1  0  0  0
  7 36  1  0  0  0
 36 37  1  0  0  0
  5  8  1  0  0  0
  8  9  1  0  0  0
  9 10  2  0  0  0
 10 11  1  0  0  0
 11 12  2  0  0  0
 12 13  1  0  0  0
 13 14  2  0  0  0
 14 15  1  0  0  0
 15 16  2  0  0  0
 16 17  1  0  0  0
 17 18  1  0  0  0
 18 19  1  0  0  0
 19 20  2  0  0  0
 19 21  1  0  0  0
 21 22  2  0  0  0
 22 23  1  0  0  0
 23 24  2  0  0  0
 24 25  1  0  0  0
 25 26  2  0  0  0
 26 27  1  0  0  0
 27 28  2  0  0  0
 28 29  1  0  0  0
 29 30  1  0  0  0
 30 31  2  0  0  0
  7  1  1  0  0  0
 31  8  1  0  0  0
 29  3  1  0  0  0
 14  9  1  0  0  0
 31 15  1  0  0  0
 21 16  1  0  0  0
 30 22  1  0  0  0
 28 23  1  0  0  0
 34 35  1  0  0  0
 18 32  1  0  0  0
M  END
> <minimizedAffinity>
-12.41544

> <CNNscore>
0.5967002511

> <CNNaffinity>
6.9350523949

> <CNN_VS>
4.1381473541

> <CNNaffinity_variance>
0.3681183755

$$$$
[H]c1c([H])c([H])c2c(c1[H])c1c3c(c4c5c([H])c([H])c([H])c([H])c5n5c4c1n2[C@]1([H])O[C@]5(C([H])([H])[H])[C@@]([H])(OC([H])([H])[H])[C@@]([H])(N([H])C([H])([H])[H])C1([H])[H])C([H])([H])N([H])C3=O


 37 44  0  0  0  0  0  0  0  0999 V2000
  -89.8914   27.9628   -1.2910 C   0  0  0  0  0  0  0  0  0  0  0  0
  -88.8311   27.6423   -0.1829 C   0  0  0  0  0  0  0  0  0  0  0  0
  -88.0944   28.7986   -0.1584 C   0  0  0  0  0  0  0  0  0  0  0  0
  -89.0176   29.7829    0.1649 O   0  0  0  0  0  0  0  0  0  0  0  0
  -89.3280   30.4308   -1.0753 C   0  0  0  0  0  0  0  0  0  0  0  0
  -90.6045   31.2330   -0.6390 C   0  0  0  0  0  0  0  0  0  0  0  0
  -89.6606   29.3404   -1.9606 C   0  0  0  0  0  0  0  0  0  0  0  0
  -88.2603   31.3698   -1.2991 N   0  0  0  0  0  0  0  0  0  0  0  0
  -88.3739   32.5404   -1.9684 C   0  0  0  0  0  0  0  0  0  0  0  0
  -89.3797   33.1330   -2.7212 C   0  0  0  0  0  0  0  0  0  0  0  0
  -89.2060   34.3799   -3.3147 C   0  0  0  0  0  0  0  0  0  0  0  0
  -88.0227   35.0708   -3.1743 C   0  0  0  0  0  0  0  0  0  0  0  0
  -87.0035   34.5111   -2.4342 C   0  0  0  0  0  0  0  0  0  0  0  0
  -87.2097   33.2853   -1.8656 C   0  0  0  0  0  0  0  0  0  0  0  0
  -86.3526   32.5434   -1.1117 C   0  0  0  0  0  0  0  0  0  0  0  0
  -85.0575   32.6956   -0.5978 C   0  0  0  0  0  0  0  0  0  0  0  0
  -84.1400   33.8337   -0.7818 C   0  0  0  0  0  0  0  0  0  0  0  0
  -82.9387   33.4793   -0.0706 N   0  0  0  0  0  0  0  0  0  0  0  0
  -83.1100   32.1896    0.5552 C   0  0  0  0  0  0  0  0  0  0  0  0
  -82.1890   31.7101    1.2316 O   0  0  0  0  0  0  0  0  0  0  0  0
  -84.4386   31.7472    0.1971 C   0  0  0  0  0  0  0  0  0  0  0  0
  -85.0973   30.5693    0.5236 C   0  0  0  0  0  0  0  0  0  0  0  0
  -84.8137   29.4228    1.2076 C   0  0  0  0  0  0  0  0  0  0  0  0
  -83.7365   28.9969    1.9154 C   0  0  0  0  0  0  0  0  0  0  0  0
  -83.7975   27.7202    2.5030 C   0  0  0  0  0  0  0  0  0  0  0  0
  -84.9122   26.9256    2.3665 C   0  0  0  0  0  0  0  0  0  0  0  0
  -86.0148   27.3678    1.6392 C   0  0  0  0  0  0  0  0  0  0  0  0
  -85.9300   28.6177    1.0759 C   0  0  0  0  0  0  0  0  0  0  0  0
  -86.8614   29.2193    0.3550 N   0  0  0  0  0  0  0  0  0  0  0  0
  -86.3614   30.4368    0.0124 C   0  0  0  0  0  0  0  0  0  0  0  0
  -86.9880   31.4090   -0.7886 C   0  0  0  0  0  0  0  0  0  0  0  0
  -82.1008   34.1035   -0.0471 H   0  0  0  0  0  0  0  0  0  0  0  0
  -89.8471   25.6304   -1.9249 C   0  0  0  0  0  0  0  0  0  0  0  0
  -89.6877   26.9889   -2.3454 N   0  0  0  0  0  0  0  0  0  0  0  0
  -88.8941   27.1815   -2.9612 H   0  0  0  0  0  0  0  0  0  0  0  0
  -89.0629   29.2426   -3.1988 O   0  0  0  0  0  0  0  0  0  0  0  0
  -89.5891   30.0055   -4.2010 C   0  0  0  0  0  0  0  0  0  0  0  0
 33 34  1  0  0  0
 34  1  1  0  0  0
  1  2  1  0  0  0
  2  3  1  0  0  0
  3  4  1  0  0  0
  4  5  1  0  0  0
  5  6  1  0  0  0
  5  7  1  0  0  0
  7 36  1  0  0  0
 36 37  1  0  0  0
  5  8  1  0  0  0
  8  9  1  0  0  0
  9 10  2  0  0  0
 10 11  1  0  0  0
 11 12  2  0  0  0
 12 13  1  0  0  0
 13 14  2  0  0  0
 14 15  1  0  0  0
 15 16  2  0  0  0
 16 17  1  0  0  0
 17 18  1  0  0  0
 18 19  1  0  0  0
 19 20  2  0  0  0
 19 21  1  0  0  0
 21 22  2  0  0  0
 22 23  1  0  0  0
 23 24  2  0  0  0
 24 25  1  0  0  0
 25 26  2  0  0  0
 26 27  1  0  0  0
 27 28  2  0  0  0
 28 29  1  0  0  0
 29 30  1  0  0  0
 30 31  2  0  0  0
  7  1  1  0  0  0
 31  8  1  0  0  0
 29  3  1  0  0  0
 14  9  1  0  0  0
 31 15  1  0  0  0
 21 16  1  0  0  0
 30 22  1  0  0  0
 28 23  1  0  0  0
 34 35  1  0  0  0
 18 32  1  0  0  0
M  END
> <minimizedAffinity>
-10.69789

> <CNNscore>
0.4113891423

> <CNNaffinity>
6.8249549866

> <CNN_VS>
2.8077123165

> <CNNaffinity_variance>
0.2917363048

$$$$
[H]c1c([H])c([H])c2c(c1[H])c1c3c(c4c5c([H])c([H])c([H])c([H])c5n5c4c1n2[C@]1([H])O[C@]5(C([H])([H])[H])[C@@]([H])(OC([H])([H])[H])[C@@]([H])(N([H])C([H])([H])[H])C1([H])[H])C([H])([H])N([H])C3=O


 37 44  0  0  0  0  0  0  0  0999 V2000
  -90.7657   30.9686   -3.2672 C   0  0  0  0  0  0  0  0  0  0  0  0
  -91.1547   29.8080   -2.2892 C   0  0  0  0  0  0  0  0  0  0  0  0
  -90.0510   29.7446   -1.4779 C   0  0  0  0  0  0  0  0  0  0  0  0
  -89.9761   31.0072   -0.9068 O   0  0  0  0  0  0  0  0  0  0  0  0
  -88.9534   31.6928   -1.6405 C   0  0  0  0  0  0  0  0  0  0  0  0
  -89.2256   33.1614   -1.1583 C   0  0  0  0  0  0  0  0  0  0  0  0
  -89.3340   31.5058   -3.0202 C   0  0  0  0  0  0  0  0  0  0  0  0
  -87.7073   31.2545   -1.0689 N   0  0  0  0  0  0  0  0  0  0  0  0
  -86.5704   31.9862   -1.0134 C   0  0  0  0  0  0  0  0  0  0  0  0
  -86.1769   33.2078   -1.5447 C   0  0  0  0  0  0  0  0  0  0  0  0
  -84.9039   33.7235   -1.3193 C   0  0  0  0  0  0  0  0  0  0  0  0
  -83.9868   33.0339   -0.5573 C   0  0  0  0  0  0  0  0  0  0  0  0
  -84.3444   31.8180   -0.0155 C   0  0  0  0  0  0  0  0  0  0  0  0
  -85.6030   31.3428   -0.2577 C   0  0  0  0  0  0  0  0  0  0  0  0
  -86.1653   30.1753    0.1598 C   0  0  0  0  0  0  0  0  0  0  0  0
  -85.7828   29.0925    0.9633 C   0  0  0  0  0  0  0  0  0  0  0  0
  -84.4904   28.8799    1.6383 C   0  0  0  0  0  0  0  0  0  0  0  0
  -84.6101   27.6110    2.3092 N   0  0  0  0  0  0  0  0  0  0  0  0
  -85.9300   27.0695    2.0876 C   0  0  0  0  0  0  0  0  0  0  0  0
  -86.2396   25.9832    2.5974 O   0  0  0  0  0  0  0  0  0  0  0  0
  -86.6159   28.0250    1.2475 C   0  0  0  0  0  0  0  0  0  0  0  0
  -87.9028   27.9832    0.7280 C   0  0  0  0  0  0  0  0  0  0  0  0
  -88.9561   27.1155    0.7373 C   0  0  0  0  0  0  0  0  0  0  0  0
  -89.1778   25.9185    1.3380 C   0  0  0  0  0  0  0  0  0  0  0  0
  -90.4177   25.2911    1.1183 C   0  0  0  0  0  0  0  0  0  0  0  0
  -91.3775   25.8696    0.3204 C   0  0  0  0  0  0  0  0  0  0  0  0
  -91.1446   27.0981   -0.2934 C   0  0  0  0  0  0  0  0  0  0  0  0
  -89.9266   27.6897   -0.0628 C   0  0  0  0  0  0  0  0  0  0  0  0
  -89.5123   28.8491   -0.5458 N   0  0  0  0  0  0  0  0  0  0  0  0
  -88.2596   29.0489   -0.0556 C   0  0  0  0  0  0  0  0  0  0  0  0
  -87.4102   30.1354   -0.3338 C   0  0  0  0  0  0  0  0  0  0  0  0
  -83.8245   27.1956    2.8592 H   0  0  0  0  0  0  0  0  0  0  0  0
  -92.0099   29.9820   -5.0900 C   0  0  0  0  0  0  0  0  0  0  0  0
  -90.7302   30.3891   -4.5956 N   0  0  0  0  0  0  0  0  0  0  0  0
  -89.9547   29.7434   -4.7625 H   0  0  0  0  0  0  0  0  0  0  0  0
  -88.4181   31.0356   -3.9368 O   0  0  0  0  0  0  0  0  0  0  0  0
  -87.7255   31.9688   -4.6527 C   0  0  0  0  0  0  0  0  0  0  0  0
 33 34  1  0  0  0
 34  1  1  0  0  0
  1  2  1  0  0  0
  2  3  1  0  0  0
  3  4  1  0  0  0
  4  5  1  0  0  0
  5  6  1  0  0  0
  5  7  1  0  0  0
  7 36  1  0  0  0
 36 37  1  0  0  0
  5  8  1  0  0  0
  8  9  1  0  0  0
  9 10  2  0  0  0
 10 11  1  0  0  0
 11 12  2  0  0  0
 12 13  1  0  0  0
 13 14  2  0  0  0
 14 15  1  0  0  0
 15 16  2  0  0  0
 16 17  1  0  0  0
 17 18  1  0  0  0
 18 19  1  0  0  0
 19 20  2  0  0  0
 19 21  1  0  0  0
 21 22  2  0  0  0
 22 23  1  0  0  0
 23 24  2  0  0  0
 24 25  1  0  0  0
 25 26  2  0  0  0
 26 27  1  0  0  0
 27 28  2  0  0  0
 28 29  1  0  0  0
 29 30  1  0  0  0
 30 31  2  0  0  0
  7  1  1  0  0  0
 31  8  1  0  0  0
 29  3  1  0  0  0
 14  9  1  0  0  0
 31 15  1  0  0  0
 21 16  1  0  0  0
 30 22  1  0  0  0
 28 23  1  0  0  0
 34 35  1  0  0  0
 18 32  1  0  0  0
M  END
> <minimizedAffinity>
-10.30923

> <CNNscore>
0.4086326361

> <CNNaffinity>
6.6105451584

> <CNN_VS>
2.7012844086

> <CNNaffinity_variance>
0.2064529210

$$$$
[H]c1c([H])c([H])c2c(c1[H])c1c3c(c4c5c([H])c([H])c([H])c([H])c5n5c4c1n2[C@]1([H])O[C@]5(C([H])([H])[H])[C@@]([H])(OC([H])([H])[H])[C@@]([H])(N([H])C([H])([H])[H])C1([H])[H])C([H])([H])N([H])C3=O


 37 44  0  0  0  0  0  0  0  0999 V2000
  -91.9169   29.3407   -2.1542 C   0  0  0  0  0  0  0  0  0  0  0  0
  -91.3003   30.5933   -2.8652 C   0  0  0  0  0  0  0  0  0  0  0  0
  -90.0266   30.6042   -2.3569 C   0  0  0  0  0  0  0  0  0  0  0  0
  -89.4978   29.3796   -2.7393 O   0  0  0  0  0  0  0  0  0  0  0  0
  -89.5727   28.5548   -1.5695 C   0  0  0  0  0  0  0  0  0  0  0  0
  -89.3026   27.1524   -2.2205 C   0  0  0  0  0  0  0  0  0  0  0  0
  -90.9444   28.6878   -1.1406 C   0  0  0  0  0  0  0  0  0  0  0  0
  -88.4281   28.9094   -0.7721 N   0  0  0  0  0  0  0  0  0  0  0  0
  -87.7736   28.0787    0.0722 C   0  0  0  0  0  0  0  0  0  0  0  0
  -88.0093   26.7938    0.5444 C   0  0  0  0  0  0  0  0  0  0  0  0
  -87.1396   26.1759    1.4382 C   0  0  0  0  0  0  0  0  0  0  0  0
  -86.0097   26.8234    1.8869 C   0  0  0  0  0  0  0  0  0  0  0  0
  -85.7461   28.0999    1.4387 C   0  0  0  0  0  0  0  0  0  0  0  0
  -86.6222   28.6752    0.5612 C   0  0  0  0  0  0  0  0  0  0  0  0
  -86.5724   29.9150    0.0008 C   0  0  0  0  0  0  0  0  0  0  0  0
  -85.6931   31.0062    0.0223 C   0  0  0  0  0  0  0  0  0  0  0  0
  -84.4354   31.1389    0.7784 C   0  0  0  0  0  0  0  0  0  0  0  0
  -83.9362   32.4538    0.4684 N   0  0  0  0  0  0  0  0  0  0  0  0
  -84.8277   33.1021   -0.4640 C   0  0  0  0  0  0  0  0  0  0  0  0
  -84.5652   34.2433   -0.8696 O   0  0  0  0  0  0  0  0  0  0  0  0
  -85.8998   32.1636   -0.7071 C   0  0  0  0  0  0  0  0  0  0  0  0
  -87.0240   32.2931   -1.5115 C   0  0  0  0  0  0  0  0  0  0  0  0
  -87.5797   33.2552   -2.3042 C   0  0  0  0  0  0  0  0  0  0  0  0
  -87.1939   34.5039   -2.6712 C   0  0  0  0  0  0  0  0  0  0  0  0
  -88.0416   35.2301   -3.5274 C   0  0  0  0  0  0  0  0  0  0  0  0
  -89.2252   34.6947   -3.9803 C   0  0  0  0  0  0  0  0  0  0  0  0
  -89.6160   33.4128   -3.6006 C   0  0  0  0  0  0  0  0  0  0  0  0
  -88.7707   32.7249   -2.7644 C   0  0  0  0  0  0  0  0  0  0  0  0
  -88.9548   31.5030   -2.2931 N   0  0  0  0  0  0  0  0  0  0  0  0
  -87.8728   31.2177   -1.5201 C   0  0  0  0  0  0  0  0  0  0  0  0
  -87.6523   30.0404   -0.7822 C   0  0  0  0  0  0  0  0  0  0  0  0
  -83.0546   32.8277    0.8869 H   0  0  0  0  0  0  0  0  0  0  0  0
  -94.2029   30.1262   -2.1144 C   0  0  0  0  0  0  0  0  0  0  0  0
  -93.0257   29.8277   -1.3573 N   0  0  0  0  0  0  0  0  0  0  0  0
  -92.7707   30.5033   -0.6330 H   0  0  0  0  0  0  0  0  0  0  0  0
  -91.2361   29.0097    0.1677 O   0  0  0  0  0  0  0  0  0  0  0  0
  -91.2774   27.9799    1.0628 C   0  0  0  0  0  0  0  0  0  0  0  0
 33 34  1  0  0  0
 34  1  1  0  0  0
  1  2  1  0  0  0
  2  3  1  0  0  0
  3  4  1  0  0  0
  4  5  1  0  0  0
  5  6  1  0  0  0
  5  7  1  0  0  0
  7 36  1  0  0  0
 36 37  1  0  0  0
  5  8  1  0  0  0
  8  9  1  0  0  0
  9 10  2  0  0  0
 10 11  1  0  0  0
 11 12  2  0  0  0
 12 13  1  0  0  0
 13 14  2  0  0  0
 14 15  1  0  0  0
 15 16  2  0  0  0
 16 17  1  0  0  0
 17 18  1  0  0  0
 18 19  1  0  0  0
 19 20  2  0  0  0
 19 21  1  0  0  0
 21 22  2  0  0  0
 22 23  1  0  0  0
 23 24  2  0  0  0
 24 25  1  0  0  0
 25 26  2  0  0  0
 26 27  1  0  0  0
 27 28  2  0  0  0
 28 29  1  0  0  0
 29 30  1  0  0  0
 30 31  2  0  0  0
  7  1  1  0  0  0
 31  8  1  0  0  0
 29  3  1  0  0  0
 14  9  1  0  0  0
 31 15  1  0  0  0
 21 16  1  0  0  0
 30 22  1  0  0  0
 28 23  1  0  0  0
 34 35  1  0  0  0
 18 32  1  0  0  0
M  END
> <minimizedAffinity>
-10.30025

> <CNNscore>
0.3312847018

> <CNNaffinity>
6.5671095848

> <CNN_VS>
2.1755828857

> <CNNaffinity_variance>
0.1253117621

$$$$
[H]c1c([H])c([H])c2c(c1[H])c1c3c(c4c5c([H])c([H])c([H])c([H])c5n5c4c1n2[C@]1([H])O[C@]5(C([H])([H])[H])[C@@]([H])(OC([H])([H])[H])[C@@]([H])(N([H])C([H])([H])[H])C1([H])[H])C([H])([H])N([H])C3=O


 37 44  0  0  0  0  0  0  0  0999 V2000
  -89.4923   24.3011   -1.9639 C   0  0  0  0  0  0  0  0  0  0  0  0
  -88.7860   25.4578   -2.7501 C   0  0  0  0  0  0  0  0  0  0  0  0
  -88.9238   26.5104   -1.8819 C   0  0  0  0  0  0  0  0  0  0  0  0
  -88.2752   26.0880   -0.7302 O   0  0  0  0  0  0  0  0  0  0  0  0
  -89.3196   25.6804    0.1628 C   0  0  0  0  0  0  0  0  0  0  0  0
  -88.4652   24.9097    1.2302 C   0  0  0  0  0  0  0  0  0  0  0  0
  -90.1201   24.7789   -0.6309 C   0  0  0  0  0  0  0  0  0  0  0  0
  -89.8078   26.8926    0.7661 N   0  0  0  0  0  0  0  0  0  0  0  0
  -90.3410   26.9911    2.0059 C   0  0  0  0  0  0  0  0  0  0  0  0
  -90.7111   26.0704    2.9779 C   0  0  0  0  0  0  0  0  0  0  0  0
  -91.2566   26.4744    4.1930 C   0  0  0  0  0  0  0  0  0  0  0  0
  -91.4489   27.8094    4.4724 C   0  0  0  0  0  0  0  0  0  0  0  0
  -91.0930   28.7496    3.5294 C   0  0  0  0  0  0  0  0  0  0  0  0
  -90.5600   28.3162    2.3476 C   0  0  0  0  0  0  0  0  0  0  0  0
  -90.1514   29.0539    1.2786 C   0  0  0  0  0  0  0  0  0  0  0  0
  -90.0546   30.4152    0.9598 C   0  0  0  0  0  0  0  0  0  0  0  0
  -90.4472   31.5681    1.7892 C   0  0  0  0  0  0  0  0  0  0  0  0
  -90.1632   32.7323    0.9902 N   0  0  0  0  0  0  0  0  0  0  0  0
  -89.5903   32.3252   -0.2709 C   0  0  0  0  0  0  0  0  0  0  0  0
  -89.2600   33.1855   -1.0995 O   0  0  0  0  0  0  0  0  0  0  0  0
  -89.5455   30.8808   -0.2395 C   0  0  0  0  0  0  0  0  0  0  0  0
  -89.0999   29.9880   -1.2049 C   0  0  0  0  0  0  0  0  0  0  0  0
  -88.6039   30.0550   -2.4747 C   0  0  0  0  0  0  0  0  0  0  0  0
  -88.2889   31.0827   -3.3038 C   0  0  0  0  0  0  0  0  0  0  0  0
  -87.7856   30.7691   -4.5795 C   0  0  0  0  0  0  0  0  0  0  0  0
  -87.6166   29.4631   -4.9774 C   0  0  0  0  0  0  0  0  0  0  0  0
  -87.9413   28.4125   -4.1224 C   0  0  0  0  0  0  0  0  0  0  0  0
  -88.4306   28.7455   -2.8829 C   0  0  0  0  0  0  0  0  0  0  0  0
  -88.7928   27.9038   -1.9293 N   0  0  0  0  0  0  0  0  0  0  0  0
  -89.2025   28.6618   -0.8770 C   0  0  0  0  0  0  0  0  0  0  0  0
  -89.7137   28.1954    0.3479 C   0  0  0  0  0  0  0  0  0  0  0  0
  -90.3637   33.7012    1.3269 H   0  0  0  0  0  0  0  0  0  0  0  0
  -91.2468   22.6776   -2.3243 C   0  0  0  0  0  0  0  0  0  0  0  0
  -90.6122   23.8763   -2.7807 N   0  0  0  0  0  0  0  0  0  0  0  0
  -90.4622   23.9526   -3.7895 H   0  0  0  0  0  0  0  0  0  0  0  0
  -91.4859   24.9477   -0.7103 O   0  0  0  0  0  0  0  0  0  0  0  0
  -92.2357   24.3961    0.2881 C   0  0  0  0  0  0  0  0  0  0  0  0
 33 34  1  0  0  0
 34  1  1  0  0  0
  1  2  1  0  0  0
  2  3  1  0  0  0
  3  4  1  0  0  0
  4  5  1  0  0  0
  5  6  1  0  0  0
  5  7  1  0  0  0
  7 36  1  0  0  0
 36 37  1  0  0  0
  5  8  1  0  0  0
  8  9  1  0  0  0
  9 10  2  0  0  0
 10 11  1  0  0  0
 11 12  2  0  0  0
 12 13  1  0  0  0
 13 14  2  0  0  0
 14 15  1  0  0  0
 15 16  2  0  0  0
 16 17  1  0  0  0
 17 18  1  0  0  0
 18 19  1  0  0  0
 19 20  2  0  0  0
 19 21  1  0  0  0
 21 22  2  0  0  0
 22 23  1  0  0  0
 23 24  2  0  0  0
 24 25  1  0  0  0
 25 26  2  0  0  0
 26 27  1  0  0  0
 27 28  2  0  0  0
 28 29  1  0  0  0
 29 30  1  0  0  0
 30 31  2  0  0  0
  7  1  1  0  0  0
 31  8  1  0  0  0
 29  3  1  0  0  0
 14  9  1  0  0  0
 31 15  1  0  0  0
 21 16  1  0  0  0
 30 22  1  0  0  0
 28 23  1  0  0  0
 34 35  1  0  0  0
 18 32  1  0  0  0
M  END
> <minimizedAffinity>
13.31633

> <CNNscore>
0.2815372050

> <CNNaffinity>
5.5598731041

> <CNN_VS>
1.5653110743

> <CNNaffinity_variance>
0.4546092153

$$$$
[H]c1c([H])c([H])c2c(c1[H])c1c3c(c4c5c([H])c([H])c([H])c([H])c5n5c4c1n2[C@]1([H])O[C@]5(C([H])([H])[H])[C@@]([H])(OC([H])([H])[H])[C@@]([H])(N([H])C([H])([H])[H])C1([H])[H])C([H])([H])N([H])C3=O


 37 44  0  0  0  0  0  0  0  0999 V2000
  -88.5133   33.2398   -3.1373 C   0  0  0  0  0  0  0  0  0  0  0  0
  -87.1349   33.2092   -2.3930 C   0  0  0  0  0  0  0  0  0  0  0  0
  -87.1002   31.9217   -1.9220 C   0  0  0  0  0  0  0  0  0  0  0  0
  -87.1792   31.1395   -3.0655 O   0  0  0  0  0  0  0  0  0  0  0  0
  -88.5417   30.6993   -3.1279 C   0  0  0  0  0  0  0  0  0  0  0  0
  -88.5755   30.1610   -4.6018 C   0  0  0  0  0  0  0  0  0  0  0  0
  -89.3046   31.9166   -2.9875 C   0  0  0  0  0  0  0  0  0  0  0  0
  -88.6259   29.5735   -2.2349 N   0  0  0  0  0  0  0  0  0  0  0  0
  -89.4734   28.5274   -2.3707 C   0  0  0  0  0  0  0  0  0  0  0  0
  -90.5405   28.2476   -3.2148 C   0  0  0  0  0  0  0  0  0  0  0  0
  -91.2538   27.0565   -3.1160 C   0  0  0  0  0  0  0  0  0  0  0  0
  -90.9226   26.1107   -2.1710 C   0  0  0  0  0  0  0  0  0  0  0  0
  -89.8692   26.3569   -1.3168 C   0  0  0  0  0  0  0  0  0  0  0  0
  -89.1913   27.5371   -1.4431 C   0  0  0  0  0  0  0  0  0  0  0  0
  -88.1383   27.9946   -0.7114 C   0  0  0  0  0  0  0  0  0  0  0  0
  -87.3394   27.5108    0.3337 C   0  0  0  0  0  0  0  0  0  0  0  0
  -87.4547   26.2212    1.0370 C   0  0  0  0  0  0  0  0  0  0  0  0
  -86.4137   26.2307    2.0324 N   0  0  0  0  0  0  0  0  0  0  0  0
  -85.6625   27.4597    1.9347 C   0  0  0  0  0  0  0  0  0  0  0  0
  -84.7074   27.6559    2.6996 O   0  0  0  0  0  0  0  0  0  0  0  0
  -86.2768   28.2175    0.8681 C   0  0  0  0  0  0  0  0  0  0  0  0
  -85.9532   29.4746    0.3756 C   0  0  0  0  0  0  0  0  0  0  0  0
  -85.0518   30.4584    0.6627 C   0  0  0  0  0  0  0  0  0  0  0  0
  -84.0350   30.5650    1.5557 C   0  0  0  0  0  0  0  0  0  0  0  0
  -83.2939   31.7607    1.5701 C   0  0  0  0  0  0  0  0  0  0  0  0
  -83.5878   32.7915    0.7078 C   0  0  0  0  0  0  0  0  0  0  0  0
  -84.6322   32.6765   -0.2066 C   0  0  0  0  0  0  0  0  0  0  0  0
  -85.3399   31.4993   -0.2005 C   0  0  0  0  0  0  0  0  0  0  0  0
  -86.3588   31.1912   -0.9853 N   0  0  0  0  0  0  0  0  0  0  0  0
  -86.7446   29.9322   -0.6449 C   0  0  0  0  0  0  0  0  0  0  0  0
  -87.8187   29.2048   -1.1892 C   0  0  0  0  0  0  0  0  0  0  0  0
  -86.2724   25.4374    2.6980 H   0  0  0  0  0  0  0  0  0  0  0  0
  -89.6030   35.3939   -3.2657 C   0  0  0  0  0  0  0  0  0  0  0  0
  -89.3179   34.2417   -2.4662 N   0  0  0  0  0  0  0  0  0  0  0  0
  -89.0594   34.4197   -1.4928 H   0  0  0  0  0  0  0  0  0  0  0  0
  -90.3181   31.9990   -2.0569 O   0  0  0  0  0  0  0  0  0  0  0  0
  -91.5297   31.4825   -2.4155 C   0  0  0  0  0  0  0  0  0  0  0  0
 33 34  1  0  0  0
 34  1  1  0  0  0
  1  2  1  0  0  0
  2  3  1  0  0  0
  3  4  1  0  0  0
  4  5  1  0  0  0
  5  6  1  0  0  0
  5  7  1  0  0  0
  7 36  1  0  0  0
 36 37  1  0  0  0
  5  8  1  0  0  0
  8  9  1  0  0  0
  9 10  2  0  0  0
 10 11  1  0  0  0
 11 12  2  0  0  0
 12 13  1  0  0  0
 13 14  2  0  0  0
 14 15  1  0  0  0
 15 16  2  0  0  0
 16 17  1  0  0  0
 17 18  1  0  0  0
 18 19  1  0  0  0
 19 20  2  0  0  0
 19 21  1  0  0  0
 21 22  2  0  0  0
 22 23  1  0  0  0
 23 24  2  0  0  0
 24 25  1  0  0  0
 25 26  2  0  0  0
 26 27  1  0  0  0
 27 28  2  0  0  0
 28 29  1  0  0  0
 29 30  1  0  0  0
 30 31  2  0  0  0
  7  1  1  0  0  0
 31  8  1  0  0  0
 29  3  1  0  0  0
 14  9  1  0  0  0
 31 15  1  0  0  0
 21 16  1  0  0  0
 30 22  1  0  0  0
 28 23  1  0  0  0
 34 35  1  0  0  0
 18 32  1  0  0  0
M  END
> <minimizedAffinity>
-8.88459

> <CNNscore>
0.2134992331

> <CNNaffinity>
6.0660772324

> <CNN_VS>
1.2951028347

> <CNNaffinity_variance>
0.9955226183

$$$$
[H]c1c([H])c([H])c2c(c1[H])c1c3c(c4c5c([H])c([H])c([H])c([H])c5n5c4c1n2[C@]1([H])O[C@]5(C([H])([H])[H])[C@@]([H])(OC([H])([H])[H])[C@@]([H])(N([H])C([H])([H])[H])C1([H])[H])C([H])([H])N([H])C3=O


 37 44  0  0  0  0  0  0  0  0999 V2000
  -90.6442   26.5263   -0.8934 C   0  0  0  0  0  0  0  0  0  0  0  0
  -90.8339   27.5930   -2.0252 C   0  0  0  0  0  0  0  0  0  0  0  0
  -89.7670   28.4262   -1.8055 C   0  0  0  0  0  0  0  0  0  0  0  0
  -88.6589   27.6020   -1.9410 O   0  0  0  0  0  0  0  0  0  0  0  0
  -88.2436   27.3053   -0.6017 C   0  0  0  0  0  0  0  0  0  0  0  0
  -87.2588   26.1177   -0.8902 C   0  0  0  0  0  0  0  0  0  0  0  0
  -89.4528   26.8504    0.0419 C   0  0  0  0  0  0  0  0  0  0  0  0
  -87.4678   28.4407   -0.1766 N   0  0  0  0  0  0  0  0  0  0  0  0
  -86.4473   28.4044    0.7113 C   0  0  0  0  0  0  0  0  0  0  0  0
  -85.9268   27.4273    1.5503 C   0  0  0  0  0  0  0  0  0  0  0  0
  -84.8428   27.6861    2.3841 C   0  0  0  0  0  0  0  0  0  0  0  0
  -84.2476   28.9281    2.4047 C   0  0  0  0  0  0  0  0  0  0  0  0
  -84.7398   29.9209    1.5849 C   0  0  0  0  0  0  0  0  0  0  0  0
  -85.8053   29.6307    0.7793 C   0  0  0  0  0  0  0  0  0  0  0  0
  -86.4579   30.4470   -0.0933 C   0  0  0  0  0  0  0  0  0  0  0  0
  -86.3249   31.7673   -0.5444 C   0  0  0  0  0  0  0  0  0  0  0  0
  -85.3334   32.7716   -0.1210 C   0  0  0  0  0  0  0  0  0  0  0  0
  -85.6474   33.9621   -0.8683 N   0  0  0  0  0  0  0  0  0  0  0  0
  -86.7670   33.7032   -1.7422 C   0  0  0  0  0  0  0  0  0  0  0  0
  -87.1847   34.6028   -2.4852 O   0  0  0  0  0  0  0  0  0  0  0  0
  -87.1495   32.3301   -1.5023 C   0  0  0  0  0  0  0  0  0  0  0  0
  -88.1750   31.5851   -2.0688 C   0  0  0  0  0  0  0  0  0  0  0  0
  -89.1845   31.7933   -2.9634 C   0  0  0  0  0  0  0  0  0  0  0  0
  -89.5577   32.8541   -3.7238 C   0  0  0  0  0  0  0  0  0  0  0  0
  -90.6823   32.7048   -4.5558 C   0  0  0  0  0  0  0  0  0  0  0  0
  -91.3839   31.5224   -4.5999 C   0  0  0  0  0  0  0  0  0  0  0  0
  -90.9963   30.4370   -3.8175 C   0  0  0  0  0  0  0  0  0  0  0  0
  -89.8954   30.6086   -3.0143 C   0  0  0  0  0  0  0  0  0  0  0  0
  -89.3664   29.7075   -2.2035 N   0  0  0  0  0  0  0  0  0  0  0  0
  -88.2910   30.2974   -1.6159 C   0  0  0  0  0  0  0  0  0  0  0  0
  -87.4438   29.7287   -0.6474 C   0  0  0  0  0  0  0  0  0  0  0  0
  -85.1093   34.8506   -0.7524 H   0  0  0  0  0  0  0  0  0  0  0  0
  -92.7342   25.5191   -0.2138 C   0  0  0  0  0  0  0  0  0  0  0  0
  -91.8217   26.6096   -0.0518 N   0  0  0  0  0  0  0  0  0  0  0  0
  -92.2380   27.5415    0.0143 H   0  0  0  0  0  0  0  0  0  0  0  0
  -89.8472   27.3945    1.2455 O   0  0  0  0  0  0  0  0  0  0  0  0
  -89.4237   26.7613    2.3782 C   0  0  0  0  0  0  0  0  0  0  0  0
 33 34  1  0  0  0
 34  1  1  0  0  0
  1  2  1  0  0  0
  2  3  1  0  0  0
  3  4  1  0  0  0
  4  5  1  0  0  0
  5  6  1  0  0  0
  5  7  1  0  0  0
  7 36  1  0  0  0
 36 37  1  0  0  0
  5  8  1  0  0  0
  8  9  1  0  0  0
  9 10  2  0  0  0
 10 11  1  0  0  0
 11 12  2  0  0  0
 12 13  1  0  0  0
 13 14  2  0  0  0
 14 15  1  0  0  0
 15 16  2  0  0  0
 16 17  1  0  0  0
 17 18  1  0  0  0
 18 19  1  0  0  0
 19 20  2  0  0  0
 19 21  1  0  0  0
 21 22  2  0  0  0
 22 23  1  0  0  0
 23 24  2  0  0  0
 24 25  1  0  0  0
 25 26  2  0  0  0
 26 27  1  0  0  0
 27 28  2  0  0  0
 28 29  1  0  0  0
 29 30  1  0  0  0
 30 31  2  0  0  0
  7  1  1  0  0  0
 31  8  1  0  0  0
 29  3  1  0  0  0
 14  9  1  0  0  0
 31 15  1  0  0  0
 21 16  1  0  0  0
 30 22  1  0  0  0
 28 23  1  0  0  0
 34 35  1  0  0  0
 18 32  1  0  0  0
M  END
> <minimizedAffinity>
-10.49359

> <CNNscore>
0.1316528469

> <CNNaffinity>
6.2200980186

> <CNN_VS>
0.8188936114

> <CNNaffinity_variance>
0.3646055460

$$$$
[H]c1c([H])c([H])c2c(c1[H])c1c3c(c4c5c([H])c([H])c([H])c([H])c5n5c4c1n2[C@]1([H])O[C@]5(C([H])([H])[H])[C@@]([H])(OC([H])([H])[H])[C@@]([H])(N([H])C([H])([H])[H])C1([H])[H])C([H])([H])N([H])C3=O


 37 44  0  0  0  0  0  0  0  0999 V2000
  -93.0994   22.7669   -3.2831 C   0  0  0  0  0  0  0  0  0  0  0  0
  -92.7023   24.1213   -3.9634 C   0  0  0  0  0  0  0  0  0  0  0  0
  -92.1271   24.7999   -2.9198 C   0  0  0  0  0  0  0  0  0  0  0  0
  -91.0670   23.9925   -2.5326 O   0  0  0  0  0  0  0  0  0  0  0  0
  -91.5255   23.3037   -1.3623 C   0  0  0  0  0  0  0  0  0  0  0  0
  -90.4158   22.1987   -1.2575 C   0  0  0  0  0  0  0  0  0  0  0  0
  -92.7952   22.7473   -1.7645 C   0  0  0  0  0  0  0  0  0  0  0  0
  -91.3452   24.2280   -0.2738 N   0  0  0  0  0  0  0  0  0  0  0  0
  -91.0934   23.8859    1.0110 C   0  0  0  0  0  0  0  0  0  0  0  0
  -91.0666   22.6839    1.7067 C   0  0  0  0  0  0  0  0  0  0  0  0
  -90.7741   22.6364    3.0666 C   0  0  0  0  0  0  0  0  0  0  0  0
  -90.5005   23.7879    3.7713 C   0  0  0  0  0  0  0  0  0  0  0  0
  -90.5194   24.9980    3.1116 C   0  0  0  0  0  0  0  0  0  0  0  0
  -90.8104   25.0063    1.7760 C   0  0  0  0  0  0  0  0  0  0  0  0
  -90.8964   26.0710    0.9319 C   0  0  0  0  0  0  0  0  0  0  0  0
  -90.7028   27.4564    1.0193 C   0  0  0  0  0  0  0  0  0  0  0  0
  -90.3355   28.2445    2.2089 C   0  0  0  0  0  0  0  0  0  0  0  0
  -90.2885   29.6138    1.7646 N   0  0  0  0  0  0  0  0  0  0  0  0
  -90.5840   29.6745    0.3527 C   0  0  0  0  0  0  0  0  0  0  0  0
  -90.5791   30.7696   -0.2273 O   0  0  0  0  0  0  0  0  0  0  0  0
  -90.8340   28.3120   -0.0601 C   0  0  0  0  0  0  0  0  0  0  0  0
  -91.1765   27.8147   -1.3103 C   0  0  0  0  0  0  0  0  0  0  0  0
  -91.4399   28.3225   -2.5495 C   0  0  0  0  0  0  0  0  0  0  0  0
  -91.4126   29.5745   -3.0735 C   0  0  0  0  0  0  0  0  0  0  0  0
  -91.7532   29.7283   -4.4298 C   0  0  0  0  0  0  0  0  0  0  0  0
  -92.1034   28.6462   -5.2035 C   0  0  0  0  0  0  0  0  0  0  0  0
  -92.1296   27.3637   -4.6606 C   0  0  0  0  0  0  0  0  0  0  0  0
  -91.7929   27.2406   -3.3346 C   0  0  0  0  0  0  0  0  0  0  0  0
  -91.7529   26.1189   -2.6351 N   0  0  0  0  0  0  0  0  0  0  0  0
  -91.3626   26.4591   -1.3775 C   0  0  0  0  0  0  0  0  0  0  0  0
  -91.2195   25.5937   -0.2775 C   0  0  0  0  0  0  0  0  0  0  0  0
  -90.0678   30.4026    2.4137 H   0  0  0  0  0  0  0  0  0  0  0  0
  -95.1433   23.6801   -4.1957 C   0  0  0  0  0  0  0  0  0  0  0  0
  -94.5422   22.6671   -3.3830 N   0  0  0  0  0  0  0  0  0  0  0  0
  -95.0200   22.4490   -2.5053 H   0  0  0  0  0  0  0  0  0  0  0  0
  -93.9177   22.9439   -0.9890 O   0  0  0  0  0  0  0  0  0  0  0  0
  -94.7786   21.8913   -0.8699 C   0  0  0  0  0  0  0  0  0  0  0  0
 33 34  1  0  0  0
 34  1  1  0  0  0
  1  2  1  0  0  0
  2  3  1  0  0  0
  3  4  1  0  0  0
  4  5  1  0  0  0
  5  6  1  0  0  0
  5  7  1  0  0  0
  7 36  1  0  0  0
 36 37  1  0  0  0
  5  8  1  0  0  0
  8  9  1  0  0  0
  9 10  2  0  0  0
 10 11  1  0  0  0
 11 12  2  0  0  0
 12 13  1  0  0  0
 13 14  2  0  0  0
 14 15  1  0  0  0
 15 16  2  0  0  0
 16 17  1  0  0  0
 17 18  1  0  0  0
 18 19  1  0  0  0
 19 20  2  0  0  0
 19 21  1  0  0  0
 21 22  2  0  0  0
 22 23  1  0  0  0
 23 24  2  0  0  0
 24 25  1  0  0  0
 25 26  2  0  0  0
 26 27  1  0  0  0
 27 28  2  0  0  0
 28 29  1  0  0  0
 29 30  1  0  0  0
 30 31  2  0  0  0
  7  1  1  0  0  0
 31  8  1  0  0  0
 29  3  1  0  0  0
 14  9  1  0  0  0
 31 15  1  0  0  0
 21 16  1  0  0  0
 30 22  1  0  0  0
 28 23  1  0  0  0
 34 35  1  0  0  0
 18 32  1  0  0  0
M  END
> <minimizedAffinity>
-4.77570

> <CNNscore>
0.1057317108

> <CNNaffinity>
5.3759613037

> <CNN_VS>
0.5684095621

> <CNNaffinity_variance>
0.3498066962

$$$$
[H]c1c([H])c([H])c2c(c1[H])c1c3c(c4c5c([H])c([H])c([H])c([H])c5n5c4c1n2[C@]1([H])O[C@]5(C([H])([H])[H])[C@@]([H])(OC([H])([H])[H])[C@@]([H])(N([H])C([H])([H])[H])C1([H])[H])C([H])([H])N([H])C3=O


 37 44  0  0  0  0  0  0  0  0999 V2000
  -90.4288   32.3698   -4.0955 C   0  0  0  0  0  0  0  0  0  0  0  0
  -91.4174   31.1555   -4.0393 C   0  0  0  0  0  0  0  0  0  0  0  0
  -90.7944   30.3295   -3.1392 C   0  0  0  0  0  0  0  0  0  0  0  0
  -90.7141   31.0887   -1.9804 O   0  0  0  0  0  0  0  0  0  0  0  0
  -89.3630   31.5647   -1.9343 C   0  0  0  0  0  0  0  0  0  0  0  0
  -89.5110   32.6648   -0.8247 C   0  0  0  0  0  0  0  0  0  0  0  0
  -89.1576   32.1476   -3.2386 C   0  0  0  0  0  0  0  0  0  0  0  0
  -88.5886   30.4792   -1.3922 N   0  0  0  0  0  0  0  0  0  0  0  0
  -87.4587   30.6121   -0.6596 C   0  0  0  0  0  0  0  0  0  0  0  0
  -86.6416   31.6840   -0.3239 C   0  0  0  0  0  0  0  0  0  0  0  0
  -85.5062   31.5152    0.4632 C   0  0  0  0  0  0  0  0  0  0  0  0
  -85.1535   30.2710    0.9372 C   0  0  0  0  0  0  0  0  0  0  0  0
  -85.9422   29.1854    0.6223 C   0  0  0  0  0  0  0  0  0  0  0  0
  -87.0497   29.3888   -0.1526 C   0  0  0  0  0  0  0  0  0  0  0  0
  -87.9576   28.4751   -0.5938 C   0  0  0  0  0  0  0  0  0  0  0  0
  -88.1745   27.0994   -0.4365 C   0  0  0  0  0  0  0  0  0  0  0  0
  -87.3572   26.1363    0.3222 C   0  0  0  0  0  0  0  0  0  0  0  0
  -88.0003   24.8600    0.1433 N   0  0  0  0  0  0  0  0  0  0  0  0
  -89.1840   25.0243   -0.6667 C   0  0  0  0  0  0  0  0  0  0  0  0
  -89.8907   24.0396   -0.9250 O   0  0  0  0  0  0  0  0  0  0  0  0
  -89.2458   26.4294   -1.0002 C   0  0  0  0  0  0  0  0  0  0  0  0
  -90.1746   27.1162   -1.7704 C   0  0  0  0  0  0  0  0  0  0  0  0
  -91.2852   26.8120   -2.5030 C   0  0  0  0  0  0  0  0  0  0  0  0
  -91.9746   25.6640   -2.7256 C   0  0  0  0  0  0  0  0  0  0  0  0
  -93.1056   25.7262   -3.5599 C   0  0  0  0  0  0  0  0  0  0  0  0
  -93.5032   26.9115   -4.1339 C   0  0  0  0  0  0  0  0  0  0  0  0
  -92.7921   28.0866   -3.9019 C   0  0  0  0  0  0  0  0  0  0  0  0
  -91.6922   27.9989   -3.0838 C   0  0  0  0  0  0  0  0  0  0  0  0
  -90.8895   28.9914   -2.7377 N   0  0  0  0  0  0  0  0  0  0  0  0
  -89.9468   28.4595   -1.9143 C   0  0  0  0  0  0  0  0  0  0  0  0
  -88.8597   29.1361   -1.3314 C   0  0  0  0  0  0  0  0  0  0  0  0
  -87.6198   23.9812    0.5619 H   0  0  0  0  0  0  0  0  0  0  0  0
  -90.2061   33.7073   -6.0968 C   0  0  0  0  0  0  0  0  0  0  0  0
  -89.9558   32.4486   -5.4636 N   0  0  0  0  0  0  0  0  0  0  0  0
  -90.1335   31.6149   -6.0288 H   0  0  0  0  0  0  0  0  0  0  0  0
  -88.0567   31.7986   -3.9911 O   0  0  0  0  0  0  0  0  0  0  0  0
  -86.9712   32.6230   -3.9171 C   0  0  0  0  0  0  0  0  0  0  0  0
 33 34  1  0  0  0
 34  1  1  0  0  0
  1  2  1  0  0  0
  2  3  1  0  0  0
  3  4  1  0  0  0
  4  5  1  0  0  0
  5  6  1  0  0  0
  5  7  1  0  0  0
  7 36  1  0  0  0
 36 37  1  0  0  0
  5  8  1  0  0  0
  8  9  1  0  0  0
  9 10  2  0  0  0
 10 11  1  0  0  0
 11 12  2  0  0  0
 12 13  1  0  0  0
 13 14  2  0  0  0
 14 15  1  0  0  0
 15 16  2  0  0  0
 16 17  1  0  0  0
 17 18  1  0  0  0
 18 19  1  0  0  0
 19 20  2  0  0  0
 19 21  1  0  0  0
 21 22  2  0  0  0
 22 23  1  0  0  0
 23 24  2  0  0  0
 24 25  1  0  0  0
 25 26  2  0  0  0
 26 27  1  0  0  0
 27 28  2  0  0  0
 28 29  1  0  0  0
 29 30  1  0  0  0
 30 31  2  0  0  0
  7  1  1  0  0  0
 31  8  1  0  0  0
 29  3  1  0  0  0
 14  9  1  0  0  0
 31 15  1  0  0  0
 21 16  1  0  0  0
 30 22  1  0  0  0
 28 23  1  0  0  0
 34 35  1  0  0  0
 18 32  1  0  0  0
M  END
> <minimizedAffinity>
-9.94132

> <CNNscore>
0.1029315740

> <CNNaffinity>
5.8372621536

> <CNN_VS>
0.6008386016

> <CNNaffinity_variance>
0.5474320650

$$$$
[H]c1c([H])c([H])c2c(c1[H])c1c3c(c4c5c([H])c([H])c([H])c([H])c5n5c4c1n2[C@]1([H])O[C@]5(C([H])([H])[H])[C@]([H])(OC([H])([H])[H])[C@@]([H])(N([H])C([H])([H])[H])C1([H])[H])C([H])([H])N([H])C3=O


 37 44  0  0  0  0  0  0  0  0999 V2000
  -89.0679   26.1298    0.8602 C   0  0  0  0  0  0  0  0  0  0  0  0
  -87.7688   26.6894    1.5276 C   0  0  0  0  0  0  0  0  0  0  0  0
  -87.6794   27.9284    0.9429 C   0  0  0  0  0  0  0  0  0  0  0  0
  -88.8576   28.5622    1.3264 O   0  0  0  0  0  0  0  0  0  0  0  0
  -89.7256   28.4870    0.1917 C   0  0  0  0  0  0  0  0  0  0  0  0
  -91.0827   28.8310    0.8532 C   0  0  0  0  0  0  0  0  0  0  0  0
  -89.6317   27.0995   -0.2169 C   0  0  0  0  0  0  0  0  0  0  0  0
  -89.2965   29.5934   -0.6380 N   0  0  0  0  0  0  0  0  0  0  0  0
  -90.0883   30.2972   -1.4861 C   0  0  0  0  0  0  0  0  0  0  0  0
  -91.3777   30.1190   -1.8985 C   0  0  0  0  0  0  0  0  0  0  0  0
  -91.9624   30.9996   -2.7996 C   0  0  0  0  0  0  0  0  0  0  0  0
  -91.2599   32.0932   -3.3156 C   0  0  0  0  0  0  0  0  0  0  0  0
  -89.9567   32.2811   -2.9057 C   0  0  0  0  0  0  0  0  0  0  0  0
  -89.4099   31.3871   -2.0106 C   0  0  0  0  0  0  0  0  0  0  0  0
  -88.1688   31.3643   -1.4859 C   0  0  0  0  0  0  0  0  0  0  0  0
  -87.0186   32.1652   -1.5551 C   0  0  0  0  0  0  0  0  0  0  0  0
  -86.8251   33.3870   -2.3529 C   0  0  0  0  0  0  0  0  0  0  0  0
  -85.4751   33.8050   -2.0740 N   0  0  0  0  0  0  0  0  0  0  0  0
  -84.8688   32.8926   -1.1349 C   0  0  0  0  0  0  0  0  0  0  0  0
  -83.7021   33.0885   -0.7602 O   0  0  0  0  0  0  0  0  0  0  0  0
  -85.8656   31.8900   -0.8420 C   0  0  0  0  0  0  0  0  0  0  0  0
  -85.7979   30.7801   -0.0113 C   0  0  0  0  0  0  0  0  0  0  0  0
  -84.8578   30.1794    0.7786 C   0  0  0  0  0  0  0  0  0  0  0  0
  -83.5800   30.4952    1.1048 C   0  0  0  0  0  0  0  0  0  0  0  0
  -82.8879   29.6286    1.9704 C   0  0  0  0  0  0  0  0  0  0  0  0
  -83.4975   28.4977    2.4662 C   0  0  0  0  0  0  0  0  0  0  0  0
  -84.8065   28.1852    2.1250 C   0  0  0  0  0  0  0  0  0  0  0  0
  -85.4594   29.0433    1.2812 C   0  0  0  0  0  0  0  0  0  0  0  0
  -86.7061   28.9343    0.8361 N   0  0  0  0  0  0  0  0  0  0  0  0
  -86.9320   30.0124    0.0395 C   0  0  0  0  0  0  0  0  0  0  0  0
  -88.1071   30.2956   -0.6781 C   0  0  0  0  0  0  0  0  0  0  0  0
  -85.0547   34.6523   -2.5178 H   0  0  0  0  0  0  0  0  0  0  0  0
  -87.9296   25.2241   -1.0470 C   0  0  0  0  0  0  0  0  0  0  0  0
  -88.6415   24.9353    0.1558 N   0  0  0  0  0  0  0  0  0  0  0  0
  -89.4993   24.3397   -0.0505 H   0  0  0  0  0  0  0  0  0  0  0  0
  -90.9684   26.6119   -0.3139 O   0  0  0  0  0  0  0  0  0  0  0  0
  -91.3595   26.3446   -1.5876 C   0  0  0  0  0  0  0  0  0  0  0  0
 33 34  1  0  0  0
 34  1  1  0  0  0
  1  2  1  0  0  0
  2  3  1  0  0  0
  3  4  1  0  0  0
  4  5  1  0  0  0
  5  6  1  0  0  0
  5  7  1  0  0  0
  7 36  1  0  0  0
 36 37  1  0  0  0
  5  8  1  0  0  0
  8  9  1  0  0  0
  9 10  2  0  0  0
 10 11  1  0  0  0
 11 12  2  0  0  0
 12 13  1  0  0  0
 13 14  2  0  0  0
 14 15  1  0  0  0
 15 16  2  0  0  0
 16 17  1  0  0  0
 17 18  1  0  0  0
 18 19  1  0  0  0
 19 20  2  0  0  0
 19 21  1  0  0  0
 21 22  2  0  0  0
 22 23  1  0  0  0
 23 24  2  0  0  0
 24 25  1  0  0  0
 25 26  2  0  0  0
 26 27  1  0  0  0
 27 28  2  0  0  0
 28 29  1  0  0  0
 29 30  1  0  0  0
 30 31  2  0  0  0
  7  1  1  0  0  0
 31  8  1  0  0  0
 29  3  1  0  0  0
 14  9  1  0  0  0
 31 15  1  0  0  0
 21 16  1  0  0  0
 30 22  1  0  0  0
 28 23  1  0  0  0
 34 35  1  0  0  0
 18 32  1  0  0  0
M  END
> <minimizedAffinity>
-11.08319

> <CNNscore>
0.6978197694

> <CNNaffinity>
7.1595091820

> <CNN_VS>
4.9960470200

> <CNNaffinity_variance>
0.1923266649

$$$$
[H]c1c([H])c([H])c2c(c1[H])c1c3c(c4c5c([H])c([H])c([H])c([H])c5n5c4c1n2[C@]1([H])O[C@]5(C([H])([H])[H])[C@]([H])(OC([H])([H])[H])[C@@]([H])(N([H])C([H])([H])[H])C1([H])[H])C([H])([H])N([H])C3=O


 37 44  0  0  0  0  0  0  0  0999 V2000
  -90.6565   31.2476   -3.3963 C   0  0  0  0  0  0  0  0  0  0  0  0
  -91.1186   30.1116   -2.4257 C   0  0  0  0  0  0  0  0  0  0  0  0
  -90.0146   29.9821   -1.6198 C   0  0  0  0  0  0  0  0  0  0  0  0
  -89.8818   31.2379   -1.0347 O   0  0  0  0  0  0  0  0  0  0  0  0
  -88.8331   31.8924   -1.7547 C   0  0  0  0  0  0  0  0  0  0  0  0
  -89.0600   33.3583   -1.3102 C   0  0  0  0  0  0  0  0  0  0  0  0
  -89.1794   31.6629   -3.1433 C   0  0  0  0  0  0  0  0  0  0  0  0
  -87.6271   31.3802   -1.1385 N   0  0  0  0  0  0  0  0  0  0  0  0
  -86.4494   32.0467   -1.0351 C   0  0  0  0  0  0  0  0  0  0  0  0
  -86.0194   33.2355   -1.5511 C   0  0  0  0  0  0  0  0  0  0  0  0
  -84.7352   33.6975   -1.2935 C   0  0  0  0  0  0  0  0  0  0  0  0
  -83.8399   32.9698   -0.5032 C   0  0  0  0  0  0  0  0  0  0  0  0
  -84.2646   31.7675    0.0218 C   0  0  0  0  0  0  0  0  0  0  0  0
  -85.5457   31.3410   -0.2552 C   0  0  0  0  0  0  0  0  0  0  0  0
  -86.1655   30.2095    0.1342 C   0  0  0  0  0  0  0  0  0  0  0  0
  -85.8558   29.1045    0.9417 C   0  0  0  0  0  0  0  0  0  0  0  0
  -84.5902   28.8351    1.6436 C   0  0  0  0  0  0  0  0  0  0  0  0
  -84.7946   27.5751    2.3113 N   0  0  0  0  0  0  0  0  0  0  0  0
  -86.1301   27.0968    2.0471 C   0  0  0  0  0  0  0  0  0  0  0  0
  -86.5033   26.0231    2.5447 O   0  0  0  0  0  0  0  0  0  0  0  0
  -86.7513   28.0799    1.1913 C   0  0  0  0  0  0  0  0  0  0  0  0
  -88.0229   28.1034    0.6354 C   0  0  0  0  0  0  0  0  0  0  0  0
  -89.1183   27.2860    0.6124 C   0  0  0  0  0  0  0  0  0  0  0  0
  -89.4046   26.1003    1.2049 C   0  0  0  0  0  0  0  0  0  0  0  0
  -90.6650   25.5272    0.9561 C   0  0  0  0  0  0  0  0  0  0  0  0
  -91.5732   26.1581    0.1354 C   0  0  0  0  0  0  0  0  0  0  0  0
  -91.2684   27.3721   -0.4655 C   0  0  0  0  0  0  0  0  0  0  0  0
  -90.0358   27.9100   -0.2085 C   0  0  0  0  0  0  0  0  0  0  0  0
  -89.5489   29.0545   -0.6747 N   0  0  0  0  0  0  0  0  0  0  0  0
  -88.3023   29.1911   -0.1500 C   0  0  0  0  0  0  0  0  0  0  0  0
  -87.3962   30.2369   -0.3976 C   0  0  0  0  0  0  0  0  0  0  0  0
  -84.0474   27.1257    2.8868 H   0  0  0  0  0  0  0  0  0  0  0  0
  -91.9940   30.1789   -5.0763 C   0  0  0  0  0  0  0  0  0  0  0  0
  -90.6952   30.6491   -4.7175 N   0  0  0  0  0  0  0  0  0  0  0  0
  -89.9871   29.8550   -4.7501 H   0  0  0  0  0  0  0  0  0  0  0  0
  -89.1677   32.9379   -3.7824 O   0  0  0  0  0  0  0  0  0  0  0  0
  -88.1380   33.1006   -4.6540 C   0  0  0  0  0  0  0  0  0  0  0  0
 33 34  1  0  0  0
 34  1  1  0  0  0
  1  2  1  0  0  0
  2  3  1  0  0  0
  3  4  1  0  0  0
  4  5  1  0  0  0
  5  6  1  0  0  0
  5  7  1  0  0  0
  7 36  1  0  0  0
 36 37  1  0  0  0
  5  8  1  0  0  0
  8  9  1  0  0  0
  9 10  2  0  0  0
 10 11  1  0  0  0
 11 12  2  0  0  0
 12 13  1  0  0  0
 13 14  2  0  0  0
 14 15  1  0  0  0
 15 16  2  0  0  0
 16 17  1  0  0  0
 17 18  1  0  0  0
 18 19  1  0  0  0
 19 20  2  0  0  0
 19 21  1  0  0  0
 21 22  2  0  0  0
 22 23  1  0  0  0
 23 24  2  0  0  0
 24 25  1  0  0  0
 25 26  2  0  0  0
 26 27  1  0  0  0
 27 28  2  0  0  0
 28 29  1  0  0  0
 29 30  1  0  0  0
 30 31  2  0  0  0
  7  1  1  0  0  0
 31  8  1  0  0  0
 29  3  1  0  0  0
 14  9  1  0  0  0
 31 15  1  0  0  0
 21 16  1  0  0  0
 30 22  1  0  0  0
 28 23  1  0  0  0
 34 35  1  0  0  0
 18 32  1  0  0  0
M  END
> <minimizedAffinity>
-10.37252

> <CNNscore>
0.3217303157

> <CNNaffinity>
6.4987306595

> <CNN_VS>
2.0908386707

> <CNNaffinity_variance>
0.2489345968

$$$$
[H]c1c([H])c([H])c2c(c1[H])c1c3c(c4c5c([H])c([H])c([H])c([H])c5n5c4c1n2[C@]1([H])O[C@]5(C([H])([H])[H])[C@]([H])(OC([H])([H])[H])[C@@]([H])(N([H])C([H])([H])[H])C1([H])[H])C([H])([H])N([H])C3=O


 37 44  0  0  0  0  0  0  0  0999 V2000
  -91.8074   29.2286   -2.0463 C   0  0  0  0  0  0  0  0  0  0  0  0
  -91.2137   30.4770   -2.7777 C   0  0  0  0  0  0  0  0  0  0  0  0
  -89.9486   30.5226   -2.2462 C   0  0  0  0  0  0  0  0  0  0  0  0
  -89.3892   29.3031   -2.6160 O   0  0  0  0  0  0  0  0  0  0  0  0
  -89.4592   28.4751   -1.4514 C   0  0  0  0  0  0  0  0  0  0  0  0
  -89.2092   27.0829   -2.0815 C   0  0  0  0  0  0  0  0  0  0  0  0
  -90.8223   28.6505   -0.9910 C   0  0  0  0  0  0  0  0  0  0  0  0
  -88.2997   28.8738   -0.6812 N   0  0  0  0  0  0  0  0  0  0  0  0
  -87.6005   28.0743    0.1636 C   0  0  0  0  0  0  0  0  0  0  0  0
  -87.8238   26.8086    0.6247 C   0  0  0  0  0  0  0  0  0  0  0  0
  -86.9360   26.2087    1.5085 C   0  0  0  0  0  0  0  0  0  0  0  0
  -85.7891   26.8714    1.9571 C   0  0  0  0  0  0  0  0  0  0  0  0
  -85.5553   28.1504    1.4977 C   0  0  0  0  0  0  0  0  0  0  0  0
  -86.4582   28.7134    0.6216 C   0  0  0  0  0  0  0  0  0  0  0  0
  -86.4426   29.9374    0.0579 C   0  0  0  0  0  0  0  0  0  0  0  0
  -85.5846   31.0478    0.0574 C   0  0  0  0  0  0  0  0  0  0  0  0
  -84.3227   31.2046    0.7990 C   0  0  0  0  0  0  0  0  0  0  0  0
  -83.8517   32.5229    0.4596 N   0  0  0  0  0  0  0  0  0  0  0  0
  -84.7718   33.1449   -0.4617 C   0  0  0  0  0  0  0  0  0  0  0  0
  -84.5353   34.2883   -0.8818 O   0  0  0  0  0  0  0  0  0  0  0  0
  -85.8329   32.1907   -0.6815 C   0  0  0  0  0  0  0  0  0  0  0  0
  -86.9718   32.2880   -1.4689 C   0  0  0  0  0  0  0  0  0  0  0  0
  -87.5585   33.2322   -2.2645 C   0  0  0  0  0  0  0  0  0  0  0  0
  -87.1949   34.4821   -2.6446 C   0  0  0  0  0  0  0  0  0  0  0  0
  -88.0620   35.1896   -3.4970 C   0  0  0  0  0  0  0  0  0  0  0  0
  -89.2408   34.6222   -3.9269 C   0  0  0  0  0  0  0  0  0  0  0  0
  -89.6021   33.3414   -3.5309 C   0  0  0  0  0  0  0  0  0  0  0  0
  -88.7423   32.6728   -2.7013 C   0  0  0  0  0  0  0  0  0  0  0  0
  -88.8931   31.4474   -2.2116 N   0  0  0  0  0  0  0  0  0  0  0  0
  -87.7950   31.1926   -1.4518 C   0  0  0  0  0  0  0  0  0  0  0  0
  -87.5396   30.0274   -0.7081 C   0  0  0  0  0  0  0  0  0  0  0  0
  -82.9672   32.9140    0.8551 H   0  0  0  0  0  0  0  0  0  0  0  0
  -94.0693   30.0203   -2.1466 C   0  0  0  0  0  0  0  0  0  0  0  0
  -92.9496   29.7354   -1.3090 N   0  0  0  0  0  0  0  0  0  0  0  0
  -92.6490   30.6066   -0.7763 H   0  0  0  0  0  0  0  0  0  0  0  0
  -91.3698   27.3433   -0.8309 O   0  0  0  0  0  0  0  0  0  0  0  0
  -91.4295   26.9326    0.4630 C   0  0  0  0  0  0  0  0  0  0  0  0
 33 34  1  0  0  0
 34  1  1  0  0  0
  1  2  1  0  0  0
  2  3  1  0  0  0
  3  4  1  0  0  0
  4  5  1  0  0  0
  5  6  1  0  0  0
  5  7  1  0  0  0
  7 36  1  0  0  0
 36 37  1  0  0  0
  5  8  1  0  0  0
  8  9  1  0  0  0
  9 10  2  0  0  0
 10 11  1  0  0  0
 11 12  2  0  0  0
 12 13  1  0  0  0
 13 14  2  0  0  0
 14 15  1  0  0  0
 15 16  2  0  0  0
 16 17  1  0  0  0
 17 18  1  0  0  0
 18 19  1  0  0  0
 19 20  2  0  0  0
 19 21  1  0  0  0
 21 22  2  0  0  0
 22 23  1  0  0  0
 23 24  2  0  0  0
 24 25  1  0  0  0
 25 26  2  0  0  0
 26 27  1  0  0  0
 27 28  2  0  0  0
 28 29  1  0  0  0
 29 30  1  0  0  0
 30 31  2  0  0  0
  7  1  1  0  0  0
 31  8  1  0  0  0
 29  3  1  0  0  0
 14  9  1  0  0  0
 31 15  1  0  0  0
 21 16  1  0  0  0
 30 22  1  0  0  0
 28 23  1  0  0  0
 34 35  1  0  0  0
 18 32  1  0  0  0
M  END
> <minimizedAffinity>
-10.22452

> <CNNscore>
0.2860149443

> <CNNaffinity>
6.5185661316

> <CNN_VS>
1.8644073009

> <CNNaffinity_variance>
0.1382321864

$$$$
[H]c1c([H])c([H])c2c(c1[H])c1c3c(c4c5c([H])c([H])c([H])c([H])c5n5c4c1n2[C@]1([H])O[C@]5(C([H])([H])[H])[C@]([H])(OC([H])([H])[H])[C@@]([H])(N([H])C([H])([H])[H])C1([H])[H])C([H])([H])N([H])C3=O


 37 44  0  0  0  0  0  0  0  0999 V2000
  -88.3795   33.1611   -3.3140 C   0  0  0  0  0  0  0  0  0  0  0  0
  -89.5557   32.2574   -2.8181 C   0  0  0  0  0  0  0  0  0  0  0  0
  -88.9172   31.4712   -1.8911 C   0  0  0  0  0  0  0  0  0  0  0  0
  -88.4409   32.3833   -0.9541 O   0  0  0  0  0  0  0  0  0  0  0  0
  -87.0493   32.5457   -1.2434 C   0  0  0  0  0  0  0  0  0  0  0  0
  -86.7456   33.8374   -0.4453 C   0  0  0  0  0  0  0  0  0  0  0  0
  -87.0217   32.7482   -2.6783 C   0  0  0  0  0  0  0  0  0  0  0  0
  -86.4314   31.4132   -0.5858 N   0  0  0  0  0  0  0  0  0  0  0  0
  -85.1747   31.3868   -0.0744 C   0  0  0  0  0  0  0  0  0  0  0  0
  -84.1407   32.2767   -0.1343 C   0  0  0  0  0  0  0  0  0  0  0  0
  -82.9281   31.9977    0.4829 C   0  0  0  0  0  0  0  0  0  0  0  0
  -82.7200   30.8052    1.1830 C   0  0  0  0  0  0  0  0  0  0  0  0
  -83.7580   29.8997    1.2484 C   0  0  0  0  0  0  0  0  0  0  0  0
  -84.9467   30.2107    0.6240 C   0  0  0  0  0  0  0  0  0  0  0  0
  -86.0789   29.4840    0.5458 C   0  0  0  0  0  0  0  0  0  0  0  0
  -86.5364   28.2540    1.0428 C   0  0  0  0  0  0  0  0  0  0  0  0
  -85.7893   27.2858    1.8621 C   0  0  0  0  0  0  0  0  0  0  0  0
  -86.7080   26.1991    2.0863 N   0  0  0  0  0  0  0  0  0  0  0  0
  -87.9692   26.4905    1.4486 C   0  0  0  0  0  0  0  0  0  0  0  0
  -88.8997   25.6741    1.5352 O   0  0  0  0  0  0  0  0  0  0  0  0
  -87.8144   27.7773    0.8124 C   0  0  0  0  0  0  0  0  0  0  0  0
  -88.7168   28.5143    0.0579 C   0  0  0  0  0  0  0  0  0  0  0  0
  -89.9930   28.3579   -0.4062 C   0  0  0  0  0  0  0  0  0  0  0  0
  -90.9267   27.3875   -0.2465 C   0  0  0  0  0  0  0  0  0  0  0  0
  -92.1695   27.5582   -0.8831 C   0  0  0  0  0  0  0  0  0  0  0  0
  -92.4210   28.6794   -1.6421 C   0  0  0  0  0  0  0  0  0  0  0  0
  -91.4570   29.6663   -1.7979 C   0  0  0  0  0  0  0  0  0  0  0  0
  -90.2554   29.4778   -1.1692 C   0  0  0  0  0  0  0  0  0  0  0  0
  -89.2074   30.2935   -1.1844 N   0  0  0  0  0  0  0  0  0  0  0  0
  -88.2478   29.7109   -0.4177 C   0  0  0  0  0  0  0  0  0  0  0  0
  -86.9522   30.2002   -0.1773 C   0  0  0  0  0  0  0  0  0  0  0  0
  -86.4408   25.3526    2.6373 H   0  0  0  0  0  0  0  0  0  0  0  0
  -89.5185   32.9861   -5.4176 C   0  0  0  0  0  0  0  0  0  0  0  0
  -88.2696   32.8858   -4.7343 N   0  0  0  0  0  0  0  0  0  0  0  0
  -87.8511   31.9152   -4.8594 H   0  0  0  0  0  0  0  0  0  0  0  0
  -86.2689   33.9377   -2.9076 O   0  0  0  0  0  0  0  0  0  0  0  0
  -87.0142   34.9714   -3.3793 C   0  0  0  0  0  0  0  0  0  0  0  0
 33 34  1  0  0  0
 34  1  1  0  0  0
  1  2  1  0  0  0
  2  3  1  0  0  0
  3  4  1  0  0  0
  4  5  1  0  0  0
  5  6  1  0  0  0
  5  7  1  0  0  0
  7 36  1  0  0  0
 36 37  1  0  0  0
  5  8  1  0  0  0
  8  9  1  0  0  0
  9 10  2  0  0  0
 10 11  1  0  0  0
 11 12  2  0  0  0
 12 13  1  0  0  0
 13 14  2  0  0  0
 14 15  1  0  0  0
 15 16  2  0  0  0
 16 17  1  0  0  0
 17 18  1  0  0  0
 18 19  1  0  0  0
 19 20  2  0  0  0
 19 21  1  0  0  0
 21 22  2  0  0  0
 22 23  1  0  0  0
 23 24  2  0  0  0
 24 25  1  0  0  0
 25 26  2  0  0  0
 26 27  1  0  0  0
 27 28  2  0  0  0
 28 29  1  0  0  0
 29 30  1  0  0  0
 30 31  2  0  0  0
  7  1  1  0  0  0
 31  8  1  0  0  0
 29  3  1  0  0  0
 14  9  1  0  0  0
 31 15  1  0  0  0
 21 16  1  0  0  0
 30 22  1  0  0  0
 28 23  1  0  0  0
 34 35  1  0  0  0
 18 32  1  0  0  0
M  END
> <minimizedAffinity>
-10.96573

> <CNNscore>
0.2303884774

> <CNNaffinity>
6.4729561806

> <CNN_VS>
1.4912945032

> <CNNaffinity_variance>
0.4439417422

$$$$
[H]c1c([H])c([H])c2c(c1[H])c1c3c(c4c5c([H])c([H])c([H])c([H])c5n5c4c1n2[C@]1([H])O[C@]5(C([H])([H])[H])[C@]([H])(OC([H])([H])[H])[C@@]([H])(N([H])C([H])([H])[H])C1([H])[H])C([H])([H])N([H])C3=O


 37 44  0  0  0  0  0  0  0  0999 V2000
  -87.7224   34.3619   -3.5151 C   0  0  0  0  0  0  0  0  0  0  0  0
  -86.6109   33.7798   -2.5814 C   0  0  0  0  0  0  0  0  0  0  0  0
  -87.1716   32.5824   -2.2114 C   0  0  0  0  0  0  0  0  0  0  0  0
  -87.3395   31.9080   -3.4172 O   0  0  0  0  0  0  0  0  0  0  0  0
  -88.7249   32.0431   -3.7476 C   0  0  0  0  0  0  0  0  0  0  0  0
  -88.6979   31.6373   -5.2416 C   0  0  0  0  0  0  0  0  0  0  0  0
  -88.9853   33.4552   -3.5501 C   0  0  0  0  0  0  0  0  0  0  0  0
  -89.3621   30.9987   -2.9731 N   0  0  0  0  0  0  0  0  0  0  0  0
  -90.4962   30.3392   -3.3202 C   0  0  0  0  0  0  0  0  0  0  0  0
  -91.3917   30.5246   -4.3342 C   0  0  0  0  0  0  0  0  0  0  0  0
  -92.4983   29.6952   -4.4638 C   0  0  0  0  0  0  0  0  0  0  0  0
  -92.7371   28.6475   -3.5687 C   0  0  0  0  0  0  0  0  0  0  0  0
  -91.8388   28.4528   -2.5407 C   0  0  0  0  0  0  0  0  0  0  0  0
  -90.7524   29.2955   -2.4438 C   0  0  0  0  0  0  0  0  0  0  0  0
  -89.7640   29.3028   -1.5278 C   0  0  0  0  0  0  0  0  0  0  0  0
  -89.3968   28.5250   -0.4190 C   0  0  0  0  0  0  0  0  0  0  0  0
  -90.1079   27.3599    0.1323 C   0  0  0  0  0  0  0  0  0  0  0  0
  -89.3217   26.9448    1.2657 N   0  0  0  0  0  0  0  0  0  0  0  0
  -88.1698   27.8038    1.3982 C   0  0  0  0  0  0  0  0  0  0  0  0
  -87.3601   27.6015    2.3165 O   0  0  0  0  0  0  0  0  0  0  0  0
  -88.2598   28.7708    0.3297 C   0  0  0  0  0  0  0  0  0  0  0  0
  -87.4175   29.8259    0.0076 C   0  0  0  0  0  0  0  0  0  0  0  0
  -86.2809   30.3884    0.5178 C   0  0  0  0  0  0  0  0  0  0  0  0
  -85.4759   30.0712    1.5619 C   0  0  0  0  0  0  0  0  0  0  0  0
  -84.3583   30.8904    1.8045 C   0  0  0  0  0  0  0  0  0  0  0  0
  -84.0978   31.9780    1.0010 C   0  0  0  0  0  0  0  0  0  0  0  0
  -84.9294   32.2926   -0.0654 C   0  0  0  0  0  0  0  0  0  0  0  0
  -86.0107   31.4809   -0.2814 C   0  0  0  0  0  0  0  0  0  0  0  0
  -86.9220   31.5999   -1.2404 N   0  0  0  0  0  0  0  0  0  0  0  0
  -87.7966   30.5719   -1.0777 C   0  0  0  0  0  0  0  0  0  0  0  0
  -88.9471   30.3181   -1.8444 C   0  0  0  0  0  0  0  0  0  0  0  0
  -89.5976   26.1341    1.8641 H   0  0  0  0  0  0  0  0  0  0  0  0
  -87.8015   36.7543   -3.6678 C   0  0  0  0  0  0  0  0  0  0  0  0
  -88.1258   35.6054   -2.8858 N   0  0  0  0  0  0  0  0  0  0  0  0
  -87.6676   35.6635   -1.9268 H   0  0  0  0  0  0  0  0  0  0  0  0
  -89.5968   33.9283   -4.7485 O   0  0  0  0  0  0  0  0  0  0  0  0
  -90.8939   34.3003   -4.5879 C   0  0  0  0  0  0  0  0  0  0  0  0
 33 34  1  0  0  0
 34  1  1  0  0  0
  1  2  1  0  0  0
  2  3  1  0  0  0
  3  4  1  0  0  0
  4  5  1  0  0  0
  5  6  1  0  0  0
  5  7  1  0  0  0
  7 36  1  0  0  0
 36 37  1  0  0  0
  5  8  1  0  0  0
  8  9  1  0  0  0
  9 10  2  0  0  0
 10 11  1  0  0  0
 11 12  2  0  0  0
 12 13  1  0  0  0
 13 14  2  0  0  0
 14 15  1  0  0  0
 15 16  2  0  0  0
 16 17  1  0  0  0
 17 18  1  0  0  0
 18 19  1  0  0  0
 19 20  2  0  0  0
 19 21  1  0  0  0
 21 22  2  0  0  0
 22 23  1  0  0  0
 23 24  2  0  0  0
 24 25  1  0  0  0
 25 26  2  0  0  0
 26 27  1  0  0  0
 27 28  2  0  0  0
 28 29  1  0  0  0
 29 30  1  0  0  0
 30 31  2  0  0  0
  7  1  1  0  0  0
 31  8  1  0  0  0
 29  3  1  0  0  0
 14  9  1  0  0  0
 31 15  1  0  0  0
 21 16  1  0  0  0
 30 22  1  0  0  0
 28 23  1  0  0  0
 34 35  1  0  0  0
 18 32  1  0  0  0
M  END
> <minimizedAffinity>
-10.06682

> <CNNscore>
0.1730680317

> <CNNaffinity>
6.2534608841

> <CNN_VS>
1.0822741985

> <CNNaffinity_variance>
0.3414532244

$$$$
[H]c1c([H])c([H])c2c(c1[H])c1c3c(c4c5c([H])c([H])c([H])c([H])c5n5c4c1n2[C@]1([H])O[C@]5(C([H])([H])[H])[C@]([H])(OC([H])([H])[H])[C@@]([H])(N([H])C([H])([H])[H])C1([H])[H])C([H])([H])N([H])C3=O


 37 44  0  0  0  0  0  0  0  0999 V2000
  -92.1628   29.5788   -3.1583 C   0  0  0  0  0  0  0  0  0  0  0  0
  -91.2352   30.6809   -3.7674 C   0  0  0  0  0  0  0  0  0  0  0  0
  -90.1288   30.5755   -2.9612 C   0  0  0  0  0  0  0  0  0  0  0  0
  -89.6969   29.2675   -3.1598 O   0  0  0  0  0  0  0  0  0  0  0  0
  -90.1518   28.5315   -2.0205 C   0  0  0  0  0  0  0  0  0  0  0  0
  -89.9865   27.0817   -2.5386 C   0  0  0  0  0  0  0  0  0  0  0  0
  -91.5391   28.9302   -1.8899 C   0  0  0  0  0  0  0  0  0  0  0  0
  -89.1455   28.8049   -1.0158 N   0  0  0  0  0  0  0  0  0  0  0  0
  -88.7844   27.9661   -0.0119 C   0  0  0  0  0  0  0  0  0  0  0  0
  -89.2980   26.7768    0.4196 C   0  0  0  0  0  0  0  0  0  0  0  0
  -88.7332   26.1102    1.4993 C   0  0  0  0  0  0  0  0  0  0  0  0
  -87.6266   26.6263    2.1811 C   0  0  0  0  0  0  0  0  0  0  0  0
  -87.1012   27.8273    1.7532 C   0  0  0  0  0  0  0  0  0  0  0  0
  -87.6880   28.4601    0.6785 C   0  0  0  0  0  0  0  0  0  0  0  0
  -87.3578   29.6320    0.1007 C   0  0  0  0  0  0  0  0  0  0  0  0
  -86.3599   30.6044    0.2671 C   0  0  0  0  0  0  0  0  0  0  0  0
  -85.2862   30.6222    1.2739 C   0  0  0  0  0  0  0  0  0  0  0  0
  -84.5530   31.8352    1.0162 N   0  0  0  0  0  0  0  0  0  0  0  0
  -85.1372   32.5259   -0.1080 C   0  0  0  0  0  0  0  0  0  0  0  0
  -84.6390   33.5950   -0.4933 O   0  0  0  0  0  0  0  0  0  0  0  0
  -86.2574   31.7236   -0.5396 C   0  0  0  0  0  0  0  0  0  0  0  0
  -87.1632   31.9361   -1.5696 C   0  0  0  0  0  0  0  0  0  0  0  0
  -87.4045   32.9045   -2.5037 C   0  0  0  0  0  0  0  0  0  0  0  0
  -86.7764   34.0629   -2.8238 C   0  0  0  0  0  0  0  0  0  0  0  0
  -87.3117   34.8347   -3.8711 C   0  0  0  0  0  0  0  0  0  0  0  0
  -88.4384   34.4184   -4.5446 C   0  0  0  0  0  0  0  0  0  0  0  0
  -89.0726   33.2302   -4.2077 C   0  0  0  0  0  0  0  0  0  0  0  0
  -88.5334   32.4965   -3.1852 C   0  0  0  0  0  0  0  0  0  0  0  0
  -88.9773   31.3382   -2.7104 N   0  0  0  0  0  0  0  0  0  0  0  0
  -88.1290   30.9744   -1.7123 C   0  0  0  0  0  0  0  0  0  0  0  0
  -88.2292   29.8325   -0.8987 C   0  0  0  0  0  0  0  0  0  0  0  0
  -83.7293   32.1177    1.5934 H   0  0  0  0  0  0  0  0  0  0  0  0
  -93.6752   31.3979   -3.5544 C   0  0  0  0  0  0  0  0  0  0  0  0
  -93.3479   30.2899   -2.7166 N   0  0  0  0  0  0  0  0  0  0  0  0
  -93.1955   30.6111   -1.7133 H   0  0  0  0  0  0  0  0  0  0  0  0
  -92.3042   27.7284   -1.8246 O   0  0  0  0  0  0  0  0  0  0  0  0
  -93.0559   27.5003   -2.9334 C   0  0  0  0  0  0  0  0  0  0  0  0
 33 34  1  0  0  0
 34  1  1  0  0  0
  1  2  1  0  0  0
  2  3  1  0  0  0
  3  4  1  0  0  0
  4  5  1  0  0  0
  5  6  1  0  0  0
  5  7  1  0  0  0
  7 36  1  0  0  0
 36 37  1  0  0  0
  5  8  1  0  0  0
  8  9  1  0  0  0
  9 10  2  0  0  0
 10 11  1  0  0  0
 11 12  2  0  0  0
 12 13  1  0  0  0
 13 14  2  0  0  0
 14 15  1  0  0  0
 15 16  2  0  0  0
 16 17  1  0  0  0
 17 18  1  0  0  0
 18 19  1  0  0  0
 19 20  2  0  0  0
 19 21  1  0  0  0
 21 22  2  0  0  0
 22 23  1  0  0  0
 23 24  2  0  0  0
 24 25  1  0  0  0
 25 26  2  0  0  0
 26 27  1  0  0  0
 27 28  2  0  0  0
 28 29  1  0  0  0
 29 30  1  0  0  0
 30 31  2  0  0  0
  7  1  1  0  0  0
 31  8  1  0  0  0
 29  3  1  0  0  0
 14  9  1  0  0  0
 31 15  1  0  0  0
 21 16  1  0  0  0
 30 22  1  0  0  0
 28 23  1  0  0  0
 34 35  1  0  0  0
 18 32  1  0  0  0
M  END
> <minimizedAffinity>
-10.31878

> <CNNscore>
0.1726103723

> <CNNaffinity>
6.2409400940

> <CNN_VS>
1.0772509575

> <CNNaffinity_variance>
0.2820749283

$$$$
[H]c1c([H])c([H])c2c(c1[H])c1c3c(c4c5c([H])c([H])c([H])c([H])c5n5c4c1n2[C@]1([H])O[C@]5(C([H])([H])[H])[C@]([H])(OC([H])([H])[H])[C@@]([H])(N([H])C([H])([H])[H])C1([H])[H])C([H])([H])N([H])C3=O


 37 44  0  0  0  0  0  0  0  0999 V2000
  -88.5773   36.1255   -4.1246 C   0  0  0  0  0  0  0  0  0  0  0  0
  -87.3613   35.3980   -3.4626 C   0  0  0  0  0  0  0  0  0  0  0  0
  -87.9282   34.1997   -3.1050 C   0  0  0  0  0  0  0  0  0  0  0  0
  -88.3500   33.6578   -4.3156 O   0  0  0  0  0  0  0  0  0  0  0  0
  -89.7594   33.8952   -4.3767 C   0  0  0  0  0  0  0  0  0  0  0  0
  -90.0221   33.6389   -5.8810 C   0  0  0  0  0  0  0  0  0  0  0  0
  -89.8852   35.2920   -4.0110 C   0  0  0  0  0  0  0  0  0  0  0  0
  -90.3203   32.8126   -3.5955 N   0  0  0  0  0  0  0  0  0  0  0  0
  -91.5396   32.2492   -3.7890 C   0  0  0  0  0  0  0  0  0  0  0  0
  -92.5843   32.5795   -4.6039 C   0  0  0  0  0  0  0  0  0  0  0  0
  -93.7499   31.8243   -4.6043 C   0  0  0  0  0  0  0  0  0  0  0  0
  -93.8985   30.7063   -3.7773 C   0  0  0  0  0  0  0  0  0  0  0  0
  -92.8493   30.3652   -2.9501 C   0  0  0  0  0  0  0  0  0  0  0  0
  -91.7083   31.1379   -2.9768 C   0  0  0  0  0  0  0  0  0  0  0  0
  -90.5765   31.0041   -2.2576 C   0  0  0  0  0  0  0  0  0  0  0  0
  -90.0742   30.1024   -1.3069 C   0  0  0  0  0  0  0  0  0  0  0  0
  -90.7548   28.9259   -0.7417 C   0  0  0  0  0  0  0  0  0  0  0  0
  -89.8121   28.3609    0.1896 N   0  0  0  0  0  0  0  0  0  0  0  0
  -88.5995   29.1430    0.1873 C   0  0  0  0  0  0  0  0  0  0  0  0
  -87.6570   28.8097    0.9224 O   0  0  0  0  0  0  0  0  0  0  0  0
  -88.8097   30.2146   -0.7573 C   0  0  0  0  0  0  0  0  0  0  0  0
  -87.9674   31.2525   -1.1316 C   0  0  0  0  0  0  0  0  0  0  0  0
  -86.7236   31.7032   -0.7874 C   0  0  0  0  0  0  0  0  0  0  0  0
  -85.7715   31.2434    0.0617 C   0  0  0  0  0  0  0  0  0  0  0  0
  -84.5759   31.9768    0.1699 C   0  0  0  0  0  0  0  0  0  0  0  0
  -84.3873   33.1242   -0.5677 C   0  0  0  0  0  0  0  0  0  0  0  0
  -85.3696   33.5849   -1.4341 C   0  0  0  0  0  0  0  0  0  0  0  0
  -86.5244   32.8545   -1.5222 C   0  0  0  0  0  0  0  0  0  0  0  0
  -87.5794   33.1142   -2.2862 N   0  0  0  0  0  0  0  0  0  0  0  0
  -88.4794   32.1208   -2.0599 C   0  0  0  0  0  0  0  0  0  0  0  0
  -89.7610   32.0031   -2.6253 C   0  0  0  0  0  0  0  0  0  0  0  0
  -90.0331   27.5098    0.7537 H   0  0  0  0  0  0  0  0  0  0  0  0
  -88.2693   38.4977   -3.9478 C   0  0  0  0  0  0  0  0  0  0  0  0
  -88.7792   37.3192   -3.3250 N   0  0  0  0  0  0  0  0  0  0  0  0
  -88.3237   37.1708   -2.3745 H   0  0  0  0  0  0  0  0  0  0  0  0
  -90.6638   35.9122   -5.0324 O   0  0  0  0  0  0  0  0  0  0  0  0
  -91.8681   36.3679   -4.5981 C   0  0  0  0  0  0  0  0  0  0  0  0
 33 34  1  0  0  0
 34  1  1  0  0  0
  1  2  1  0  0  0
  2  3  1  0  0  0
  3  4  1  0  0  0
  4  5  1  0  0  0
  5  6  1  0  0  0
  5  7  1  0  0  0
  7 36  1  0  0  0
 36 37  1  0  0  0
  5  8  1  0  0  0
  8  9  1  0  0  0
  9 10  2  0  0  0
 10 11  1  0  0  0
 11 12  2  0  0  0
 12 13  1  0  0  0
 13 14  2  0  0  0
 14 15  1  0  0  0
 15 16  2  0  0  0
 16 17  1  0  0  0
 17 18  1  0  0  0
 18 19  1  0  0  0
 19 20  2  0  0  0
 19 21  1  0  0  0
 21 22  2  0  0  0
 22 23  1  0  0  0
 23 24  2  0  0  0
 24 25  1  0  0  0
 25 26  2  0  0  0
 26 27  1  0  0  0
 27 28  2  0  0  0
 28 29  1  0  0  0
 29 30  1  0  0  0
 30 31  2  0  0  0
  7  1  1  0  0  0
 31  8  1  0  0  0
 29  3  1  0  0  0
 14  9  1  0  0  0
 31 15  1  0  0  0
 21 16  1  0  0  0
 30 22  1  0  0  0
 28 23  1  0  0  0
 34 35  1  0  0  0
 18 32  1  0  0  0
M  END
> <minimizedAffinity>
-8.89309

> <CNNscore>
0.1442221850

> <CNNaffinity>
5.6722955704

> <CNN_VS>
0.8180708885

> <CNNaffinity_variance>
0.8713733554

$$$$
[H]c1c([H])c([H])c2c(c1[H])c1c3c(c4c5c([H])c([H])c([H])c([H])c5n5c4c1n2[C@]1([H])O[C@]5(C([H])([H])[H])[C@]([H])(OC([H])([H])[H])[C@@]([H])(N([H])C([H])([H])[H])C1([H])[H])C([H])([H])N([H])C3=O


 37 44  0  0  0  0  0  0  0  0999 V2000
  -90.0513   32.6343   -4.0831 C   0  0  0  0  0  0  0  0  0  0  0  0
  -91.0874   31.4627   -4.0830 C   0  0  0  0  0  0  0  0  0  0  0  0
  -90.4978   30.5834   -3.2089 C   0  0  0  0  0  0  0  0  0  0  0  0
  -90.4207   31.3004   -2.0185 O   0  0  0  0  0  0  0  0  0  0  0  0
  -89.0647   31.7460   -1.9213 C   0  0  0  0  0  0  0  0  0  0  0  0
  -89.2043   32.8331   -0.8275 C   0  0  0  0  0  0  0  0  0  0  0  0
  -88.7928   32.2969   -3.2341 C   0  0  0  0  0  0  0  0  0  0  0  0
  -88.3683   30.5985   -1.3781 N   0  0  0  0  0  0  0  0  0  0  0  0
  -87.2625   30.6456   -0.5929 C   0  0  0  0  0  0  0  0  0  0  0  0
  -86.4471   31.6743   -0.2168 C   0  0  0  0  0  0  0  0  0  0  0  0
  -85.3519   31.4468    0.6066 C   0  0  0  0  0  0  0  0  0  0  0  0
  -85.0436   30.1668    1.0782 C   0  0  0  0  0  0  0  0  0  0  0  0
  -85.8608   29.1212    0.7032 C   0  0  0  0  0  0  0  0  0  0  0  0
  -86.9383   29.3849   -0.1147 C   0  0  0  0  0  0  0  0  0  0  0  0
  -87.8543   28.5307   -0.6123 C   0  0  0  0  0  0  0  0  0  0  0  0
  -88.1345   27.1601   -0.5028 C   0  0  0  0  0  0  0  0  0  0  0  0
  -87.3812   26.1503    0.2586 C   0  0  0  0  0  0  0  0  0  0  0  0
  -88.0781   24.9112    0.0263 N   0  0  0  0  0  0  0  0  0  0  0  0
  -89.2183   25.1480   -0.8258 C   0  0  0  0  0  0  0  0  0  0  0  0
  -89.9554   24.1993   -1.1364 O   0  0  0  0  0  0  0  0  0  0  0  0
  -89.2118   26.5596   -1.1293 C   0  0  0  0  0  0  0  0  0  0  0  0
  -90.0783   27.3077   -1.9141 C   0  0  0  0  0  0  0  0  0  0  0  0
  -91.1739   27.0712   -2.6966 C   0  0  0  0  0  0  0  0  0  0  0  0
  -91.8965   25.9568   -2.9700 C   0  0  0  0  0  0  0  0  0  0  0  0
  -92.9941   26.0808   -3.8412 C   0  0  0  0  0  0  0  0  0  0  0  0
  -93.3171   27.3001   -4.3938 C   0  0  0  0  0  0  0  0  0  0  0  0
  -92.5697   28.4342   -4.1060 C   0  0  0  0  0  0  0  0  0  0  0  0
  -91.5063   28.2886   -3.2559 C   0  0  0  0  0  0  0  0  0  0  0  0
  -90.6708   29.2376   -2.8492 N   0  0  0  0  0  0  0  0  0  0  0  0
  -89.7843   28.6430   -2.0074 C   0  0  0  0  0  0  0  0  0  0  0  0
  -88.6949   29.2560   -1.3645 C   0  0  0  0  0  0  0  0  0  0  0  0
  -87.7558   24.0082    0.4415 H   0  0  0  0  0  0  0  0  0  0  0  0
  -90.2636   33.7766   -6.1814 C   0  0  0  0  0  0  0  0  0  0  0  0
  -89.6037   32.7375   -5.4594 N   0  0  0  0  0  0  0  0  0  0  0  0
  -89.7535   31.7972   -5.9353 H   0  0  0  0  0  0  0  0  0  0  0  0
  -88.2752   33.6095   -3.0261 O   0  0  0  0  0  0  0  0  0  0  0  0
  -86.9599   33.7330   -3.3445 C   0  0  0  0  0  0  0  0  0  0  0  0
 33 34  1  0  0  0
 34  1  1  0  0  0
  1  2  1  0  0  0
  2  3  1  0  0  0
  3  4  1  0  0  0
  4  5  1  0  0  0
  5  6  1  0  0  0
  5  7  1  0  0  0
  7 36  1  0  0  0
 36 37  1  0  0  0
  5  8  1  0  0  0
  8  9  1  0  0  0
  9 10  2  0  0  0
 10 11  1  0  0  0
 11 12  2  0  0  0
 12 13  1  0  0  0
 13 14  2  0  0  0
 14 15  1  0  0  0
 15 16  2  0  0  0
 16 17  1  0  0  0
 17 18  1  0  0  0
 18 19  1  0  0  0
 19 20  2  0  0  0
 19 21  1  0  0  0
 21 22  2  0  0  0
 22 23  1  0  0  0
 23 24  2  0  0  0
 24 25  1  0  0  0
 25 26  2  0  0  0
 26 27  1  0  0  0
 27 28  2  0  0  0
 28 29  1  0  0  0
 29 30  1  0  0  0
 30 31  2  0  0  0
  7  1  1  0  0  0
 31  8  1  0  0  0
 29  3  1  0  0  0
 14  9  1  0  0  0
 31 15  1  0  0  0
 21 16  1  0  0  0
 30 22  1  0  0  0
 28 23  1  0  0  0
 34 35  1  0  0  0
 18 32  1  0  0  0
M  END
> <minimizedAffinity>
-10.43976

> <CNNscore>
0.1419859678

> <CNNaffinity>
5.7842020988

> <CNN_VS>
0.8212755322

> <CNNaffinity_variance>
0.7912862301

$$$$
[H]c1c([H])c([H])c2c(c1[H])c1c3c(c4c5c([H])c([H])c([H])c([H])c5n5c4c1n2[C@]1([H])O[C@]5(C([H])([H])[H])[C@]([H])(OC([H])([H])[H])[C@@]([H])(N([H])C([H])([H])[H])C1([H])[H])C([H])([H])N([H])C3=O


 37 44  0  0  0  0  0  0  0  0999 V2000
  -90.4431   27.0514    0.6123 C   0  0  0  0  0  0  0  0  0  0  0  0
  -90.7277   28.0073   -0.5925 C   0  0  0  0  0  0  0  0  0  0  0  0
  -89.5585   28.7249   -0.6473 C   0  0  0  0  0  0  0  0  0  0  0  0
  -88.5859   27.7573   -0.8811 O   0  0  0  0  0  0  0  0  0  0  0  0
  -87.9608   27.5219    0.3840 C   0  0  0  0  0  0  0  0  0  0  0  0
  -87.2272   26.1901    0.0911 C   0  0  0  0  0  0  0  0  0  0  0  0
  -89.0795   27.3632    1.2918 C   0  0  0  0  0  0  0  0  0  0  0  0
  -86.9940   28.5947    0.4898 N   0  0  0  0  0  0  0  0  0  0  0  0
  -85.8140   28.5305    1.1570 C   0  0  0  0  0  0  0  0  0  0  0  0
  -85.2753   27.5833    1.9798 C   0  0  0  0  0  0  0  0  0  0  0  0
  -84.0243   27.7705    2.5535 C   0  0  0  0  0  0  0  0  0  0  0  0
  -83.2742   28.9261    2.3136 C   0  0  0  0  0  0  0  0  0  0  0  0
  -83.8101   29.8890    1.4846 C   0  0  0  0  0  0  0  0  0  0  0  0
  -85.0539   29.6687    0.9333 C   0  0  0  0  0  0  0  0  0  0  0  0
  -85.7715   30.4632    0.1149 C   0  0  0  0  0  0  0  0  0  0  0  0
  -85.5902   31.7020   -0.5190 C   0  0  0  0  0  0  0  0  0  0  0  0
  -84.4268   32.5981   -0.4169 C   0  0  0  0  0  0  0  0  0  0  0  0
  -84.7534   33.7297   -1.2463 N   0  0  0  0  0  0  0  0  0  0  0  0
  -86.0513   33.5337   -1.8456 C   0  0  0  0  0  0  0  0  0  0  0  0
  -86.5096   34.4006   -2.6061 O   0  0  0  0  0  0  0  0  0  0  0  0
  -86.5326   32.2604   -1.3638 C   0  0  0  0  0  0  0  0  0  0  0  0
  -87.7271   31.6022   -1.6216 C   0  0  0  0  0  0  0  0  0  0  0  0
  -88.8709   31.8484   -2.3284 C   0  0  0  0  0  0  0  0  0  0  0  0
  -89.2645   32.8669   -3.1325 C   0  0  0  0  0  0  0  0  0  0  0  0
  -90.5427   32.7900   -3.7149 C   0  0  0  0  0  0  0  0  0  0  0  0
  -91.3615   31.7101   -3.4705 C   0  0  0  0  0  0  0  0  0  0  0  0
  -90.9472   30.6732   -2.6453 C   0  0  0  0  0  0  0  0  0  0  0  0
  -89.6995   30.7705   -2.0900 C   0  0  0  0  0  0  0  0  0  0  0  0
  -89.1126   29.8949   -1.2818 N   0  0  0  0  0  0  0  0  0  0  0  0
  -87.8825   30.3954   -0.9911 C   0  0  0  0  0  0  0  0  0  0  0  0
  -86.9222   29.8229   -0.1390 C   0  0  0  0  0  0  0  0  0  0  0  0
  -84.1047   34.5412   -1.3567 H   0  0  0  0  0  0  0  0  0  0  0  0
  -91.2191   28.5824    2.2878 C   0  0  0  0  0  0  0  0  0  0  0  0
  -91.4702   27.3641    1.5882 N   0  0  0  0  0  0  0  0  0  0  0  0
  -91.5486   26.5501    2.2696 H   0  0  0  0  0  0  0  0  0  0  0  0
  -88.8659   26.1390    1.9916 O   0  0  0  0  0  0  0  0  0  0  0  0
  -88.6514   26.3033    3.3234 C   0  0  0  0  0  0  0  0  0  0  0  0
 33 34  1  0  0  0
 34  1  1  0  0  0
  1  2  1  0  0  0
  2  3  1  0  0  0
  3  4  1  0  0  0
  4  5  1  0  0  0
  5  6  1  0  0  0
  5  7  1  0  0  0
  7 36  1  0  0  0
 36 37  1  0  0  0
  5  8  1  0  0  0
  8  9  1  0  0  0
  9 10  2  0  0  0
 10 11  1  0  0  0
 11 12  2  0  0  0
 12 13  1  0  0  0
 13 14  2  0  0  0
 14 15  1  0  0  0
 15 16  2  0  0  0
 16 17  1  0  0  0
 17 18  1  0  0  0
 18 19  1  0  0  0
 19 20  2  0  0  0
 19 21  1  0  0  0
 21 22  2  0  0  0
 22 23  1  0  0  0
 23 24  2  0  0  0
 24 25  1  0  0  0
 25 26  2  0  0  0
 26 27  1  0  0  0
 27 28  2  0  0  0
 28 29  1  0  0  0
 29 30  1  0  0  0
 30 31  2  0  0  0
  7  1  1  0  0  0
 31  8  1  0  0  0
 29  3  1  0  0  0
 14  9  1  0  0  0
 31 15  1  0  0  0
 21 16  1  0  0  0
 30 22  1  0  0  0
 28 23  1  0  0  0
 34 35  1  0  0  0
 18 32  1  0  0  0
M  END
> <minimizedAffinity>
-11.52879

> <CNNscore>
0.1230477840

> <CNNaffinity>
6.4181084633

> <CNN_VS>
0.7897340059

> <CNNaffinity_variance>
0.2843802571

$$$$
[H]c1c([H])c([H])c2c(c1[H])c1c3c(c4c5c([H])c([H])c([H])c([H])c5n5c4c1n2[C@@]1(C([H])([H])[H])O[C@]5([H])C([H])([H])[C@]([H])(N([H])C([H])([H])[H])[C@]1([H])OC([H])([H])[H])C(=O)N([H])C3([H])[H]


 37 44  0  0  0  0  0  0  0  0999 V2000
  -89.8006   28.8701   -2.2529 C   0  0  0  0  0  0  0  0  0  0  0  0
  -90.2694   30.2914   -2.4955 C   0  0  0  0  0  0  0  0  0  0  0  0
  -90.2240   31.1225   -1.2445 C   0  0  0  0  0  0  0  0  0  0  0  0
  -90.4687   30.5213   -0.0830 O   0  0  0  0  0  0  0  0  0  0  0  0
  -89.9761   29.2355    0.1627 C   0  0  0  0  0  0  0  0  0  0  0  0
  -90.7456   28.8242    1.4048 C   0  0  0  0  0  0  0  0  0  0  0  0
  -90.4593   28.3970   -1.0019 C   0  0  0  0  0  0  0  0  0  0  0  0
  -88.5455   29.2502    0.3616 N   0  0  0  0  0  0  0  0  0  0  0  0
  -87.8521   28.3143    1.0553 C   0  0  0  0  0  0  0  0  0  0  0  0
  -88.1960   27.1373    1.6488 C   0  0  0  0  0  0  0  0  0  0  0  0
  -87.2750   26.3228    2.3119 C   0  0  0  0  0  0  0  0  0  0  0  0
  -85.9590   26.6877    2.3901 C   0  0  0  0  0  0  0  0  0  0  0  0
  -85.6015   27.8682    1.7959 C   0  0  0  0  0  0  0  0  0  0  0  0
  -86.5014   28.6794    1.1394 C   0  0  0  0  0  0  0  0  0  0  0  0
  -86.3798   29.8693    0.4704 C   0  0  0  0  0  0  0  0  0  0  0  0
  -85.2937   30.6851    0.2303 C   0  0  0  0  0  0  0  0  0  0  0  0
  -83.8701   30.5505    0.6255 C   0  0  0  0  0  0  0  0  0  0  0  0
  -83.2259   31.7044    0.0937 N   0  0  0  0  0  0  0  0  0  0  0  0
  -84.1772   32.5290   -0.6061 C   0  0  0  0  0  0  0  0  0  0  0  0
  -83.8372   33.5858   -1.1526 O   0  0  0  0  0  0  0  0  0  0  0  0
  -85.4594   31.8659   -0.5031 C   0  0  0  0  0  0  0  0  0  0  0  0
  -86.7362   32.1740   -0.9711 C   0  0  0  0  0  0  0  0  0  0  0  0
  -87.2622   33.2119   -1.7375 C   0  0  0  0  0  0  0  0  0  0  0  0
  -86.7162   34.3228   -2.2855 C   0  0  0  0  0  0  0  0  0  0  0  0
  -87.5416   35.1912   -3.0220 C   0  0  0  0  0  0  0  0  0  0  0  0
  -88.8719   34.9166   -3.1806 C   0  0  0  0  0  0  0  0  0  0  0  0
  -89.4460   33.7934   -2.6319 C   0  0  0  0  0  0  0  0  0  0  0  0
  -88.6227   32.9472   -1.9096 C   0  0  0  0  0  0  0  0  0  0  0  0
  -88.9165   31.8028   -1.2778 N   0  0  0  0  0  0  0  0  0  0  0  0
  -87.8048   31.3299   -0.7098 C   0  0  0  0  0  0  0  0  0  0  0  0
  -87.6054   30.1870    0.0146 C   0  0  0  0  0  0  0  0  0  0  0  0
  -82.2119   31.9049    0.2056 H   0  0  0  0  0  0  0  0  0  0  0  0
  -90.0640   26.6839   -3.3119 C   0  0  0  0  0  0  0  0  0  0  0  0
  -89.8450   28.0695   -3.3899 N   0  0  0  0  0  0  0  0  0  0  0  0
  -89.1497   28.2852   -4.1353 H   0  0  0  0  0  0  0  0  0  0  0  0
  -91.8131   28.6696   -1.1138 O   0  0  0  0  0  0  0  0  0  0  0  0
  -92.6554   27.6633   -1.4446 C   0  0  0  0  0  0  0  0  0  0  0  0
 33 34  1  0  0  0
 34  1  1  0  0  0
  1  2  1  0  0  0
  2  3  1  0  0  0
  3  4  1  0  0  0
  4  5  1  0  0  0
  5  6  1  0  0  0
  5  7  1  0  0  0
  7 36  1  0  0  0
 36 37  1  0  0  0
  5  8  1  0  0  0
  8  9  1  0  0  0
  9 10  2  0  0  0
 10 11  1  0  0  0
 11 12  2  0  0  0
 12 13  1  0  0  0
 13 14  2  0  0  0
 14 15  1  0  0  0
 15 16  2  0  0  0
 16 17  1  0  0  0
 17 18  1  0  0  0
 18 19  1  0  0  0
 19 20  2  0  0  0
 19 21  1  0  0  0
 21 22  2  0  0  0
 22 23  1  0  0  0
 23 24  2  0  0  0
 24 25  1  0  0  0
 25 26  2  0  0  0
 26 27  1  0  0  0
 27 28  2  0  0  0
 28 29  1  0  0  0
 29 30  1  0  0  0
 30 31  2  0  0  0
  7  1  1  0  0  0
 31  8  1  0  0  0
 29  3  1  0  0  0
 14  9  1  0  0  0
 31 15  1  0  0  0
 21 16  1  0  0  0
 30 22  1  0  0  0
 28 23  1  0  0  0
 34 35  1  0  0  0
 18 32  1  0  0  0
M  END
> <minimizedAffinity>
-9.98430

> <CNNscore>
0.3944109380

> <CNNaffinity>
6.6566886902

> <CNN_VS>
2.6254708767

> <CNNaffinity_variance>
0.1509395391

$$$$
[H]c1c([H])c([H])c2c(c1[H])c1c3c(c4c5c([H])c([H])c([H])c([H])c5n5c4c1n2[C@@]1(C([H])([H])[H])O[C@]5([H])C([H])([H])[C@]([H])(N([H])C([H])([H])[H])[C@]1([H])OC([H])([H])[H])C(=O)N([H])C3([H])[H]


 37 44  0  0  0  0  0  0  0  0999 V2000
  -88.5592   26.8832   -0.8607 C   0  0  0  0  0  0  0  0  0  0  0  0
  -89.8792   27.5607   -1.1726 C   0  0  0  0  0  0  0  0  0  0  0  0
  -90.1626   28.7029   -0.2383 C   0  0  0  0  0  0  0  0  0  0  0  0
  -89.7350   28.6063    1.0180 O   0  0  0  0  0  0  0  0  0  0  0  0
  -88.4860   28.0418    1.2960 C   0  0  0  0  0  0  0  0  0  0  0  0
  -88.5526   27.8279    2.7974 C   0  0  0  0  0  0  0  0  0  0  0  0
  -88.5025   26.6889    0.6164 C   0  0  0  0  0  0  0  0  0  0  0  0
  -87.4116   28.9207    0.8963 N   0  0  0  0  0  0  0  0  0  0  0  0
  -86.1631   28.9048    1.4244 C   0  0  0  0  0  0  0  0  0  0  0  0
  -85.5344   28.1019    2.3276 C   0  0  0  0  0  0  0  0  0  0  0  0
  -84.2044   28.2871    2.7127 C   0  0  0  0  0  0  0  0  0  0  0  0
  -83.4659   29.3084    2.1813 C   0  0  0  0  0  0  0  0  0  0  0  0
  -84.0871   30.1211    1.2713 C   0  0  0  0  0  0  0  0  0  0  0  0
  -85.3982   29.9478    0.8843 C   0  0  0  0  0  0  0  0  0  0  0  0
  -86.2120   30.6069    0.0002 C   0  0  0  0  0  0  0  0  0  0  0  0
  -85.9958   31.6997   -0.8133 C   0  0  0  0  0  0  0  0  0  0  0  0
  -84.7927   32.5465   -1.0050 C   0  0  0  0  0  0  0  0  0  0  0  0
  -85.1752   33.5229   -1.9692 N   0  0  0  0  0  0  0  0  0  0  0  0
  -86.5407   33.3135   -2.3769 C   0  0  0  0  0  0  0  0  0  0  0  0
  -87.0849   34.0460   -3.2126 O   0  0  0  0  0  0  0  0  0  0  0  0
  -87.0257   32.1678   -1.6377 C   0  0  0  0  0  0  0  0  0  0  0  0
  -88.2484   31.4983   -1.6045 C   0  0  0  0  0  0  0  0  0  0  0  0
  -89.4545   31.6507   -2.2852 C   0  0  0  0  0  0  0  0  0  0  0  0
  -89.8836   32.5352   -3.2158 C   0  0  0  0  0  0  0  0  0  0  0  0
  -91.1924   32.4119   -3.7157 C   0  0  0  0  0  0  0  0  0  0  0  0
  -92.0154   31.4155   -3.2683 C   0  0  0  0  0  0  0  0  0  0  0  0
  -91.5986   30.5069   -2.3234 C   0  0  0  0  0  0  0  0  0  0  0  0
  -90.3085   30.6394   -1.8397 C   0  0  0  0  0  0  0  0  0  0  0  0
  -89.6575   29.9035   -0.9289 N   0  0  0  0  0  0  0  0  0  0  0  0
  -88.4294   30.4032   -0.7734 C   0  0  0  0  0  0  0  0  0  0  0  0
  -87.4012   29.9775    0.0218 C   0  0  0  0  0  0  0  0  0  0  0  0
  -84.5437   34.2724   -2.3164 H   0  0  0  0  0  0  0  0  0  0  0  0
  -89.2516   24.8631   -2.0482 C   0  0  0  0  0  0  0  0  0  0  0  0
  -88.2743   25.8104   -1.6995 N   0  0  0  0  0  0  0  0  0  0  0  0
  -87.3525   25.3454   -1.5594 H   0  0  0  0  0  0  0  0  0  0  0  0
  -89.6932   26.0970    1.0058 O   0  0  0  0  0  0  0  0  0  0  0  0
  -89.6642   24.8366    1.4980 C   0  0  0  0  0  0  0  0  0  0  0  0
 33 34  1  0  0  0
 34  1  1  0  0  0
  1  2  1  0  0  0
  2  3  1  0  0  0
  3  4  1  0  0  0
  4  5  1  0  0  0
  5  6  1  0  0  0
  5  7  1  0  0  0
  7 36  1  0  0  0
 36 37  1  0  0  0
  5  8  1  0  0  0
  8  9  1  0  0  0
  9 10  2  0  0  0
 10 11  1  0  0  0
 11 12  2  0  0  0
 12 13  1  0  0  0
 13 14  2  0  0  0
 14 15  1  0  0  0
 15 16  2  0  0  0
 16 17  1  0  0  0
 17 18  1  0  0  0
 18 19  1  0  0  0
 19 20  2  0  0  0
 19 21  1  0  0  0
 21 22  2  0  0  0
 22 23  1  0  0  0
 23 24  2  0  0  0
 24 25  1  0  0  0
 25 26  2  0  0  0
 26 27  1  0  0  0
 27 28  2  0  0  0
 28 29  1  0  0  0
 29 30  1  0  0  0
 30 31  2  0  0  0
  7  1  1  0  0  0
 31  8  1  0  0  0
 29  3  1  0  0  0
 14  9  1  0  0  0
 31 15  1  0  0  0
 21 16  1  0  0  0
 30 22  1  0  0  0
 28 23  1  0  0  0
 34 35  1  0  0  0
 18 32  1  0  0  0
M  END
> <minimizedAffinity>
-10.56194

> <CNNscore>
0.3645299673

> <CNNaffinity>
6.6816582680

> <CNN_VS>
2.4356646538

> <CNNaffinity_variance>
0.5122793913

$$$$
[H]c1c([H])c([H])c2c(c1[H])c1c3c(c4c5c([H])c([H])c([H])c([H])c5n5c4c1n2[C@@]1(C([H])([H])[H])O[C@]5([H])C([H])([H])[C@]([H])(N([H])C([H])([H])[H])[C@]1([H])OC([H])([H])[H])C(=O)N([H])C3([H])[H]


 37 44  0  0  0  0  0  0  0  0999 V2000
  -84.8596   28.1042    1.8041 C   0  0  0  0  0  0  0  0  0  0  0  0
  -86.0823   27.4268    2.3911 C   0  0  0  0  0  0  0  0  0  0  0  0
  -87.2104   28.3934    2.6159 C   0  0  0  0  0  0  0  0  0  0  0  0
  -86.9067   29.6445    2.9522 O   0  0  0  0  0  0  0  0  0  0  0  0
  -85.8175   30.2895    2.3576 C   0  0  0  0  0  0  0  0  0  0  0  0
  -85.6391   31.5097    3.2428 C   0  0  0  0  0  0  0  0  0  0  0  0
  -84.6408   29.3617    2.5747 C   0  0  0  0  0  0  0  0  0  0  0  0
  -86.0936   30.6248    0.9800 N   0  0  0  0  0  0  0  0  0  0  0  0
  -85.4853   31.6208    0.2901 C   0  0  0  0  0  0  0  0  0  0  0  0
  -84.4686   32.4801    0.5794 C   0  0  0  0  0  0  0  0  0  0  0  0
  -84.0014   33.4367   -0.3250 C   0  0  0  0  0  0  0  0  0  0  0  0
  -84.5630   33.5469   -1.5674 C   0  0  0  0  0  0  0  0  0  0  0  0
  -85.5849   32.6874   -1.8698 C   0  0  0  0  0  0  0  0  0  0  0  0
  -86.0537   31.7402   -0.9856 C   0  0  0  0  0  0  0  0  0  0  0  0
  -87.0303   30.7820   -1.0654 C   0  0  0  0  0  0  0  0  0  0  0  0
  -87.9044   30.4384   -2.0756 C   0  0  0  0  0  0  0  0  0  0  0  0
  -88.0888   31.0020   -3.4356 C   0  0  0  0  0  0  0  0  0  0  0  0
  -89.1438   30.2393   -4.0141 N   0  0  0  0  0  0  0  0  0  0  0  0
  -89.6066   29.2417   -3.0839 C   0  0  0  0  0  0  0  0  0  0  0  0
  -90.5205   28.4604   -3.3763 O   0  0  0  0  0  0  0  0  0  0  0  0
  -88.8132   29.3913   -1.8829 C   0  0  0  0  0  0  0  0  0  0  0  0
  -88.7967   28.7251   -0.6581 C   0  0  0  0  0  0  0  0  0  0  0  0
  -89.5077   27.6487   -0.1316 C   0  0  0  0  0  0  0  0  0  0  0  0
  -90.5029   26.8724   -0.6207 C   0  0  0  0  0  0  0  0  0  0  0  0
  -91.0163   25.8406    0.1854 C   0  0  0  0  0  0  0  0  0  0  0  0
  -90.5176   25.6269    1.4407 C   0  0  0  0  0  0  0  0  0  0  0  0
  -89.5067   26.4044    1.9561 C   0  0  0  0  0  0  0  0  0  0  0  0
  -89.0104   27.4163    1.1526 C   0  0  0  0  0  0  0  0  0  0  0  0
  -88.0422   28.3082    1.4016 N   0  0  0  0  0  0  0  0  0  0  0  0
  -87.9037   29.0987    0.3348 C   0  0  0  0  0  0  0  0  0  0  0  0
  -87.0336   30.1301    0.1118 C   0  0  0  0  0  0  0  0  0  0  0  0
  -89.5132   30.3961   -4.9733 H   0  0  0  0  0  0  0  0  0  0  0  0
  -82.6201   27.3087    2.3718 C   0  0  0  0  0  0  0  0  0  0  0  0
  -83.7905   27.2380    1.5979 N   0  0  0  0  0  0  0  0  0  0  0  0
  -83.5568   27.0191    0.6064 H   0  0  0  0  0  0  0  0  0  0  0  0
  -84.6727   29.0373    3.9213 O   0  0  0  0  0  0  0  0  0  0  0  0
  -84.6711   30.0376    4.8330 C   0  0  0  0  0  0  0  0  0  0  0  0
 33 34  1  0  0  0
 34  1  1  0  0  0
  1  2  1  0  0  0
  2  3  1  0  0  0
  3  4  1  0  0  0
  4  5  1  0  0  0
  5  6  1  0  0  0
  5  7  1  0  0  0
  7 36  1  0  0  0
 36 37  1  0  0  0
  5  8  1  0  0  0
  8  9  1  0  0  0
  9 10  2  0  0  0
 10 11  1  0  0  0
 11 12  2  0  0  0
 12 13  1  0  0  0
 13 14  2  0  0  0
 14 15  1  0  0  0
 15 16  2  0  0  0
 16 17  1  0  0  0
 17 18  1  0  0  0
 18 19  1  0  0  0
 19 20  2  0  0  0
 19 21  1  0  0  0
 21 22  2  0  0  0
 22 23  1  0  0  0
 23 24  2  0  0  0
 24 25  1  0  0  0
 25 26  2  0  0  0
 26 27  1  0  0  0
 27 28  2  0  0  0
 28 29  1  0  0  0
 29 30  1  0  0  0
 30 31  2  0  0  0
  7  1  1  0  0  0
 31  8  1  0  0  0
 29  3  1  0  0  0
 14  9  1  0  0  0
 31 15  1  0  0  0
 21 16  1  0  0  0
 30 22  1  0  0  0
 28 23  1  0  0  0
 34 35  1  0  0  0
 18 32  1  0  0  0
M  END
> <minimizedAffinity>
0.10051

> <CNNscore>
0.2018097192

> <CNNaffinity>
6.4126372337

> <CNN_VS>
1.2941324711

> <CNNaffinity_variance>
0.0518270507

$$$$
[H]c1c([H])c([H])c2c(c1[H])c1c3c(c4c5c([H])c([H])c([H])c([H])c5n5c4c1n2[C@@]1(C([H])([H])[H])O[C@]5([H])C([H])([H])[C@]([H])(N([H])C([H])([H])[H])[C@]1([H])OC([H])([H])[H])C(=O)N([H])C3([H])[H]


 37 44  0  0  0  0  0  0  0  0999 V2000
  -86.1674   27.4253    1.3086 C   0  0  0  0  0  0  0  0  0  0  0  0
  -86.9872   26.9123    2.4763 C   0  0  0  0  0  0  0  0  0  0  0  0
  -88.3459   27.5511    2.5365 C   0  0  0  0  0  0  0  0  0  0  0  0
  -88.4637   28.8137    2.1336 O   0  0  0  0  0  0  0  0  0  0  0  0
  -87.7572   29.2652    1.0141 C   0  0  0  0  0  0  0  0  0  0  0  0
  -87.9108   30.7717    1.1184 C   0  0  0  0  0  0  0  0  0  0  0  0
  -86.3113   28.9091    1.2881 C   0  0  0  0  0  0  0  0  0  0  0  0
  -88.3061   28.7231   -0.2071 N   0  0  0  0  0  0  0  0  0  0  0  0
  -88.1814   29.2938   -1.4305 C   0  0  0  0  0  0  0  0  0  0  0  0
  -87.5059   30.3812   -1.8964 C   0  0  0  0  0  0  0  0  0  0  0  0
  -87.5253   30.7707   -3.2378 C   0  0  0  0  0  0  0  0  0  0  0  0
  -88.2420   30.0539   -4.1562 C   0  0  0  0  0  0  0  0  0  0  0  0
  -88.9239   28.9581   -3.6996 C   0  0  0  0  0  0  0  0  0  0  0  0
  -88.9119   28.5648   -2.3790 C   0  0  0  0  0  0  0  0  0  0  0  0
  -89.4888   27.5207   -1.7041 C   0  0  0  0  0  0  0  0  0  0  0  0
  -90.3055   26.4911   -2.1230 C   0  0  0  0  0  0  0  0  0  0  0  0
  -90.8477   26.1641   -3.4647 C   0  0  0  0  0  0  0  0  0  0  0  0
  -91.6295   24.9887   -3.2735 N   0  0  0  0  0  0  0  0  0  0  0  0
  -91.5882   24.5811   -1.8926 C   0  0  0  0  0  0  0  0  0  0  0  0
  -92.1963   23.5790   -1.4965 O   0  0  0  0  0  0  0  0  0  0  0  0
  -90.7536   25.5390   -1.1997 C   0  0  0  0  0  0  0  0  0  0  0  0
  -90.3479   25.6707    0.1279 C   0  0  0  0  0  0  0  0  0  0  0  0
  -90.5600   24.9224    1.2839 C   0  0  0  0  0  0  0  0  0  0  0  0
  -91.2702   23.7984    1.5383 C   0  0  0  0  0  0  0  0  0  0  0  0
  -91.2796   23.2841    2.8472 C   0  0  0  0  0  0  0  0  0  0  0  0
  -90.5829   23.9098    3.8439 C   0  0  0  0  0  0  0  0  0  0  0  0
  -89.8552   25.0527    3.6062 C   0  0  0  0  0  0  0  0  0  0  0  0
  -89.8544   25.5483    2.3139 C   0  0  0  0  0  0  0  0  0  0  0  0
  -89.2405   26.6289    1.8133 N   0  0  0  0  0  0  0  0  0  0  0  0
  -89.5264   26.7195    0.5125 C   0  0  0  0  0  0  0  0  0  0  0  0
  -89.1125   27.6334   -0.4171 C   0  0  0  0  0  0  0  0  0  0  0  0
  -92.1486   24.5081   -4.0354 H   0  0  0  0  0  0  0  0  0  0  0  0
  -83.9570   27.0173    2.2668 C   0  0  0  0  0  0  0  0  0  0  0  0
  -84.8966   26.8638    1.2336 N   0  0  0  0  0  0  0  0  0  0  0  0
  -84.4252   26.9080    0.3055 H   0  0  0  0  0  0  0  0  0  0  0  0
  -86.0558   29.3713    2.5690 O   0  0  0  0  0  0  0  0  0  0  0  0
  -85.0806   30.2926    2.7471 C   0  0  0  0  0  0  0  0  0  0  0  0
 33 34  1  0  0  0
 34  1  1  0  0  0
  1  2  1  0  0  0
  2  3  1  0  0  0
  3  4  1  0  0  0
  4  5  1  0  0  0
  5  6  1  0  0  0
  5  7  1  0  0  0
  7 36  1  0  0  0
 36 37  1  0  0  0
  5  8  1  0  0  0
  8  9  1  0  0  0
  9 10  2  0  0  0
 10 11  1  0  0  0
 11 12  2  0  0  0
 12 13  1  0  0  0
 13 14  2  0  0  0
 14 15  1  0  0  0
 15 16  2  0  0  0
 16 17  1  0  0  0
 17 18  1  0  0  0
 18 19  1  0  0  0
 19 20  2  0  0  0
 19 21  1  0  0  0
 21 22  2  0  0  0
 22 23  1  0  0  0
 23 24  2  0  0  0
 24 25  1  0  0  0
 25 26  2  0  0  0
 26 27  1  0  0  0
 27 28  2  0  0  0
 28 29  1  0  0  0
 29 30  1  0  0  0
 30 31  2  0  0  0
  7  1  1  0  0  0
 31  8  1  0  0  0
 29  3  1  0  0  0
 14  9  1  0  0  0
 31 15  1  0  0  0
 21 16  1  0  0  0
 30 22  1  0  0  0
 28 23  1  0  0  0
 34 35  1  0  0  0
 18 32  1  0  0  0
M  END
> <minimizedAffinity>
-1.85626

> <CNNscore>
0.1663236320

> <CNNaffinity>
5.7601222992

> <CNN_VS>
0.9580444694

> <CNNaffinity_variance>
0.5064319372

$$$$
[H]c1c([H])c([H])c2c(c1[H])c1c3c(c4c5c([H])c([H])c([H])c([H])c5n5c4c1n2[C@@]1(C([H])([H])[H])O[C@]5([H])C([H])([H])[C@]([H])(N([H])C([H])([H])[H])[C@]1([H])OC([H])([H])[H])C(=O)N([H])C3([H])[H]


 37 44  0  0  0  0  0  0  0  0999 V2000
  -88.2140   30.2980   -2.6365 C   0  0  0  0  0  0  0  0  0  0  0  0
  -87.5420   31.6288   -2.3610 C   0  0  0  0  0  0  0  0  0  0  0  0
  -87.6760   32.0423   -0.9226 C   0  0  0  0  0  0  0  0  0  0  0  0
  -88.7855   31.7004   -0.2726 O   0  0  0  0  0  0  0  0  0  0  0  0
  -89.3647   30.4442   -0.4792 C   0  0  0  0  0  0  0  0  0  0  0  0
  -90.7293   30.6051    0.1659 C   0  0  0  0  0  0  0  0  0  0  0  0
  -89.5511   30.3356   -1.9779 C   0  0  0  0  0  0  0  0  0  0  0  0
  -88.5739   29.3958    0.1225 N   0  0  0  0  0  0  0  0  0  0  0  0
  -89.0562   28.1891    0.5089 C   0  0  0  0  0  0  0  0  0  0  0  0
  -90.2702   27.5816    0.3957 C   0  0  0  0  0  0  0  0  0  0  0  0
  -90.5241   26.2951    0.8770 C   0  0  0  0  0  0  0  0  0  0  0  0
  -89.5355   25.5798    1.4950 C   0  0  0  0  0  0  0  0  0  0  0  0
  -88.3106   26.1798    1.6133 C   0  0  0  0  0  0  0  0  0  0  0  0
  -88.0490   27.4482    1.1424 C   0  0  0  0  0  0  0  0  0  0  0  0
  -86.9256   28.2332    1.1309 C   0  0  0  0  0  0  0  0  0  0  0  0
  -85.6485   28.0221    1.6073 C   0  0  0  0  0  0  0  0  0  0  0  0
  -85.0520   26.8584    2.3082 C   0  0  0  0  0  0  0  0  0  0  0  0
  -83.6977   27.2263    2.5532 N   0  0  0  0  0  0  0  0  0  0  0  0
  -83.4375   28.5452    2.0361 C   0  0  0  0  0  0  0  0  0  0  0  0
  -82.3210   29.0693    2.1355 O   0  0  0  0  0  0  0  0  0  0  0  0
  -84.6748   29.0157    1.4515 C   0  0  0  0  0  0  0  0  0  0  0  0
  -85.0405   30.1977    0.8084 C   0  0  0  0  0  0  0  0  0  0  0  0
  -84.3568   31.3590    0.4548 C   0  0  0  0  0  0  0  0  0  0  0  0
  -83.0803   31.7704    0.6379 C   0  0  0  0  0  0  0  0  0  0  0  0
  -82.6972   33.0312    0.1464 C   0  0  0  0  0  0  0  0  0  0  0  0
  -83.5998   33.8260   -0.5047 C   0  0  0  0  0  0  0  0  0  0  0  0
  -84.9013   33.4266   -0.7010 C   0  0  0  0  0  0  0  0  0  0  0  0
  -85.2653   32.1838   -0.2124 C   0  0  0  0  0  0  0  0  0  0  0  0
  -86.4490   31.5584   -0.2639 N   0  0  0  0  0  0  0  0  0  0  0  0
  -86.3346   30.3748    0.3428 C   0  0  0  0  0  0  0  0  0  0  0  0
  -87.2603   29.3832    0.5176 C   0  0  0  0  0  0  0  0  0  0  0  0
  -83.0102   26.6153    3.0380 H   0  0  0  0  0  0  0  0  0  0  0  0
  -88.0268   30.8208   -5.0160 C   0  0  0  0  0  0  0  0  0  0  0  0
  -88.1209   29.8938   -3.9645 N   0  0  0  0  0  0  0  0  0  0  0  0
  -88.7166   29.0864   -4.2454 H   0  0  0  0  0  0  0  0  0  0  0  0
  -90.1706   31.5153   -2.3572 O   0  0  0  0  0  0  0  0  0  0  0  0
  -91.2306   31.4543   -3.1965 C   0  0  0  0  0  0  0  0  0  0  0  0
 33 34  1  0  0  0
 34  1  1  0  0  0
  1  2  1  0  0  0
  2  3  1  0  0  0
  3  4  1  0  0  0
  4  5  1  0  0  0
  5  6  1  0  0  0
  5  7  1  0  0  0
  7 36  1  0  0  0
 36 37  1  0  0  0
  5  8  1  0  0  0
  8  9  1  0  0  0
  9 10  2  0  0  0
 10 11  1  0  0  0
 11 12  2  0  0  0
 12 13  1  0  0  0
 13 14  2  0  0  0
 14 15  1  0  0  0
 15 16  2  0  0  0
 16 17  1  0  0  0
 17 18  1  0  0  0
 18 19  1  0  0  0
 19 20  2  0  0  0
 19 21  1  0  0  0
 21 22  2  0  0  0
 22 23  1  0  0  0
 23 24  2  0  0  0
 24 25  1  0  0  0
 25 26  2  0  0  0
 26 27  1  0  0  0
 27 28  2  0  0  0
 28 29  1  0  0  0
 29 30  1  0  0  0
 30 31  2  0  0  0
  7  1  1  0  0  0
 31  8  1  0  0  0
 29  3  1  0  0  0
 14  9  1  0  0  0
 31 15  1  0  0  0
 21 16  1  0  0  0
 30 22  1  0  0  0
 28 23  1  0  0  0
 34 35  1  0  0  0
 18 32  1  0  0  0
M  END
> <minimizedAffinity>
-10.45980

> <CNNscore>
0.0980722159

> <CNNaffinity>
6.2653403282

> <CNN_VS>
0.6144558191

> <CNNaffinity_variance>
0.2742883265

$$$$
[H]c1c([H])c([H])c2c(c1[H])c1c3c(c4c5c([H])c([H])c([H])c([H])c5n5c4c1n2[C@@]1(C([H])([H])[H])O[C@]5([H])C([H])([H])[C@]([H])(N([H])C([H])([H])[H])[C@]1([H])OC([H])([H])[H])C(=O)N([H])C3([H])[H]


 37 44  0  0  0  0  0  0  0  0999 V2000
  -89.2971   27.5042    2.2253 C   0  0  0  0  0  0  0  0  0  0  0  0
  -87.8932   26.9579    2.3964 C   0  0  0  0  0  0  0  0  0  0  0  0
  -87.1870   26.7926    1.0805 C   0  0  0  0  0  0  0  0  0  0  0  0
  -87.9136   26.4619    0.0160 O   0  0  0  0  0  0  0  0  0  0  0  0
  -89.1817   27.0208   -0.1731 C   0  0  0  0  0  0  0  0  0  0  0  0
  -89.7624   26.1463   -1.2696 C   0  0  0  0  0  0  0  0  0  0  0  0
  -89.9328   26.7431    1.1119 C   0  0  0  0  0  0  0  0  0  0  0  0
  -89.0915   28.4131   -0.5473 N   0  0  0  0  0  0  0  0  0  0  0  0
  -90.0425   29.0915   -1.2352 C   0  0  0  0  0  0  0  0  0  0  0  0
  -91.2920   28.7733   -1.6748 C   0  0  0  0  0  0  0  0  0  0  0  0
  -92.1043   29.6714   -2.3712 C   0  0  0  0  0  0  0  0  0  0  0  0
  -91.6622   30.9370   -2.6430 C   0  0  0  0  0  0  0  0  0  0  0  0
  -90.4083   31.2685   -2.2047 C   0  0  0  0  0  0  0  0  0  0  0  0
  -89.5985   30.3908   -1.5171 C   0  0  0  0  0  0  0  0  0  0  0  0
  -88.3435   30.4967   -0.9766 C   0  0  0  0  0  0  0  0  0  0  0  0
  -87.4379   31.5367   -0.9455 C   0  0  0  0  0  0  0  0  0  0  0  0
  -87.5156   32.9108   -1.4995 C   0  0  0  0  0  0  0  0  0  0  0  0
  -86.2750   33.5209   -1.1558 N   0  0  0  0  0  0  0  0  0  0  0  0
  -85.4511   32.5964   -0.4203 C   0  0  0  0  0  0  0  0  0  0  0  0
  -84.3258   32.9146   -0.0159 O   0  0  0  0  0  0  0  0  0  0  0  0
  -86.2048   31.3664   -0.3052 C   0  0  0  0  0  0  0  0  0  0  0  0
  -85.9379   30.1326    0.2873 C   0  0  0  0  0  0  0  0  0  0  0  0
  -84.8674   29.6204    1.0173 C   0  0  0  0  0  0  0  0  0  0  0  0
  -83.6746   30.1386    1.3930 C   0  0  0  0  0  0  0  0  0  0  0  0
  -82.7952   29.3396    2.1454 C   0  0  0  0  0  0  0  0  0  0  0  0
  -83.1407   28.0621    2.4904 C   0  0  0  0  0  0  0  0  0  0  0  0
  -84.3477   27.5171    2.1186 C   0  0  0  0  0  0  0  0  0  0  0  0
  -85.2039   28.3139    1.3784 C   0  0  0  0  0  0  0  0  0  0  0  0
  -86.4214   28.0384    0.8919 N   0  0  0  0  0  0  0  0  0  0  0  0
  -86.8726   29.1096    0.2356 C   0  0  0  0  0  0  0  0  0  0  0  0
  -88.0650   29.3116   -0.4034 C   0  0  0  0  0  0  0  0  0  0  0  0
  -86.0195   34.4964   -1.4091 H   0  0  0  0  0  0  0  0  0  0  0  0
  -91.1034   28.4965    3.5380 C   0  0  0  0  0  0  0  0  0  0  0  0
  -89.9842   27.6547    3.4257 N   0  0  0  0  0  0  0  0  0  0  0  0
  -89.4024   27.7082    4.2884 H   0  0  0  0  0  0  0  0  0  0  0  0
  -89.7410   25.3944    1.3650 O   0  0  0  0  0  0  0  0  0  0  0  0
  -90.7831   24.6628    1.8238 C   0  0  0  0  0  0  0  0  0  0  0  0
 33 34  1  0  0  0
 34  1  1  0  0  0
  1  2  1  0  0  0
  2  3  1  0  0  0
  3  4  1  0  0  0
  4  5  1  0  0  0
  5  6  1  0  0  0
  5  7  1  0  0  0
  7 36  1  0  0  0
 36 37  1  0  0  0
  5  8  1  0  0  0
  8  9  1  0  0  0
  9 10  2  0  0  0
 10 11  1  0  0  0
 11 12  2  0  0  0
 12 13  1  0  0  0
 13 14  2  0  0  0
 14 15  1  0  0  0
 15 16  2  0  0  0
 16 17  1  0  0  0
 17 18  1  0  0  0
 18 19  1  0  0  0
 19 20  2  0  0  0
 19 21  1  0  0  0
 21 22  2  0  0  0
 22 23  1  0  0  0
 23 24  2  0  0  0
 24 25  1  0  0  0
 25 26  2  0  0  0
 26 27  1  0  0  0
 27 28  2  0  0  0
 28 29  1  0  0  0
 29 30  1  0  0  0
 30 31  2  0  0  0
  7  1  1  0  0  0
 31  8  1  0  0  0
 29  3  1  0  0  0
 14  9  1  0  0  0
 31 15  1  0  0  0
 21 16  1  0  0  0
 30 22  1  0  0  0
 28 23  1  0  0  0
 34 35  1  0  0  0
 18 32  1  0  0  0
M  END
> <minimizedAffinity>
-12.11344

> <CNNscore>
0.0964879915

> <CNNaffinity>
6.3986811638

> <CNN_VS>
0.6173958778

> <CNNaffinity_variance>
0.2393484861

$$$$
[H]c1c([H])c([H])c2c(c1[H])c1c3c(c4c5c([H])c([H])c([H])c([H])c5n5c4c1n2[C@@]1(C([H])([H])[H])O[C@]5([H])C([H])([H])[C@]([H])(N([H])C([H])([H])[H])[C@]1([H])OC([H])([H])[H])C(=O)N([H])C3([H])[H]


 37 44  0  0  0  0  0  0  0  0999 V2000
  -89.3964   28.6812   -1.3185 C   0  0  0  0  0  0  0  0  0  0  0  0
  -89.4607   28.9778    0.1670 C   0  0  0  0  0  0  0  0  0  0  0  0
  -90.8530   28.8311    0.7126 C   0  0  0  0  0  0  0  0  0  0  0  0
  -91.8739   29.1433   -0.0816 O   0  0  0  0  0  0  0  0  0  0  0  0
  -91.8396   28.8070   -1.4388 C   0  0  0  0  0  0  0  0  0  0  0  0
  -92.9919   29.6174   -2.0040 C   0  0  0  0  0  0  0  0  0  0  0  0
  -90.5419   29.3890   -1.9585 C   0  0  0  0  0  0  0  0  0  0  0  0
  -91.9994   27.3844   -1.6316 N   0  0  0  0  0  0  0  0  0  0  0  0
  -92.4695   26.8061   -2.7641 C   0  0  0  0  0  0  0  0  0  0  0  0
  -92.8199   27.2866   -3.9897 C   0  0  0  0  0  0  0  0  0  0  0  0
  -93.2787   26.4678   -5.0243 C   0  0  0  0  0  0  0  0  0  0  0  0
  -93.3947   25.1176   -4.8387 C   0  0  0  0  0  0  0  0  0  0  0  0
  -93.0440   24.6231   -3.6111 C   0  0  0  0  0  0  0  0  0  0  0  0
  -92.5904   25.4213   -2.5835 C   0  0  0  0  0  0  0  0  0  0  0  0
  -92.1746   25.1601   -1.3040 C   0  0  0  0  0  0  0  0  0  0  0  0
  -92.0769   23.9851   -0.5882 C   0  0  0  0  0  0  0  0  0  0  0  0
  -92.3987   22.5868   -0.9656 C   0  0  0  0  0  0  0  0  0  0  0  0
  -92.0960   21.8108    0.1901 N   0  0  0  0  0  0  0  0  0  0  0  0
  -91.6041   22.6585    1.2456 C   0  0  0  0  0  0  0  0  0  0  0  0
  -91.2754   22.1961    2.3452 O   0  0  0  0  0  0  0  0  0  0  0  0
  -91.6038   24.0103    0.7291 C   0  0  0  0  0  0  0  0  0  0  0  0
  -91.2423   25.2423    1.2730 C   0  0  0  0  0  0  0  0  0  0  0  0
  -90.7174   25.6424    2.5000 C   0  0  0  0  0  0  0  0  0  0  0  0
  -90.3927   24.9691    3.6285 C   0  0  0  0  0  0  0  0  0  0  0  0
  -89.8705   25.6866    4.7196 C   0  0  0  0  0  0  0  0  0  0  0  0
  -89.6946   27.0405    4.6399 C   0  0  0  0  0  0  0  0  0  0  0  0
  -90.0182   27.7432    3.5025 C   0  0  0  0  0  0  0  0  0  0  0  0
  -90.5311   27.0251    2.4362 C   0  0  0  0  0  0  0  0  0  0  0  0
  -90.9243   27.4519    1.2286 N   0  0  0  0  0  0  0  0  0  0  0  0
  -91.3546   26.4034    0.5232 C   0  0  0  0  0  0  0  0  0  0  0  0
  -91.8256   26.3400   -0.7593 C   0  0  0  0  0  0  0  0  0  0  0  0
  -92.2195   20.7799    0.2441 H   0  0  0  0  0  0  0  0  0  0  0  0
  -86.9960   29.0499   -1.0486 C   0  0  0  0  0  0  0  0  0  0  0  0
  -88.1218   28.8231   -1.8580 N   0  0  0  0  0  0  0  0  0  0  0  0
  -88.0512   29.3738   -2.7397 H   0  0  0  0  0  0  0  0  0  0  0  0
  -90.5237   30.7009   -1.5132 O   0  0  0  0  0  0  0  0  0  0  0  0
  -90.0803   31.6673   -2.3506 C   0  0  0  0  0  0  0  0  0  0  0  0
 33 34  1  0  0  0
 34  1  1  0  0  0
  1  2  1  0  0  0
  2  3  1  0  0  0
  3  4  1  0  0  0
  4  5  1  0  0  0
  5  6  1  0  0  0
  5  7  1  0  0  0
  7 36  1  0  0  0
 36 37  1  0  0  0
  5  8  1  0  0  0
  8  9  1  0  0  0
  9 10  2  0  0  0
 10 11  1  0  0  0
 11 12  2  0  0  0
 12 13  1  0  0  0
 13 14  2  0  0  0
 14 15  1  0  0  0
 15 16  2  0  0  0
 16 17  1  0  0  0
 17 18  1  0  0  0
 18 19  1  0  0  0
 19 20  2  0  0  0
 19 21  1  0  0  0
 21 22  2  0  0  0
 22 23  1  0  0  0
 23 24  2  0  0  0
 24 25  1  0  0  0
 25 26  2  0  0  0
 26 27  1  0  0  0
 27 28  2  0  0  0
 28 29  1  0  0  0
 29 30  1  0  0  0
 30 31  2  0  0  0
  7  1  1  0  0  0
 31  8  1  0  0  0
 29  3  1  0  0  0
 14  9  1  0  0  0
 31 15  1  0  0  0
 21 16  1  0  0  0
 30 22  1  0  0  0
 28 23  1  0  0  0
 34 35  1  0  0  0
 18 32  1  0  0  0
M  END
> <minimizedAffinity>
-8.64248

> <CNNscore>
0.0867270082

> <CNNaffinity>
5.3992295265

> <CNN_VS>
0.4682590365

> <CNNaffinity_variance>
0.9841191173

$$$$
[H]c1c([H])c([H])c2c(c1[H])c1c3c(c4c5c([H])c([H])c([H])c([H])c5n5c4c1n2[C@@]1(C([H])([H])[H])O[C@]5([H])C([H])([H])[C@]([H])(N([H])C([H])([H])[H])[C@]1([H])OC([H])([H])[H])C(=O)N([H])C3([H])[H]


 37 44  0  0  0  0  0  0  0  0999 V2000
  -89.2471   26.1655   -0.3759 C   0  0  0  0  0  0  0  0  0  0  0  0
  -90.3508   25.1261   -0.3684 C   0  0  0  0  0  0  0  0  0  0  0  0
  -91.7071   25.7436   -0.1759 C   0  0  0  0  0  0  0  0  0  0  0  0
  -91.7991   26.8295    0.5874 O   0  0  0  0  0  0  0  0  0  0  0  0
  -90.8123   27.8189    0.5274 C   0  0  0  0  0  0  0  0  0  0  0  0
  -91.1227   28.6624    1.7507 C   0  0  0  0  0  0  0  0  0  0  0  0
  -89.5062   27.0905    0.7643 C   0  0  0  0  0  0  0  0  0  0  0  0
  -90.8891   28.5632   -0.7081 N   0  0  0  0  0  0  0  0  0  0  0  0
  -90.4278   29.8265   -0.8792 C   0  0  0  0  0  0  0  0  0  0  0  0
  -89.7363   30.6907   -0.0850 C   0  0  0  0  0  0  0  0  0  0  0  0
  -89.3570   31.9687   -0.5022 C   0  0  0  0  0  0  0  0  0  0  0  0
  -89.6743   32.4094   -1.7577 C   0  0  0  0  0  0  0  0  0  0  0  0
  -90.3681   31.5487   -2.5654 C   0  0  0  0  0  0  0  0  0  0  0  0
  -90.7474   30.2862   -2.1643 C   0  0  0  0  0  0  0  0  0  0  0  0
  -91.4169   29.2643   -2.7854 C   0  0  0  0  0  0  0  0  0  0  0  0
  -91.9618   29.1522   -4.0476 C   0  0  0  0  0  0  0  0  0  0  0  0
  -92.0125   30.1163   -5.1742 C   0  0  0  0  0  0  0  0  0  0  0  0
  -92.7080   29.4359   -6.2148 N   0  0  0  0  0  0  0  0  0  0  0  0
  -93.0779   28.1119   -5.7850 C   0  0  0  0  0  0  0  0  0  0  0  0
  -93.6908   27.3383   -6.5312 O   0  0  0  0  0  0  0  0  0  0  0  0
  -92.5980   27.9646   -4.4277 C   0  0  0  0  0  0  0  0  0  0  0  0
  -92.6543   26.9246   -3.5005 C   0  0  0  0  0  0  0  0  0  0  0  0
  -93.1609   25.6270   -3.5306 C   0  0  0  0  0  0  0  0  0  0  0  0
  -93.8138   24.9130   -4.4773 C   0  0  0  0  0  0  0  0  0  0  0  0
  -94.1989   23.5923   -4.1850 C   0  0  0  0  0  0  0  0  0  0  0  0
  -93.9177   23.0410   -2.9654 C   0  0  0  0  0  0  0  0  0  0  0  0
  -93.2554   23.7496   -1.9901 C   0  0  0  0  0  0  0  0  0  0  0  0
  -92.8821   25.0481   -2.2906 C   0  0  0  0  0  0  0  0  0  0  0  0
  -92.2369   25.9481   -1.5365 N   0  0  0  0  0  0  0  0  0  0  0  0
  -92.0957   27.0737   -2.2402 C   0  0  0  0  0  0  0  0  0  0  0  0
  -91.4863   28.2509   -1.9030 C   0  0  0  0  0  0  0  0  0  0  0  0
  -92.9101   29.8532   -7.1454 H   0  0  0  0  0  0  0  0  0  0  0  0
  -86.8290   26.2646   -0.0389 C   0  0  0  0  0  0  0  0  0  0  0  0
  -87.9758   25.6238   -0.5372 N   0  0  0  0  0  0  0  0  0  0  0  0
  -87.7735   25.1848   -1.4602 H   0  0  0  0  0  0  0  0  0  0  0  0
  -89.7181   26.3142    1.8922 O   0  0  0  0  0  0  0  0  0  0  0  0
  -88.7970   26.3396    2.8835 C   0  0  0  0  0  0  0  0  0  0  0  0
 33 34  1  0  0  0
 34  1  1  0  0  0
  1  2  1  0  0  0
  2  3  1  0  0  0
  3  4  1  0  0  0
  4  5  1  0  0  0
  5  6  1  0  0  0
  5  7  1  0  0  0
  7 36  1  0  0  0
 36 37  1  0  0  0
  5  8  1  0  0  0
  8  9  1  0  0  0
  9 10  2  0  0  0
 10 11  1  0  0  0
 11 12  2  0  0  0
 12 13  1  0  0  0
 13 14  2  0  0  0
 14 15  1  0  0  0
 15 16  2  0  0  0
 16 17  1  0  0  0
 17 18  1  0  0  0
 18 19  1  0  0  0
 19 20  2  0  0  0
 19 21  1  0  0  0
 21 22  2  0  0  0
 22 23  1  0  0  0
 23 24  2  0  0  0
 24 25  1  0  0  0
 25 26  2  0  0  0
 26 27  1  0  0  0
 27 28  2  0  0  0
 28 29  1  0  0  0
 29 30  1  0  0  0
 30 31  2  0  0  0
  7  1  1  0  0  0
 31  8  1  0  0  0
 29  3  1  0  0  0
 14  9  1  0  0  0
 31 15  1  0  0  0
 21 16  1  0  0  0
 30 22  1  0  0  0
 28 23  1  0  0  0
 34 35  1  0  0  0
 18 32  1  0  0  0
M  END
> <minimizedAffinity>
-8.25501

> <CNNscore>
0.0734931901

> <CNNaffinity>
5.3237962723

> <CNN_VS>
0.3912627697

> <CNNaffinity_variance>
0.6234285235

$$$$
[H]c1c([H])c([H])c2c(c1[H])c1c3c(c4c5c([H])c([H])c([H])c([H])c5n5c4c1n2[C@@]1(C([H])([H])[H])O[C@]5([H])C([H])([H])[C@]([H])(N([H])C([H])([H])[H])[C@]1([H])OC([H])([H])[H])C(=O)N([H])C3([H])[H]


 37 44  0  0  0  0  0  0  0  0999 V2000
  -89.5506   25.9864   -1.2197 C   0  0  0  0  0  0  0  0  0  0  0  0
  -90.9636   26.3111   -1.6632 C   0  0  0  0  0  0  0  0  0  0  0  0
  -91.4802   27.5702   -1.0265 C   0  0  0  0  0  0  0  0  0  0  0  0
  -91.0788   27.8587    0.2088 O   0  0  0  0  0  0  0  0  0  0  0  0
  -89.7554   27.6203    0.5935 C   0  0  0  0  0  0  0  0  0  0  0  0
  -89.8247   27.7635    2.1031 C   0  0  0  0  0  0  0  0  0  0  0  0
  -89.5017   26.1654    0.2596 C   0  0  0  0  0  0  0  0  0  0  0  0
  -88.8511   28.5624   -0.0238 N   0  0  0  0  0  0  0  0  0  0  0  0
  -87.6370   28.9066    0.4717 C   0  0  0  0  0  0  0  0  0  0  0  0
  -86.8970   28.4751    1.5309 C   0  0  0  0  0  0  0  0  0  0  0  0
  -85.6359   28.9917    1.8378 C   0  0  0  0  0  0  0  0  0  0  0  0
  -85.0840   29.9754    1.0641 C   0  0  0  0  0  0  0  0  0  0  0  0
  -85.8183   30.4161   -0.0042 C   0  0  0  0  0  0  0  0  0  0  0  0
  -87.0629   29.9138   -0.3162 C   0  0  0  0  0  0  0  0  0  0  0  0
  -87.9587   30.1784   -1.3191 C   0  0  0  0  0  0  0  0  0  0  0  0
  -87.9249   31.0652   -2.3750 C   0  0  0  0  0  0  0  0  0  0  0  0
  -86.8943   32.0506   -2.7849 C   0  0  0  0  0  0  0  0  0  0  0  0
  -87.4228   32.6788   -3.9492 N   0  0  0  0  0  0  0  0  0  0  0  0
  -88.7136   32.1270   -4.2716 C   0  0  0  0  0  0  0  0  0  0  0  0
  -89.3594   32.5234   -5.2498 O   0  0  0  0  0  0  0  0  0  0  0  0
  -88.9994   31.1219   -3.2705 C   0  0  0  0  0  0  0  0  0  0  0  0
  -90.0776   30.2638   -3.0569 C   0  0  0  0  0  0  0  0  0  0  0  0
  -91.2709   30.0211   -3.7340 C   0  0  0  0  0  0  0  0  0  0  0  0
  -91.8291   30.5611   -4.8427 C   0  0  0  0  0  0  0  0  0  0  0  0
  -93.0774   30.0798   -5.2763 C   0  0  0  0  0  0  0  0  0  0  0  0
  -93.7144   29.0840   -4.5887 C   0  0  0  0  0  0  0  0  0  0  0  0
  -93.1643   28.5222   -3.4600 C   0  0  0  0  0  0  0  0  0  0  0  0
  -91.9356   29.0049   -3.0441 C   0  0  0  0  0  0  0  0  0  0  0  0
  -91.1862   28.6431   -1.9940 N   0  0  0  0  0  0  0  0  0  0  0  0
  -90.0768   29.3855   -1.9838 C   0  0  0  0  0  0  0  0  0  0  0  0
  -89.0110   29.3620   -1.1269 C   0  0  0  0  0  0  0  0  0  0  0  0
  -86.9311   33.4276   -4.4770 H   0  0  0  0  0  0  0  0  0  0  0  0
  -89.8812   23.7319   -2.1019 C   0  0  0  0  0  0  0  0  0  0  0  0
  -89.0480   24.8165   -1.7804 N   0  0  0  0  0  0  0  0  0  0  0  0
  -88.1388   24.4756   -1.4025 H   0  0  0  0  0  0  0  0  0  0  0  0
  -90.5730   25.4726    0.7999 O   0  0  0  0  0  0  0  0  0  0  0  0
  -90.3304   24.3411    1.5017 C   0  0  0  0  0  0  0  0  0  0  0  0
 33 34  1  0  0  0
 34  1  1  0  0  0
  1  2  1  0  0  0
  2  3  1  0  0  0
  3  4  1  0  0  0
  4  5  1  0  0  0
  5  6  1  0  0  0
  5  7  1  0  0  0
  7 36  1  0  0  0
 36 37  1  0  0  0
  5  8  1  0  0  0
  8  9  1  0  0  0
  9 10  2  0  0  0
 10 11  1  0  0  0
 11 12  2  0  0  0
 12 13  1  0  0  0
 13 14  2  0  0  0
 14 15  1  0  0  0
 15 16  2  0  0  0
 16 17  1  0  0  0
 17 18  1  0  0  0
 18 19  1  0  0  0
 19 20  2  0  0  0
 19 21  1  0  0  0
 21 22  2  0  0  0
 22 23  1  0  0  0
 23 24  2  0  0  0
 24 25  1  0  0  0
 25 26  2  0  0  0
 26 27  1  0  0  0
 27 28  2  0  0  0
 28 29  1  0  0  0
 29 30  1  0  0  0
 30 31  2  0  0  0
  7  1  1  0  0  0
 31  8  1  0  0  0
 29  3  1  0  0  0
 14  9  1  0  0  0
 31 15  1  0  0  0
 21 16  1  0  0  0
 30 22  1  0  0  0
 28 23  1  0  0  0
 34 35  1  0  0  0
 18 32  1  0  0  0
M  END
> <minimizedAffinity>
-9.47515

> <CNNscore>
0.0721064880

> <CNNaffinity>
5.6385588646

> <CNN_VS>
0.4065766633

> <CNNaffinity_variance>
0.6174361110

$$$$
[H]c1c([H])c([H])c2c(c1[H])c1c3c(c4c5c([H])c([H])c([H])c([H])c5n5c4c1n2[C@]1([H])O[C@]5(C([H])([H])[H])[C@@]([H])(OC([H])([H])[H])[C@]([H])(N([H])C([H])([H])[H])C1([H])[H])C([H])([H])N([H])C3=O


 37 44  0  0  0  0  0  0  0  0999 V2000
  -91.6600   29.6397   -1.2390 C   0  0  0  0  0  0  0  0  0  0  0  0
  -91.0889   30.8192   -2.0908 C   0  0  0  0  0  0  0  0  0  0  0  0
  -89.7596   30.7855   -1.7389 C   0  0  0  0  0  0  0  0  0  0  0  0
  -89.3147   29.5413   -2.1564 O   0  0  0  0  0  0  0  0  0  0  0  0
  -89.2728   28.7435   -0.9693 C   0  0  0  0  0  0  0  0  0  0  0  0
  -89.0533   27.3312   -1.5785 C   0  0  0  0  0  0  0  0  0  0  0  0
  -90.5880   28.9127   -0.4040 C   0  0  0  0  0  0  0  0  0  0  0  0
  -88.0424   29.0726   -0.2967 N   0  0  0  0  0  0  0  0  0  0  0  0
  -87.3228   28.2290    0.5094 C   0  0  0  0  0  0  0  0  0  0  0  0
  -87.5684   26.9900    1.0283 C   0  0  0  0  0  0  0  0  0  0  0  0
  -86.6303   26.3716    1.8467 C   0  0  0  0  0  0  0  0  0  0  0  0
  -85.4329   26.9766    2.1626 C   0  0  0  0  0  0  0  0  0  0  0  0
  -85.1601   28.2349    1.6492 C   0  0  0  0  0  0  0  0  0  0  0  0
  -86.1093   28.8048    0.8503 C   0  0  0  0  0  0  0  0  0  0  0  0
  -86.0872   30.0303    0.2447 C   0  0  0  0  0  0  0  0  0  0  0  0
  -85.1844   31.0791    0.1490 C   0  0  0  0  0  0  0  0  0  0  0  0
  -83.8407   31.1830    0.7738 C   0  0  0  0  0  0  0  0  0  0  0  0
  -83.3448   32.4667    0.3650 N   0  0  0  0  0  0  0  0  0  0  0  0
  -84.3091   33.1300   -0.4826 C   0  0  0  0  0  0  0  0  0  0  0  0
  -84.0486   34.2524   -0.9411 O   0  0  0  0  0  0  0  0  0  0  0  0
  -85.4243   32.2297   -0.5818 C   0  0  0  0  0  0  0  0  0  0  0  0
  -86.6237   32.3721   -1.2618 C   0  0  0  0  0  0  0  0  0  0  0  0
  -87.2271   33.3351   -2.0065 C   0  0  0  0  0  0  0  0  0  0  0  0
  -86.8477   34.5667   -2.4446 C   0  0  0  0  0  0  0  0  0  0  0  0
  -87.7736   35.2907   -3.2176 C   0  0  0  0  0  0  0  0  0  0  0  0
  -89.0183   34.8002   -3.5341 C   0  0  0  0  0  0  0  0  0  0  0  0
  -89.3948   33.5453   -3.0834 C   0  0  0  0  0  0  0  0  0  0  0  0
  -88.4736   32.8470   -2.3249 C   0  0  0  0  0  0  0  0  0  0  0  0
  -88.6536   31.6443   -1.8155 N   0  0  0  0  0  0  0  0  0  0  0  0
  -87.5060   31.3207   -1.1539 C   0  0  0  0  0  0  0  0  0  0  0  0
  -87.2493   30.1579   -0.4202 C   0  0  0  0  0  0  0  0  0  0  0  0
  -82.4141   32.8281    0.6644 H   0  0  0  0  0  0  0  0  0  0  0  0
  -92.9344   29.5116   -3.1880 C   0  0  0  0  0  0  0  0  0  0  0  0
  -92.4648   28.7818   -2.0298 N   0  0  0  0  0  0  0  0  0  0  0  0
  -93.2794   28.4649   -1.4970 H   0  0  0  0  0  0  0  0  0  0  0  0
  -90.6900   29.2161    0.9592 O   0  0  0  0  0  0  0  0  0  0  0  0
  -91.0627   28.1327    1.7455 C   0  0  0  0  0  0  0  0  0  0  0  0
 33 34  1  0  0  0
 34  1  1  0  0  0
  1  2  1  0  0  0
  2  3  1  0  0  0
  3  4  1  0  0  0
  4  5  1  0  0  0
  5  6  1  0  0  0
  5  7  1  0  0  0
  7 36  1  0  0  0
 36 37  1  0  0  0
  5  8  1  0  0  0
  8  9  1  0  0  0
  9 10  2  0  0  0
 10 11  1  0  0  0
 11 12  2  0  0  0
 12 13  1  0  0  0
 13 14  2  0  0  0
 14 15  1  0  0  0
 15 16  2  0  0  0
 16 17  1  0  0  0
 17 18  1  0  0  0
 18 19  1  0  0  0
 19 20  2  0  0  0
 19 21  1  0  0  0
 21 22  2  0  0  0
 22 23  1  0  0  0
 23 24  2  0  0  0
 24 25  1  0  0  0
 25 26  2  0  0  0
 26 27  1  0  0  0
 27 28  2  0  0  0
 28 29  1  0  0  0
 29 30  1  0  0  0
 30 31  2  0  0  0
  7  1  1  0  0  0
 31  8  1  0  0  0
 29  3  1  0  0  0
 14  9  1  0  0  0
 31 15  1  0  0  0
 21 16  1  0  0  0
 30 22  1  0  0  0
 28 23  1  0  0  0
 34 35  1  0  0  0
 18 32  1  0  0  0
M  END
> <minimizedAffinity>
-10.68360

> <CNNscore>
0.7005499005

> <CNNaffinity>
6.9255356789

> <CNN_VS>
4.8516831398

> <CNNaffinity_variance>
0.0887105763

$$$$
[H]c1c([H])c([H])c2c(c1[H])c1c3c(c4c5c([H])c([H])c([H])c([H])c5n5c4c1n2[C@]1([H])O[C@]5(C([H])([H])[H])[C@@]([H])(OC([H])([H])[H])[C@]([H])(N([H])C([H])([H])[H])C1([H])[H])C([H])([H])N([H])C3=O


 37 44  0  0  0  0  0  0  0  0999 V2000
  -88.3432   25.8436    0.8712 C   0  0  0  0  0  0  0  0  0  0  0  0
  -87.1062   26.5537    1.5104 C   0  0  0  0  0  0  0  0  0  0  0  0
  -87.2246   27.8208    0.9883 C   0  0  0  0  0  0  0  0  0  0  0  0
  -88.4363   28.2899    1.4700 O   0  0  0  0  0  0  0  0  0  0  0  0
  -89.3503   28.1495    0.3782 C   0  0  0  0  0  0  0  0  0  0  0  0
  -90.7014   28.4180    1.0967 C   0  0  0  0  0  0  0  0  0  0  0  0
  -89.1899   26.7733   -0.0197 C   0  0  0  0  0  0  0  0  0  0  0  0
  -89.1365   29.2829   -0.4846 N   0  0  0  0  0  0  0  0  0  0  0  0
  -90.0830   29.8650   -1.2874 C   0  0  0  0  0  0  0  0  0  0  0  0
  -91.3579   29.5216   -1.6360 C   0  0  0  0  0  0  0  0  0  0  0  0
  -92.0899   30.3235   -2.5040 C   0  0  0  0  0  0  0  0  0  0  0  0
  -91.5648   31.4797   -3.0396 C   0  0  0  0  0  0  0  0  0  0  0  0
  -90.2723   31.8497   -2.7021 C   0  0  0  0  0  0  0  0  0  0  0  0
  -89.5901   31.0330   -1.8468 C   0  0  0  0  0  0  0  0  0  0  0  0
  -88.3116   31.1667   -1.3812 C   0  0  0  0  0  0  0  0  0  0  0  0
  -87.2928   32.0982   -1.5181 C   0  0  0  0  0  0  0  0  0  0  0  0
  -87.3024   33.3451   -2.3254 C   0  0  0  0  0  0  0  0  0  0  0  0
  -86.0034   33.9221   -2.1236 N   0  0  0  0  0  0  0  0  0  0  0  0
  -85.2229   33.0993   -1.2281 C   0  0  0  0  0  0  0  0  0  0  0  0
  -84.0705   33.4464   -0.9288 O   0  0  0  0  0  0  0  0  0  0  0  0
  -86.0665   31.9879   -0.8862 C   0  0  0  0  0  0  0  0  0  0  0  0
  -85.8119   30.8971   -0.0696 C   0  0  0  0  0  0  0  0  0  0  0  0
  -84.7572   30.4244    0.6445 C   0  0  0  0  0  0  0  0  0  0  0  0
  -83.5028   30.8890    0.8964 C   0  0  0  0  0  0  0  0  0  0  0  0
  -82.6707   30.0954    1.7068 C   0  0  0  0  0  0  0  0  0  0  0  0
  -83.0802   28.8950    2.2375 C   0  0  0  0  0  0  0  0  0  0  0  0
  -84.3592   28.4311    1.9753 C   0  0  0  0  0  0  0  0  0  0  0  0
  -85.1640   29.2226    1.1771 C   0  0  0  0  0  0  0  0  0  0  0  0
  -86.4042   28.9464    0.8252 N   0  0  0  0  0  0  0  0  0  0  0  0
  -86.8352   29.9841    0.0527 C   0  0  0  0  0  0  0  0  0  0  0  0
  -88.0746   30.1104   -0.5831 C   0  0  0  0  0  0  0  0  0  0  0  0
  -85.7089   34.8109   -2.5816 H   0  0  0  0  0  0  0  0  0  0  0  0
  -90.2965   24.6241    1.2407 C   0  0  0  0  0  0  0  0  0  0  0  0
  -89.0867   25.1356    1.8485 N   0  0  0  0  0  0  0  0  0  0  0  0
  -89.3510   25.7585    2.6166 H   0  0  0  0  0  0  0  0  0  0  0  0
  -89.0214   26.4917   -1.3810 O   0  0  0  0  0  0  0  0  0  0  0  0
  -90.1436   25.9297   -1.9775 C   0  0  0  0  0  0  0  0  0  0  0  0
 33 34  1  0  0  0
 34  1  1  0  0  0
  1  2  1  0  0  0
  2  3  1  0  0  0
  3  4  1  0  0  0
  4  5  1  0  0  0
  5  6  1  0  0  0
  5  7  1  0  0  0
  7 36  1  0  0  0
 36 37  1  0  0  0
  5  8  1  0  0  0
  8  9  1  0  0  0
  9 10  2  0  0  0
 10 11  1  0  0  0
 11 12  2  0  0  0
 12 13  1  0  0  0
 13 14  2  0  0  0
 14 15  1  0  0  0
 15 16  2  0  0  0
 16 17  1  0  0  0
 17 18  1  0  0  0
 18 19  1  0  0  0
 19 20  2  0  0  0
 19 21  1  0  0  0
 21 22  2  0  0  0
 22 23  1  0  0  0
 23 24  2  0  0  0
 24 25  1  0  0  0
 25 26  2  0  0  0
 26 27  1  0  0  0
 27 28  2  0  0  0
 28 29  1  0  0  0
 29 30  1  0  0  0
 30 31  2  0  0  0
  7  1  1  0  0  0
 31  8  1  0  0  0
 29  3  1  0  0  0
 14  9  1  0  0  0
 31 15  1  0  0  0
 21 16  1  0  0  0
 30 22  1  0  0  0
 28 23  1  0  0  0
 34 35  1  0  0  0
 18 32  1  0  0  0
M  END
> <minimizedAffinity>
-12.24657

> <CNNscore>
0.6000834703

> <CNNaffinity>
7.0470228195

> <CNN_VS>
4.2288017273

> <CNNaffinity_variance>
0.2379758060

$$$$
[H]c1c([H])c([H])c2c(c1[H])c1c3c(c4c5c([H])c([H])c([H])c([H])c5n5c4c1n2[C@]1([H])O[C@]5(C([H])([H])[H])[C@@]([H])(OC([H])([H])[H])[C@]([H])(N([H])C([H])([H])[H])C1([H])[H])C([H])([H])N([H])C3=O


 37 44  0  0  0  0  0  0  0  0999 V2000
  -90.7150   30.9405   -3.2219 C   0  0  0  0  0  0  0  0  0  0  0  0
  -91.1301   29.8169   -2.2179 C   0  0  0  0  0  0  0  0  0  0  0  0
  -90.0246   29.7648   -1.4011 C   0  0  0  0  0  0  0  0  0  0  0  0
  -89.9544   31.0211   -0.8205 O   0  0  0  0  0  0  0  0  0  0  0  0
  -88.9325   31.7104   -1.5471 C   0  0  0  0  0  0  0  0  0  0  0  0
  -89.1359   33.1599   -1.0264 C   0  0  0  0  0  0  0  0  0  0  0  0
  -89.3303   31.5473   -2.9231 C   0  0  0  0  0  0  0  0  0  0  0  0
  -87.6738   31.2734   -1.0000 N   0  0  0  0  0  0  0  0  0  0  0  0
  -86.5204   32.0132   -0.9607 C   0  0  0  0  0  0  0  0  0  0  0  0
  -86.1550   33.2116   -1.5040 C   0  0  0  0  0  0  0  0  0  0  0  0
  -84.8768   33.7172   -1.2969 C   0  0  0  0  0  0  0  0  0  0  0  0
  -83.9413   33.0379   -0.5465 C   0  0  0  0  0  0  0  0  0  0  0  0
  -84.2873   31.8189    0.0150 C   0  0  0  0  0  0  0  0  0  0  0  0
  -85.5528   31.3603   -0.2140 C   0  0  0  0  0  0  0  0  0  0  0  0
  -86.1236   30.1922    0.2088 C   0  0  0  0  0  0  0  0  0  0  0  0
  -85.7329   29.1192    0.9963 C   0  0  0  0  0  0  0  0  0  0  0  0
  -84.4196   28.9058    1.6569 C   0  0  0  0  0  0  0  0  0  0  0  0
  -84.5476   27.6431    2.3276 N   0  0  0  0  0  0  0  0  0  0  0  0
  -85.8690   27.0964    2.1193 C   0  0  0  0  0  0  0  0  0  0  0  0
  -86.1674   26.0082    2.6339 O   0  0  0  0  0  0  0  0  0  0  0  0
  -86.5573   28.0473    1.2911 C   0  0  0  0  0  0  0  0  0  0  0  0
  -87.8466   28.0143    0.7831 C   0  0  0  0  0  0  0  0  0  0  0  0
  -88.8910   27.1455    0.7988 C   0  0  0  0  0  0  0  0  0  0  0  0
  -89.1096   25.9420    1.3959 C   0  0  0  0  0  0  0  0  0  0  0  0
  -90.3548   25.3268    1.1723 C   0  0  0  0  0  0  0  0  0  0  0  0
  -91.3310   25.8940    0.3878 C   0  0  0  0  0  0  0  0  0  0  0  0
  -91.0987   27.1195   -0.2153 C   0  0  0  0  0  0  0  0  0  0  0  0
  -89.8701   27.7106    0.0142 C   0  0  0  0  0  0  0  0  0  0  0  0
  -89.4745   28.8709   -0.4712 N   0  0  0  0  0  0  0  0  0  0  0  0
  -88.2149   29.0880    0.0039 C   0  0  0  0  0  0  0  0  0  0  0  0
  -87.3765   30.1711   -0.2799 C   0  0  0  0  0  0  0  0  0  0  0  0
  -83.7685   27.2188    2.8749 H   0  0  0  0  0  0  0  0  0  0  0  0
  -91.5136   32.6582   -4.5824 C   0  0  0  0  0  0  0  0  0  0  0  0
  -91.7503   31.8965   -3.3748 N   0  0  0  0  0  0  0  0  0  0  0  0
  -91.7582   32.5442   -2.5821 H   0  0  0  0  0  0  0  0  0  0  0  0
  -88.3646   31.1310   -3.8479 O   0  0  0  0  0  0  0  0  0  0  0  0
  -87.8265   32.1696   -4.5980 C   0  0  0  0  0  0  0  0  0  0  0  0
 33 34  1  0  0  0
 34  1  1  0  0  0
  1  2  1  0  0  0
  2  3  1  0  0  0
  3  4  1  0  0  0
  4  5  1  0  0  0
  5  6  1  0  0  0
  5  7  1  0  0  0
  7 36  1  0  0  0
 36 37  1  0  0  0
  5  8  1  0  0  0
  8  9  1  0  0  0
  9 10  2  0  0  0
 10 11  1  0  0  0
 11 12  2  0  0  0
 12 13  1  0  0  0
 13 14  2  0  0  0
 14 15  1  0  0  0
 15 16  2  0  0  0
 16 17  1  0  0  0
 17 18  1  0  0  0
 18 19  1  0  0  0
 19 20  2  0  0  0
 19 21  1  0  0  0
 21 22  2  0  0  0
 22 23  1  0  0  0
 23 24  2  0  0  0
 24 25  1  0  0  0
 25 26  2  0  0  0
 26 27  1  0  0  0
 27 28  2  0  0  0
 28 29  1  0  0  0
 29 30  1  0  0  0
 30 31  2  0  0  0
  7  1  1  0  0  0
 31  8  1  0  0  0
 29  3  1  0  0  0
 14  9  1  0  0  0
 31 15  1  0  0  0
 21 16  1  0  0  0
 30 22  1  0  0  0
 28 23  1  0  0  0
 34 35  1  0  0  0
 18 32  1  0  0  0
M  END
> <minimizedAffinity>
-10.27499

> <CNNscore>
0.3312484026

> <CNNaffinity>
6.5454549789

> <CNN_VS>
2.1681714058

> <CNNaffinity_variance>
0.3530886769

$$$$
[H]c1c([H])c([H])c2c(c1[H])c1c3c(c4c5c([H])c([H])c([H])c([H])c5n5c4c1n2[C@]1([H])O[C@]5(C([H])([H])[H])[C@@]([H])(OC([H])([H])[H])[C@]([H])(N([H])C([H])([H])[H])C1([H])[H])C([H])([H])N([H])C3=O


 37 44  0  0  0  0  0  0  0  0999 V2000
  -90.3289   26.9280    0.9066 C   0  0  0  0  0  0  0  0  0  0  0  0
  -90.6791   27.8283   -0.3221 C   0  0  0  0  0  0  0  0  0  0  0  0
  -89.5157   28.5475   -0.4683 C   0  0  0  0  0  0  0  0  0  0  0  0
  -88.5449   27.5975   -0.7429 O   0  0  0  0  0  0  0  0  0  0  0  0
  -87.8454   27.4126    0.4915 C   0  0  0  0  0  0  0  0  0  0  0  0
  -87.0006   26.1520    0.1584 C   0  0  0  0  0  0  0  0  0  0  0  0
  -88.8993   27.1478    1.4387 C   0  0  0  0  0  0  0  0  0  0  0  0
  -86.9026   28.4965    0.5955 N   0  0  0  0  0  0  0  0  0  0  0  0
  -85.6998   28.4484    1.2514 C   0  0  0  0  0  0  0  0  0  0  0  0
  -85.1154   27.5281    2.0738 C   0  0  0  0  0  0  0  0  0  0  0  0
  -83.8577   27.7671    2.6155 C   0  0  0  0  0  0  0  0  0  0  0  0
  -83.1617   28.9263    2.3480 C   0  0  0  0  0  0  0  0  0  0  0  0
  -83.7336   29.8766    1.5169 C   0  0  0  0  0  0  0  0  0  0  0  0
  -84.9698   29.6005    1.0072 C   0  0  0  0  0  0  0  0  0  0  0  0
  -85.7443   30.3743    0.1884 C   0  0  0  0  0  0  0  0  0  0  0  0
  -85.6106   31.6023   -0.4428 C   0  0  0  0  0  0  0  0  0  0  0  0
  -84.4602   32.5397   -0.3750 C   0  0  0  0  0  0  0  0  0  0  0  0
  -84.8456   33.6526   -1.1958 N   0  0  0  0  0  0  0  0  0  0  0  0
  -86.1548   33.4267   -1.7642 C   0  0  0  0  0  0  0  0  0  0  0  0
  -86.6513   34.2823   -2.5122 O   0  0  0  0  0  0  0  0  0  0  0  0
  -86.5799   32.1480   -1.2662 C   0  0  0  0  0  0  0  0  0  0  0  0
  -87.7600   31.4555   -1.4879 C   0  0  0  0  0  0  0  0  0  0  0  0
  -88.9230   31.6763   -2.1547 C   0  0  0  0  0  0  0  0  0  0  0  0
  -89.3795   32.6825   -2.9498 C   0  0  0  0  0  0  0  0  0  0  0  0
  -90.6771   32.5509   -3.4768 C   0  0  0  0  0  0  0  0  0  0  0  0
  -91.4751   31.4619   -3.2173 C   0  0  0  0  0  0  0  0  0  0  0  0
  -91.0009   30.4430   -2.4070 C   0  0  0  0  0  0  0  0  0  0  0  0
  -89.7241   30.5877   -1.8969 C   0  0  0  0  0  0  0  0  0  0  0  0
  -89.1083   29.7236   -1.1142 N   0  0  0  0  0  0  0  0  0  0  0  0
  -87.8734   30.2393   -0.8524 C   0  0  0  0  0  0  0  0  0  0  0  0
  -86.8832   29.6927   -0.0296 C   0  0  0  0  0  0  0  0  0  0  0  0
  -84.2341   34.4857   -1.3316 H   0  0  0  0  0  0  0  0  0  0  0  0
  -91.8305   25.5191   -0.1884 C   0  0  0  0  0  0  0  0  0  0  0  0
  -90.6561   25.5719    0.6557 N   0  0  0  0  0  0  0  0  0  0  0  0
  -90.8678   25.0875    1.5323 H   0  0  0  0  0  0  0  0  0  0  0  0
  -88.8928   27.8482    2.6512 O   0  0  0  0  0  0  0  0  0  0  0  0
  -89.6009   27.2146    3.6652 C   0  0  0  0  0  0  0  0  0  0  0  0
 33 34  1  0  0  0
 34  1  1  0  0  0
  1  2  1  0  0  0
  2  3  1  0  0  0
  3  4  1  0  0  0
  4  5  1  0  0  0
  5  6  1  0  0  0
  5  7  1  0  0  0
  7 36  1  0  0  0
 36 37  1  0  0  0
  5  8  1  0  0  0
  8  9  1  0  0  0
  9 10  2  0  0  0
 10 11  1  0  0  0
 11 12  2  0  0  0
 12 13  1  0  0  0
 13 14  2  0  0  0
 14 15  1  0  0  0
 15 16  2  0  0  0
 16 17  1  0  0  0
 17 18  1  0  0  0
 18 19  1  0  0  0
 19 20  2  0  0  0
 19 21  1  0  0  0
 21 22  2  0  0  0
 22 23  1  0  0  0
 23 24  2  0  0  0
 24 25  1  0  0  0
 25 26  2  0  0  0
 26 27  1  0  0  0
 27 28  2  0  0  0
 28 29  1  0  0  0
 29 30  1  0  0  0
 30 31  2  0  0  0
  7  1  1  0  0  0
 31  8  1  0  0  0
 29  3  1  0  0  0
 14  9  1  0  0  0
 31 15  1  0  0  0
 21 16  1  0  0  0
 30 22  1  0  0  0
 28 23  1  0  0  0
 34 35  1  0  0  0
 18 32  1  0  0  0
M  END
> <minimizedAffinity>
-11.51081

> <CNNscore>
0.3214085400

> <CNNaffinity>
6.7350511551

> <CNN_VS>
2.1647028923

> <CNNaffinity_variance>
0.1707750559

$$$$
[H]c1c([H])c([H])c2c(c1[H])c1c3c(c4c5c([H])c([H])c([H])c([H])c5n5c4c1n2[C@]1([H])O[C@]5(C([H])([H])[H])[C@@]([H])(OC([H])([H])[H])[C@]([H])(N([H])C([H])([H])[H])C1([H])[H])C([H])([H])N([H])C3=O


 37 44  0  0  0  0  0  0  0  0999 V2000
  -88.6154   25.8682    0.9825 C   0  0  0  0  0  0  0  0  0  0  0  0
  -87.5986   26.8498    1.6498 C   0  0  0  0  0  0  0  0  0  0  0  0
  -87.7711   27.9779    0.8820 C   0  0  0  0  0  0  0  0  0  0  0  0
  -89.0940   28.3406    1.0787 O   0  0  0  0  0  0  0  0  0  0  0  0
  -89.7828   27.8839   -0.0892 C   0  0  0  0  0  0  0  0  0  0  0  0
  -91.2597   28.0712    0.3551 C   0  0  0  0  0  0  0  0  0  0  0  0
  -89.3974   26.4982   -0.1865 C   0  0  0  0  0  0  0  0  0  0  0  0
  -89.5560   28.8720   -1.1124 N   0  0  0  0  0  0  0  0  0  0  0  0
  -90.4105   29.1639   -2.1439 C   0  0  0  0  0  0  0  0  0  0  0  0
  -91.5573   28.5837   -2.6055 C   0  0  0  0  0  0  0  0  0  0  0  0
  -92.2162   29.1100   -3.7106 C   0  0  0  0  0  0  0  0  0  0  0  0
  -91.7441   30.2216   -4.3745 C   0  0  0  0  0  0  0  0  0  0  0  0
  -90.5814   30.8284   -3.9261 C   0  0  0  0  0  0  0  0  0  0  0  0
  -89.9672   30.2783   -2.8379 C   0  0  0  0  0  0  0  0  0  0  0  0
  -88.8128   30.6747   -2.2219 C   0  0  0  0  0  0  0  0  0  0  0  0
  -87.9008   31.7075   -2.3824 C   0  0  0  0  0  0  0  0  0  0  0  0
  -87.9153   32.7832   -3.4068 C   0  0  0  0  0  0  0  0  0  0  0  0
  -86.7467   33.5695   -3.1290 N   0  0  0  0  0  0  0  0  0  0  0  0
  -86.0427   33.0346   -1.9860 C   0  0  0  0  0  0  0  0  0  0  0  0
  -85.0077   33.5921   -1.5911 O   0  0  0  0  0  0  0  0  0  0  0  0
  -86.7979   31.8870   -1.5659 C   0  0  0  0  0  0  0  0  0  0  0  0
  -86.5635   31.0008   -0.5261 C   0  0  0  0  0  0  0  0  0  0  0  0
  -85.6006   30.8162    0.4144 C   0  0  0  0  0  0  0  0  0  0  0  0
  -84.4712   31.4949    0.7558 C   0  0  0  0  0  0  0  0  0  0  0  0
  -83.7055   30.9815    1.8184 C   0  0  0  0  0  0  0  0  0  0  0  0
  -84.0584   29.8428    2.5032 C   0  0  0  0  0  0  0  0  0  0  0  0
  -85.2101   29.1594    2.1480 C   0  0  0  0  0  0  0  0  0  0  0  0
  -85.9511   29.6768    1.1017 C   0  0  0  0  0  0  0  0  0  0  0  0
  -87.0712   29.1665    0.6291 N   0  0  0  0  0  0  0  0  0  0  0  0
  -87.4796   29.9829   -0.3839 C   0  0  0  0  0  0  0  0  0  0  0  0
  -88.5965   29.8164   -1.2093 C   0  0  0  0  0  0  0  0  0  0  0  0
  -86.4826   34.4002   -3.7005 H   0  0  0  0  0  0  0  0  0  0  0  0
  -89.0529   25.7172    3.2683 C   0  0  0  0  0  0  0  0  0  0  0  0
  -89.4295   25.2369    1.9561 N   0  0  0  0  0  0  0  0  0  0  0  0
  -89.2923   24.2227    1.9330 H   0  0  0  0  0  0  0  0  0  0  0  0
  -88.9644   26.0157   -1.4277 O   0  0  0  0  0  0  0  0  0  0  0  0
  -89.8921   25.1995   -2.0633 C   0  0  0  0  0  0  0  0  0  0  0  0
 33 34  1  0  0  0
 34  1  1  0  0  0
  1  2  1  0  0  0
  2  3  1  0  0  0
  3  4  1  0  0  0
  4  5  1  0  0  0
  5  6  1  0  0  0
  5  7  1  0  0  0
  7 36  1  0  0  0
 36 37  1  0  0  0
  5  8  1  0  0  0
  8  9  1  0  0  0
  9 10  2  0  0  0
 10 11  1  0  0  0
 11 12  2  0  0  0
 12 13  1  0  0  0
 13 14  2  0  0  0
 14 15  1  0  0  0
 15 16  2  0  0  0
 16 17  1  0  0  0
 17 18  1  0  0  0
 18 19  1  0  0  0
 19 20  2  0  0  0
 19 21  1  0  0  0
 21 22  2  0  0  0
 22 23  1  0  0  0
 23 24  2  0  0  0
 24 25  1  0  0  0
 25 26  2  0  0  0
 26 27  1  0  0  0
 27 28  2  0  0  0
 28 29  1  0  0  0
 29 30  1  0  0  0
 30 31  2  0  0  0
  7  1  1  0  0  0
 31  8  1  0  0  0
 29  3  1  0  0  0
 14  9  1  0  0  0
 31 15  1  0  0  0
 21 16  1  0  0  0
 30 22  1  0  0  0
 28 23  1  0  0  0
 34 35  1  0  0  0
 18 32  1  0  0  0
M  END
> <minimizedAffinity>
-10.97527

> <CNNscore>
0.3141312003

> <CNNaffinity>
6.5823531151

> <CNN_VS>
2.0677225590

> <CNNaffinity_variance>
0.2988844514

$$$$
[H]c1c([H])c([H])c2c(c1[H])c1c3c(c4c5c([H])c([H])c([H])c([H])c5n5c4c1n2[C@]1([H])O[C@]5(C([H])([H])[H])[C@@]([H])(OC([H])([H])[H])[C@]([H])(N([H])C([H])([H])[H])C1([H])[H])C([H])([H])N([H])C3=O


 37 44  0  0  0  0  0  0  0  0999 V2000
  -90.7156   26.7106   -0.9444 C   0  0  0  0  0  0  0  0  0  0  0  0
  -89.5962   27.2453    0.0064 C   0  0  0  0  0  0  0  0  0  0  0  0
  -89.3608   28.4901   -0.5294 C   0  0  0  0  0  0  0  0  0  0  0  0
  -90.5633   29.1657   -0.3958 O   0  0  0  0  0  0  0  0  0  0  0  0
  -91.1613   29.1216   -1.6949 C   0  0  0  0  0  0  0  0  0  0  0  0
  -92.5926   29.6320   -1.3712 C   0  0  0  0  0  0  0  0  0  0  0  0
  -91.1281   27.7206   -2.0328 C   0  0  0  0  0  0  0  0  0  0  0  0
  -90.5412   30.1667   -2.4681 N   0  0  0  0  0  0  0  0  0  0  0  0
  -91.1290   30.8535   -3.4986 C   0  0  0  0  0  0  0  0  0  0  0  0
  -92.3022   30.6998   -4.1804 C   0  0  0  0  0  0  0  0  0  0  0  0
  -92.6329   31.5667   -5.2155 C   0  0  0  0  0  0  0  0  0  0  0  0
  -91.8011   32.6001   -5.5892 C   0  0  0  0  0  0  0  0  0  0  0  0
  -90.6040   32.7768   -4.9133 C   0  0  0  0  0  0  0  0  0  0  0  0
  -90.3196   31.9026   -3.9040 C   0  0  0  0  0  0  0  0  0  0  0  0
  -89.2088   31.8542   -3.1084 C   0  0  0  0  0  0  0  0  0  0  0  0
  -88.0522   32.6063   -2.9639 C   0  0  0  0  0  0  0  0  0  0  0  0
  -87.6403   33.8012   -3.7446 C   0  0  0  0  0  0  0  0  0  0  0  0
  -86.3666   34.1749   -3.1977 N   0  0  0  0  0  0  0  0  0  0  0  0
  -86.0007   33.2810   -2.1229 C   0  0  0  0  0  0  0  0  0  0  0  0
  -84.9300   33.4555   -1.5218 O   0  0  0  0  0  0  0  0  0  0  0  0
  -87.0755   32.3331   -2.0222 C   0  0  0  0  0  0  0  0  0  0  0  0
  -87.2316   31.2541   -1.1662 C   0  0  0  0  0  0  0  0  0  0  0  0
  -86.4993   30.6541   -0.1917 C   0  0  0  0  0  0  0  0  0  0  0  0
  -85.2998   30.9263    0.3914 C   0  0  0  0  0  0  0  0  0  0  0  0
  -84.8574   30.0491    1.3983 C   0  0  0  0  0  0  0  0  0  0  0  0
  -85.5852   28.9537    1.7987 C   0  0  0  0  0  0  0  0  0  0  0  0
  -86.8051   28.6856    1.1991 C   0  0  0  0  0  0  0  0  0  0  0  0
  -87.2254   29.5569    0.2113 C   0  0  0  0  0  0  0  0  0  0  0  0
  -88.3537   29.4638   -0.4644 N   0  0  0  0  0  0  0  0  0  0  0  0
  -88.3856   30.5203   -1.3258 C   0  0  0  0  0  0  0  0  0  0  0  0
  -89.3710   30.8112   -2.2749 C   0  0  0  0  0  0  0  0  0  0  0  0
  -85.8185   34.9845   -3.5592 H   0  0  0  0  0  0  0  0  0  0  0  0
  -91.5889   24.7535   -0.0246 C   0  0  0  0  0  0  0  0  0  0  0  0
  -91.7996   26.1738   -0.2055 N   0  0  0  0  0  0  0  0  0  0  0  0
  -92.6784   26.3067   -0.7133 H   0  0  0  0  0  0  0  0  0  0  0  0
  -90.6493   27.3543   -3.2968 O   0  0  0  0  0  0  0  0  0  0  0  0
  -91.5579   26.6157   -4.0449 C   0  0  0  0  0  0  0  0  0  0  0  0
 33 34  1  0  0  0
 34  1  1  0  0  0
  1  2  1  0  0  0
  2  3  1  0  0  0
  3  4  1  0  0  0
  4  5  1  0  0  0
  5  6  1  0  0  0
  5  7  1  0  0  0
  7 36  1  0  0  0
 36 37  1  0  0  0
  5  8  1  0  0  0
  8  9  1  0  0  0
  9 10  2  0  0  0
 10 11  1  0  0  0
 11 12  2  0  0  0
 12 13  1  0  0  0
 13 14  2  0  0  0
 14 15  1  0  0  0
 15 16  2  0  0  0
 16 17  1  0  0  0
 17 18  1  0  0  0
 18 19  1  0  0  0
 19 20  2  0  0  0
 19 21  1  0  0  0
 21 22  2  0  0  0
 22 23  1  0  0  0
 23 24  2  0  0  0
 24 25  1  0  0  0
 25 26  2  0  0  0
 26 27  1  0  0  0
 27 28  2  0  0  0
 28 29  1  0  0  0
 29 30  1  0  0  0
 30 31  2  0  0  0
  7  1  1  0  0  0
 31  8  1  0  0  0
 29  3  1  0  0  0
 14  9  1  0  0  0
 31 15  1  0  0  0
 21 16  1  0  0  0
 30 22  1  0  0  0
 28 23  1  0  0  0
 34 35  1  0  0  0
 18 32  1  0  0  0
M  END
> <minimizedAffinity>
-9.67719

> <CNNscore>
0.2293712497

> <CNNaffinity>
6.1650643349

> <CNN_VS>
1.4140884876

> <CNNaffinity_variance>
0.2731546164

$$$$
[H]c1c([H])c([H])c2c(c1[H])c1c3c(c4c5c([H])c([H])c([H])c([H])c5n5c4c1n2[C@]1([H])O[C@]5(C([H])([H])[H])[C@@]([H])(OC([H])([H])[H])[C@]([H])(N([H])C([H])([H])[H])C1([H])[H])C([H])([H])N([H])C3=O


 37 44  0  0  0  0  0  0  0  0999 V2000
  -93.5945   22.1520   -2.7701 C   0  0  0  0  0  0  0  0  0  0  0  0
  -92.8312   23.4724   -3.1117 C   0  0  0  0  0  0  0  0  0  0  0  0
  -92.0488   23.6279   -1.9911 C   0  0  0  0  0  0  0  0  0  0  0  0
  -91.2304   22.5097   -1.9733 O   0  0  0  0  0  0  0  0  0  0  0  0
  -91.8125   21.6379   -0.9995 C   0  0  0  0  0  0  0  0  0  0  0  0
  -91.0124   20.3330   -1.2656 C   0  0  0  0  0  0  0  0  0  0  0  0
  -93.1906   21.5453   -1.4123 C   0  0  0  0  0  0  0  0  0  0  0  0
  -91.3721   22.1086    0.2885 N   0  0  0  0  0  0  0  0  0  0  0  0
  -91.1944   21.3323    1.4043 C   0  0  0  0  0  0  0  0  0  0  0  0
  -91.4909   20.0326    1.7004 C   0  0  0  0  0  0  0  0  0  0  0  0
  -91.1963   19.5123    2.9553 C   0  0  0  0  0  0  0  0  0  0  0  0
  -90.6026   20.2773    3.9361 C   0  0  0  0  0  0  0  0  0  0  0  0
  -90.2924   21.5998    3.6607 C   0  0  0  0  0  0  0  0  0  0  0  0
  -90.5992   22.0690    2.4158 C   0  0  0  0  0  0  0  0  0  0  0  0
  -90.4133   23.3259    1.9109 C   0  0  0  0  0  0  0  0  0  0  0  0
  -89.8577   24.5120    2.3679 C   0  0  0  0  0  0  0  0  0  0  0  0
  -89.2620   24.7834    3.7013 C   0  0  0  0  0  0  0  0  0  0  0  0
  -88.8550   26.1591    3.6476 N   0  0  0  0  0  0  0  0  0  0  0  0
  -89.1587   26.7215    2.3516 C   0  0  0  0  0  0  0  0  0  0  0  0
  -88.8688   27.9042    2.1164 O   0  0  0  0  0  0  0  0  0  0  0  0
  -89.7763   25.6624    1.6028 C   0  0  0  0  0  0  0  0  0  0  0  0
  -90.2717   25.6611    0.3082 C   0  0  0  0  0  0  0  0  0  0  0  0
  -90.4219   26.5688   -0.6914 C   0  0  0  0  0  0  0  0  0  0  0  0
  -90.0747   27.8766   -0.8397 C   0  0  0  0  0  0  0  0  0  0  0  0
  -90.4075   28.4991   -2.0566 C   0  0  0  0  0  0  0  0  0  0  0  0
  -91.0567   27.8392   -3.0730 C   0  0  0  0  0  0  0  0  0  0  0  0
  -91.4055   26.5080   -2.9121 C   0  0  0  0  0  0  0  0  0  0  0  0
  -91.0716   25.9111   -1.7106 C   0  0  0  0  0  0  0  0  0  0  0  0
  -91.3192   24.6586   -1.3814 N   0  0  0  0  0  0  0  0  0  0  0  0
  -90.8192   24.4748   -0.1262 C   0  0  0  0  0  0  0  0  0  0  0  0
  -90.8877   23.3148    0.6524 C   0  0  0  0  0  0  0  0  0  0  0  0
  -88.4085   26.6423    4.4561 H   0  0  0  0  0  0  0  0  0  0  0  0
  -94.8953   20.8332   -4.1871 C   0  0  0  0  0  0  0  0  0  0  0  0
  -93.5469   21.2399   -3.8540 N   0  0  0  0  0  0  0  0  0  0  0  0
  -93.0137   20.4052   -3.5953 H   0  0  0  0  0  0  0  0  0  0  0  0
  -94.1864   21.7191   -0.4432 O   0  0  0  0  0  0  0  0  0  0  0  0
  -95.0598   22.7633   -0.7219 C   0  0  0  0  0  0  0  0  0  0  0  0
 33 34  1  0  0  0
 34  1  1  0  0  0
  1  2  1  0  0  0
  2  3  1  0  0  0
  3  4  1  0  0  0
  4  5  1  0  0  0
  5  6  1  0  0  0
  5  7  1  0  0  0
  7 36  1  0  0  0
 36 37  1  0  0  0
  5  8  1  0  0  0
  8  9  1  0  0  0
  9 10  2  0  0  0
 10 11  1  0  0  0
 11 12  2  0  0  0
 12 13  1  0  0  0
 13 14  2  0  0  0
 14 15  1  0  0  0
 15 16  2  0  0  0
 16 17  1  0  0  0
 17 18  1  0  0  0
 18 19  1  0  0  0
 19 20  2  0  0  0
 19 21  1  0  0  0
 21 22  2  0  0  0
 22 23  1  0  0  0
 23 24  2  0  0  0
 24 25  1  0  0  0
 25 26  2  0  0  0
 26 27  1  0  0  0
 27 28  2  0  0  0
 28 29  1  0  0  0
 29 30  1  0  0  0
 30 31  2  0  0  0
  7  1  1  0  0  0
 31  8  1  0  0  0
 29  3  1  0  0  0
 14  9  1  0  0  0
 31 15  1  0  0  0
 21 16  1  0  0  0
 30 22  1  0  0  0
 28 23  1  0  0  0
 34 35  1  0  0  0
 18 32  1  0  0  0
M  END
> <minimizedAffinity>
-1.67529

> <CNNscore>
0.1945387721

> <CNNaffinity>
5.3696775436

> <CNN_VS>
1.0446105003

> <CNNaffinity_variance>
0.5482664108

$$$$
[H]c1c([H])c([H])c2c(c1[H])c1c3c(c4c5c([H])c([H])c([H])c([H])c5n5c4c1n2[C@]1([H])O[C@]5(C([H])([H])[H])[C@@]([H])(OC([H])([H])[H])[C@]([H])(N([H])C([H])([H])[H])C1([H])[H])C([H])([H])N([H])C3=O


 37 44  0  0  0  0  0  0  0  0999 V2000
  -91.8883   29.4478   -3.7330 C   0  0  0  0  0  0  0  0  0  0  0  0
  -90.9225   30.5400   -4.2961 C   0  0  0  0  0  0  0  0  0  0  0  0
  -89.8773   30.4591   -3.4055 C   0  0  0  0  0  0  0  0  0  0  0  0
  -89.3903   29.1696   -3.5480 O   0  0  0  0  0  0  0  0  0  0  0  0
  -89.9186   28.4468   -2.4319 C   0  0  0  0  0  0  0  0  0  0  0  0
  -89.5652   26.9895   -2.8386 C   0  0  0  0  0  0  0  0  0  0  0  0
  -91.3327   28.7196   -2.4937 C   0  0  0  0  0  0  0  0  0  0  0  0
  -89.0727   28.7528   -1.3070 N   0  0  0  0  0  0  0  0  0  0  0  0
  -88.8309   27.9251   -0.2413 C   0  0  0  0  0  0  0  0  0  0  0  0
  -89.3656   26.7355    0.1635 C   0  0  0  0  0  0  0  0  0  0  0  0
  -88.9156   26.1216    1.3265 C   0  0  0  0  0  0  0  0  0  0  0  0
  -87.9266   26.6819    2.1060 C   0  0  0  0  0  0  0  0  0  0  0  0
  -87.3683   27.8894    1.7172 C   0  0  0  0  0  0  0  0  0  0  0  0
  -87.8403   28.4569    0.5686 C   0  0  0  0  0  0  0  0  0  0  0  0
  -87.4708   29.6391   -0.0102 C   0  0  0  0  0  0  0  0  0  0  0  0
  -86.5387   30.6313    0.2560 C   0  0  0  0  0  0  0  0  0  0  0  0
  -85.5869   30.7039    1.3942 C   0  0  0  0  0  0  0  0  0  0  0  0
  -84.8703   31.9318    1.1949 N   0  0  0  0  0  0  0  0  0  0  0  0
  -85.3282   32.5900   -0.0073 C   0  0  0  0  0  0  0  0  0  0  0  0
  -84.8145   33.6663   -0.3473 O   0  0  0  0  0  0  0  0  0  0  0  0
  -86.3575   31.7448   -0.5458 C   0  0  0  0  0  0  0  0  0  0  0  0
  -87.1374   31.9066   -1.6802 C   0  0  0  0  0  0  0  0  0  0  0  0
  -87.2919   32.8511   -2.6445 C   0  0  0  0  0  0  0  0  0  0  0  0
  -86.6715   34.0313   -2.9187 C   0  0  0  0  0  0  0  0  0  0  0  0
  -87.1222   34.7528   -4.0391 C   0  0  0  0  0  0  0  0  0  0  0  0
  -88.1451   34.3091   -4.8434 C   0  0  0  0  0  0  0  0  0  0  0  0
  -88.7698   33.1063   -4.5559 C   0  0  0  0  0  0  0  0  0  0  0  0
  -88.3154   32.4098   -3.4514 C   0  0  0  0  0  0  0  0  0  0  0  0
  -88.7843   31.2525   -3.0282 N   0  0  0  0  0  0  0  0  0  0  0  0
  -88.0566   30.9115   -1.9265 C   0  0  0  0  0  0  0  0  0  0  0  0
  -88.2248   29.7852   -1.1143 C   0  0  0  0  0  0  0  0  0  0  0  0
  -84.1326   32.2622    1.8530 H   0  0  0  0  0  0  0  0  0  0  0  0
  -93.1931   29.3314   -5.6626 C   0  0  0  0  0  0  0  0  0  0  0  0
  -92.3394   28.5851   -4.7632 N   0  0  0  0  0  0  0  0  0  0  0  0
  -92.8839   27.8128   -4.3695 H   0  0  0  0  0  0  0  0  0  0  0  0
  -91.9843   29.1129   -1.3183 O   0  0  0  0  0  0  0  0  0  0  0  0
  -93.2822   29.5645   -1.5244 C   0  0  0  0  0  0  0  0  0  0  0  0
 33 34  1  0  0  0
 34  1  1  0  0  0
  1  2  1  0  0  0
  2  3  1  0  0  0
  3  4  1  0  0  0
  4  5  1  0  0  0
  5  6  1  0  0  0
  5  7  1  0  0  0
  7 36  1  0  0  0
 36 37  1  0  0  0
  5  8  1  0  0  0
  8  9  1  0  0  0
  9 10  2  0  0  0
 10 11  1  0  0  0
 11 12  2  0  0  0
 12 13  1  0  0  0
 13 14  2  0  0  0
 14 15  1  0  0  0
 15 16  2  0  0  0
 16 17  1  0  0  0
 17 18  1  0  0  0
 18 19  1  0  0  0
 19 20  2  0  0  0
 19 21  1  0  0  0
 21 22  2  0  0  0
 22 23  1  0  0  0
 23 24  2  0  0  0
 24 25  1  0  0  0
 25 26  2  0  0  0
 26 27  1  0  0  0
 27 28  2  0  0  0
 28 29  1  0  0  0
 29 30  1  0  0  0
 30 31  2  0  0  0
  7  1  1  0  0  0
 31  8  1  0  0  0
 29  3  1  0  0  0
 14  9  1  0  0  0
 31 15  1  0  0  0
 21 16  1  0  0  0
 30 22  1  0  0  0
 28 23  1  0  0  0
 34 35  1  0  0  0
 18 32  1  0  0  0
M  END
> <minimizedAffinity>
-10.09970

> <CNNscore>
0.1263906658

> <CNNaffinity>
6.1920766830

> <CNN_VS>
0.7826206684

> <CNNaffinity_variance>
0.2120238841

$$$$
[H]c1c([H])c([H])c2c(c1[H])c1c3c(c4c5c([H])c([H])c([H])c([H])c5n5c4c1n2[C@]1([H])O[C@]5(C([H])([H])[H])[C@@]([H])(OC([H])([H])[H])[C@]([H])(N([H])C([H])([H])[H])C1([H])[H])C([H])([H])N([H])C3=O


 37 44  0  0  0  0  0  0  0  0999 V2000
  -88.5025   33.6387   -3.1999 C   0  0  0  0  0  0  0  0  0  0  0  0
  -89.7116   32.7799   -2.7065 C   0  0  0  0  0  0  0  0  0  0  0  0
  -89.0941   31.9344   -1.8144 C   0  0  0  0  0  0  0  0  0  0  0  0
  -88.5778   32.7688   -0.8358 O   0  0  0  0  0  0  0  0  0  0  0  0
  -87.1833   32.8776   -1.1372 C   0  0  0  0  0  0  0  0  0  0  0  0
  -86.7718   34.0346   -0.1854 C   0  0  0  0  0  0  0  0  0  0  0  0
  -87.1686   33.2616   -2.5265 C   0  0  0  0  0  0  0  0  0  0  0  0
  -86.5551   31.6951   -0.6064 N   0  0  0  0  0  0  0  0  0  0  0  0
  -85.2616   31.6100   -0.1603 C   0  0  0  0  0  0  0  0  0  0  0  0
  -84.1949   32.4612   -0.2065 C   0  0  0  0  0  0  0  0  0  0  0  0
  -82.9703   32.0842    0.3325 C   0  0  0  0  0  0  0  0  0  0  0  0
  -82.7874   30.8536    0.9256 C   0  0  0  0  0  0  0  0  0  0  0  0
  -83.8545   29.9710    0.9843 C   0  0  0  0  0  0  0  0  0  0  0  0
  -85.0383   30.3825    0.4427 C   0  0  0  0  0  0  0  0  0  0  0  0
  -86.2189   29.6982    0.3593 C   0  0  0  0  0  0  0  0  0  0  0  0
  -86.6863   28.4611    0.7783 C   0  0  0  0  0  0  0  0  0  0  0  0
  -85.9352   27.4009    1.4983 C   0  0  0  0  0  0  0  0  0  0  0  0
  -86.8817   26.3359    1.6733 N   0  0  0  0  0  0  0  0  0  0  0  0
  -88.1616   26.7055    1.1132 C   0  0  0  0  0  0  0  0  0  0  0  0
  -89.1097   25.9089    1.1795 O   0  0  0  0  0  0  0  0  0  0  0  0
  -87.9839   28.0252    0.5742 C   0  0  0  0  0  0  0  0  0  0  0  0
  -88.8866   28.8450   -0.0848 C   0  0  0  0  0  0  0  0  0  0  0  0
  -90.1741   28.7541   -0.5090 C   0  0  0  0  0  0  0  0  0  0  0  0
  -91.1414   27.8032   -0.3945 C   0  0  0  0  0  0  0  0  0  0  0  0
  -92.3898   28.0779   -0.9819 C   0  0  0  0  0  0  0  0  0  0  0  0
  -92.6519   29.2503   -1.6505 C   0  0  0  0  0  0  0  0  0  0  0  0
  -91.6606   30.2119   -1.7612 C   0  0  0  0  0  0  0  0  0  0  0  0
  -90.4396   29.9264   -1.1788 C   0  0  0  0  0  0  0  0  0  0  0  0
  -89.3854   30.7182   -1.1801 N   0  0  0  0  0  0  0  0  0  0  0  0
  -88.4033   30.0680   -0.4928 C   0  0  0  0  0  0  0  0  0  0  0  0
  -87.0922   30.5025   -0.2728 C   0  0  0  0  0  0  0  0  0  0  0  0
  -86.6341   25.4390    2.1433 H   0  0  0  0  0  0  0  0  0  0  0  0
  -88.4533   35.6229   -4.4245 C   0  0  0  0  0  0  0  0  0  0  0  0
  -88.8075   35.0222   -3.1564 N   0  0  0  0  0  0  0  0  0  0  0  0
  -88.2674   35.4839   -2.4195 H   0  0  0  0  0  0  0  0  0  0  0  0
  -86.3190   32.5683   -3.3974 O   0  0  0  0  0  0  0  0  0  0  0  0
  -86.9872   31.9137   -4.4251 C   0  0  0  0  0  0  0  0  0  0  0  0
 33 34  1  0  0  0
 34  1  1  0  0  0
  1  2  1  0  0  0
  2  3  1  0  0  0
  3  4  1  0  0  0
  4  5  1  0  0  0
  5  6  1  0  0  0
  5  7  1  0  0  0
  7 36  1  0  0  0
 36 37  1  0  0  0
  5  8  1  0  0  0
  8  9  1  0  0  0
  9 10  2  0  0  0
 10 11  1  0  0  0
 11 12  2  0  0  0
 12 13  1  0  0  0
 13 14  2  0  0  0
 14 15  1  0  0  0
 15 16  2  0  0  0
 16 17  1  0  0  0
 17 18  1  0  0  0
 18 19  1  0  0  0
 19 20  2  0  0  0
 19 21  1  0  0  0
 21 22  2  0  0  0
 22 23  1  0  0  0
 23 24  2  0  0  0
 24 25  1  0  0  0
 25 26  2  0  0  0
 26 27  1  0  0  0
 27 28  2  0  0  0
 28 29  1  0  0  0
 29 30  1  0  0  0
 30 31  2  0  0  0
  7  1  1  0  0  0
 31  8  1  0  0  0
 29  3  1  0  0  0
 14  9  1  0  0  0
 31 15  1  0  0  0
 21 16  1  0  0  0
 30 22  1  0  0  0
 28 23  1  0  0  0
 34 35  1  0  0  0
 18 32  1  0  0  0
M  END
> <minimizedAffinity>
-9.25318

> <CNNscore>
0.0910033435

> <CNNaffinity>
6.2155551910

> <CNN_VS>
0.5656362772

> <CNNaffinity_variance>
0.2514837384

$$$$
[H]c1c([H])c([H])c(/C(=C2/C(=O)N([H])c3c([H])c(C(=O)OC([H])([H])[H])c([H])c([H])c32)N([H])c2c([H])c([H])c(N(C(=O)C([H])([H])N3C([H])([H])C([H])([H])N(C([H])([H])[H])C([H])([H])C3([H])[H])C([H])([H])[H])c([H])c2[H])c([H])c1[H]


 42 46  0  0  0  0  0  0  0  0999 V2000
  -85.2271   28.8412    1.3498 C   0  0  0  0  0  0  0  0  0  0  0  0
  -86.2930   28.8694    0.5040 C   0  0  0  0  0  0  0  0  0  0  0  0
  -86.5687   29.9690   -0.3172 C   0  0  0  0  0  0  0  0  0  0  0  0
  -85.7190   31.0399   -0.2433 C   0  0  0  0  0  0  0  0  0  0  0  0
  -85.7193   32.2985   -0.9670 C   0  0  0  0  0  0  0  0  0  0  0  0
  -86.6116   32.7745   -1.7938 C   0  0  0  0  0  0  0  0  0  0  0  0
  -84.5189   33.0346   -0.4684 C   0  0  0  0  0  0  0  0  0  0  0  0
  -84.1421   34.1540   -0.8271 O   0  0  0  0  0  0  0  0  0  0  0  0
  -83.8726   32.2249    0.5003 N   0  0  0  0  0  0  0  0  0  0  0  0
  -84.6220   31.0257    0.6159 C   0  0  0  0  0  0  0  0  0  0  0  0
  -84.3801   29.9255    1.4105 C   0  0  0  0  0  0  0  0  0  0  0  0
  -82.9911   32.4629    1.0435 H   0  0  0  0  0  0  0  0  0  0  0  0
  -87.8940   32.1901   -2.0376 C   0  0  0  0  0  0  0  0  0  0  0  0
  -89.0098   32.2947   -1.2405 C   0  0  0  0  0  0  0  0  0  0  0  0
  -90.1684   31.6048   -1.4904 C   0  0  0  0  0  0  0  0  0  0  0  0
  -90.2429   30.7702   -2.5730 C   0  0  0  0  0  0  0  0  0  0  0  0
  -89.1566   30.6297   -3.4015 C   0  0  0  0  0  0  0  0  0  0  0  0
  -88.0085   31.3235   -3.1400 C   0  0  0  0  0  0  0  0  0  0  0  0
  -84.9196   27.7108    2.2158 C   0  0  0  0  0  0  0  0  0  0  0  0
  -85.5748   26.6509    2.2200 O   0  0  0  0  0  0  0  0  0  0  0  0
  -82.5208   27.4983    2.7138 C   0  0  0  0  0  0  0  0  0  0  0  0
  -83.8323   27.8446    3.0754 O   0  0  0  0  0  0  0  0  0  0  0  0
  -86.3519   34.0412   -2.3833 N   0  0  0  0  0  0  0  0  0  0  0  0
  -85.4069   34.4567   -2.1271 H   0  0  0  0  0  0  0  0  0  0  0  0
  -87.2432   34.7308   -3.2450 C   0  0  0  0  0  0  0  0  0  0  0  0
  -88.1955   35.6079   -2.7817 C   0  0  0  0  0  0  0  0  0  0  0  0
  -89.0582   36.2739   -3.6609 C   0  0  0  0  0  0  0  0  0  0  0  0
  -88.9629   36.0571   -5.0137 C   0  0  0  0  0  0  0  0  0  0  0  0
  -88.0119   35.1812   -5.4781 C   0  0  0  0  0  0  0  0  0  0  0  0
  -87.1537   34.5186   -4.6030 C   0  0  0  0  0  0  0  0  0  0  0  0
  -89.8629   36.7556   -5.9242 N   0  0  0  0  0  0  0  0  0  0  0  0
  -89.3957   38.0674   -6.3129 C   0  0  0  0  0  0  0  0  0  0  0  0
  -91.0250   36.1624   -6.3920 C   0  0  0  0  0  0  0  0  0  0  0  0
  -91.1325   34.8934   -6.0531 O   0  0  0  0  0  0  0  0  0  0  0  0
  -92.1431   36.6598   -7.1824 C   0  0  0  0  0  0  0  0  0  0  0  0
  -93.1890   37.3694   -6.5851 N   0  0  0  0  0  0  0  0  0  0  0  0
  -93.1138   38.7898   -6.5428 C   0  0  0  0  0  0  0  0  0  0  0  0
  -92.7712   39.3071   -5.1633 C   0  0  0  0  0  0  0  0  0  0  0  0
  -93.6445   38.8278   -4.1499 N   0  0  0  0  0  0  0  0  0  0  0  0
  -93.1831   38.9698   -2.8191 C   0  0  0  0  0  0  0  0  0  0  0  0
  -94.3985   37.6693   -4.4544 C   0  0  0  0  0  0  0  0  0  0  0  0
  -93.8932   36.7716   -5.5108 C   0  0  0  0  0  0  0  0  0  0  0  0
 21 22  1  0  0  0
 22 19  1  0  0  0
 19 20  2  0  0  0
 19  1  1  0  0  0
  1  2  2  0  0  0
  2  3  1  0  0  0
  3  4  2  0  0  0
  4  5  1  0  0  0
  5  6  2  0  0  0
  6 23  1  0  0  0
 23 25  1  0  0  0
 25 26  2  0  0  0
 26 27  1  0  0  0
 27 28  2  0  0  0
 28 29  1  0  0  0
 29 30  2  0  0  0
 28 31  1  0  0  0
 31 32  1  0  0  0
 31 33  1  0  0  0
 33 34  2  0  0  0
 33 35  1  0  0  0
 35 36  1  0  0  0
 36 37  1  0  0  0
 37 38  1  0  0  0
 38 39  1  0  0  0
 39 40  1  0  0  0
 39 41  1  0  0  0
 41 42  1  0  0  0
  6 13  1  0  0  0
 13 14  2  0  0  0
 14 15  1  0  0  0
 15 16  2  0  0  0
 16 17  1  0  0  0
 17 18  2  0  0  0
  5  7  1  0  0  0
  7  8  2  0  0  0
  7  9  1  0  0  0
  9 10  1  0  0  0
 10 11  2  0  0  0
 11  1  1  0  0  0
 10  4  1  0  0  0
 30 25  1  0  0  0
 42 36  1  0  0  0
 18 13  1  0  0  0
 23 24  1  0  0  0
  9 12  1  0  0  0
M  END
> <minimizedAffinity>
-8.14130

> <CNNscore>
0.7985926867

> <CNNaffinity>
7.1971077919

> <CNN_VS>
5.7475576401

> <CNNaffinity_variance>
0.1084814817

$$$$
[H]c1c([H])c([H])c(/C(=C2/C(=O)N([H])c3c([H])c(C(=O)OC([H])([H])[H])c([H])c([H])c32)N([H])c2c([H])c([H])c(N(C(=O)C([H])([H])N3C([H])([H])C([H])([H])N(C([H])([H])[H])C([H])([H])C3([H])[H])C([H])([H])[H])c([H])c2[H])c([H])c1[H]


 42 46  0  0  0  0  0  0  0  0999 V2000
  -85.4843   28.7978    1.3411 C   0  0  0  0  0  0  0  0  0  0  0  0
  -86.4828   28.7140    0.4202 C   0  0  0  0  0  0  0  0  0  0  0  0
  -86.8749   29.8073   -0.3611 C   0  0  0  0  0  0  0  0  0  0  0  0
  -86.2132   30.9901   -0.1679 C   0  0  0  0  0  0  0  0  0  0  0  0
  -86.3657   32.2767   -0.8231 C   0  0  0  0  0  0  0  0  0  0  0  0
  -87.2657   32.6600   -1.6887 C   0  0  0  0  0  0  0  0  0  0  0  0
  -85.3333   33.1568   -0.1979 C   0  0  0  0  0  0  0  0  0  0  0  0
  -85.1163   34.3415   -0.4685 O   0  0  0  0  0  0  0  0  0  0  0  0
  -84.6319   32.3974    0.7732 N   0  0  0  0  0  0  0  0  0  0  0  0
  -85.1871   31.0917    0.7695 C   0  0  0  0  0  0  0  0  0  0  0  0
  -84.8263   29.9942    1.5217 C   0  0  0  0  0  0  0  0  0  0  0  0
  -83.8373   32.7342    1.3929 H   0  0  0  0  0  0  0  0  0  0  0  0
  -88.4199   31.9007   -2.0584 C   0  0  0  0  0  0  0  0  0  0  0  0
  -89.5853   31.7738   -1.3391 C   0  0  0  0  0  0  0  0  0  0  0  0
  -90.6002   30.9303   -1.7122 C   0  0  0  0  0  0  0  0  0  0  0  0
  -90.4724   30.1716   -2.8445 C   0  0  0  0  0  0  0  0  0  0  0  0
  -89.3284   30.2606   -3.5992 C   0  0  0  0  0  0  0  0  0  0  0  0
  -88.3251   31.1056   -3.2152 C   0  0  0  0  0  0  0  0  0  0  0  0
  -85.0589   27.6763    2.1678 C   0  0  0  0  0  0  0  0  0  0  0  0
  -85.6362   26.5720    2.1765 O   0  0  0  0  0  0  0  0  0  0  0  0
  -82.6328   27.6094    2.5639 C   0  0  0  0  0  0  0  0  0  0  0  0
  -83.9468   27.8717    2.9827 O   0  0  0  0  0  0  0  0  0  0  0  0
  -87.1723   33.9864   -2.1903 N   0  0  0  0  0  0  0  0  0  0  0  0
  -86.4376   34.5852   -1.7076 H   0  0  0  0  0  0  0  0  0  0  0  0
  -87.9669   34.5119   -3.2414 C   0  0  0  0  0  0  0  0  0  0  0  0
  -89.2660   34.9234   -3.0568 C   0  0  0  0  0  0  0  0  0  0  0  0
  -90.0215   35.4398   -4.1167 C   0  0  0  0  0  0  0  0  0  0  0  0
  -89.4680   35.5434   -5.3693 C   0  0  0  0  0  0  0  0  0  0  0  0
  -88.1703   35.1328   -5.5552 C   0  0  0  0  0  0  0  0  0  0  0  0
  -87.4188   34.6189   -4.5005 C   0  0  0  0  0  0  0  0  0  0  0  0
  -90.2596   36.0842   -6.4683 N   0  0  0  0  0  0  0  0  0  0  0  0
  -90.2432   37.5280   -6.5428 C   0  0  0  0  0  0  0  0  0  0  0  0
  -90.9115   35.2560   -7.3685 C   0  0  0  0  0  0  0  0  0  0  0  0
  -90.6149   33.9818   -7.2097 O   0  0  0  0  0  0  0  0  0  0  0  0
  -91.8514   35.5137   -8.4513 C   0  0  0  0  0  0  0  0  0  0  0  0
  -93.1490   34.9950   -8.4182 N   0  0  0  0  0  0  0  0  0  0  0  0
  -93.9158   35.1488   -7.2293 C   0  0  0  0  0  0  0  0  0  0  0  0
  -94.0228   33.8611   -6.4428 C   0  0  0  0  0  0  0  0  0  0  0  0
  -94.5152   32.7718   -7.2114 N   0  0  0  0  0  0  0  0  0  0  0  0
  -94.3046   31.4840   -6.6628 C   0  0  0  0  0  0  0  0  0  0  0  0
  -94.4354   32.8979   -8.6189 C   0  0  0  0  0  0  0  0  0  0  0  0
  -93.4391   33.8332   -9.1755 C   0  0  0  0  0  0  0  0  0  0  0  0
 21 22  1  0  0  0
 22 19  1  0  0  0
 19 20  2  0  0  0
 19  1  1  0  0  0
  1  2  2  0  0  0
  2  3  1  0  0  0
  3  4  2  0  0  0
  4  5  1  0  0  0
  5  6  2  0  0  0
  6 23  1  0  0  0
 23 25  1  0  0  0
 25 26  2  0  0  0
 26 27  1  0  0  0
 27 28  2  0  0  0
 28 29  1  0  0  0
 29 30  2  0  0  0
 28 31  1  0  0  0
 31 32  1  0  0  0
 31 33  1  0  0  0
 33 34  2  0  0  0
 33 35  1  0  0  0
 35 36  1  0  0  0
 36 37  1  0  0  0
 37 38  1  0  0  0
 38 39  1  0  0  0
 39 40  1  0  0  0
 39 41  1  0  0  0
 41 42  1  0  0  0
  6 13  1  0  0  0
 13 14  2  0  0  0
 14 15  1  0  0  0
 15 16  2  0  0  0
 16 17  1  0  0  0
 17 18  2  0  0  0
  5  7  1  0  0  0
  7  8  2  0  0  0
  7  9  1  0  0  0
  9 10  1  0  0  0
 10 11  2  0  0  0
 11  1  1  0  0  0
 10  4  1  0  0  0
 30 25  1  0  0  0
 42 36  1  0  0  0
 18 13  1  0  0  0
 23 24  1  0  0  0
  9 12  1  0  0  0
M  END
> <minimizedAffinity>
-8.25521

> <CNNscore>
0.4705135524

> <CNNaffinity>
6.8066558838

> <CNN_VS>
3.2026238441

> <CNNaffinity_variance>
0.2532672286

$$$$
[H]c1c([H])c([H])c(/C(=C2/C(=O)N([H])c3c([H])c(C(=O)OC([H])([H])[H])c([H])c([H])c32)N([H])c2c([H])c([H])c(N(C(=O)C([H])([H])N3C([H])([H])C([H])([H])N(C([H])([H])[H])C([H])([H])C3([H])[H])C([H])([H])[H])c([H])c2[H])c([H])c1[H]


 42 46  0  0  0  0  0  0  0  0999 V2000
  -86.9050   28.6319    0.6779 C   0  0  0  0  0  0  0  0  0  0  0  0
  -87.5884   28.7577   -0.4924 C   0  0  0  0  0  0  0  0  0  0  0  0
  -87.5192   29.9130   -1.2797 C   0  0  0  0  0  0  0  0  0  0  0  0
  -86.7292   30.9365   -0.8296 C   0  0  0  0  0  0  0  0  0  0  0  0
  -86.4352   32.2318   -1.4156 C   0  0  0  0  0  0  0  0  0  0  0  0
  -86.9531   32.7949   -2.4744 C   0  0  0  0  0  0  0  0  0  0  0  0
  -85.4816   32.8811   -0.4667 C   0  0  0  0  0  0  0  0  0  0  0  0
  -84.9729   33.9995   -0.5865 O   0  0  0  0  0  0  0  0  0  0  0  0
  -85.2525   31.9891    0.6120 N   0  0  0  0  0  0  0  0  0  0  0  0
  -86.0214   30.8224    0.3653 C   0  0  0  0  0  0  0  0  0  0  0  0
  -86.1123   29.6696    1.1157 C   0  0  0  0  0  0  0  0  0  0  0  0
  -84.6240   32.1544    1.4526 H   0  0  0  0  0  0  0  0  0  0  0  0
  -88.0723   32.2868   -3.2056 C   0  0  0  0  0  0  0  0  0  0  0  0
  -88.0355   31.6322   -4.4146 C   0  0  0  0  0  0  0  0  0  0  0  0
  -89.1680   31.2807   -5.1035 C   0  0  0  0  0  0  0  0  0  0  0  0
  -90.3994   31.5829   -4.5874 C   0  0  0  0  0  0  0  0  0  0  0  0
  -90.4921   32.2359   -3.3827 C   0  0  0  0  0  0  0  0  0  0  0  0
  -89.3549   32.5801   -2.7073 C   0  0  0  0  0  0  0  0  0  0  0  0
  -86.9617   27.4419    1.5163 C   0  0  0  0  0  0  0  0  0  0  0  0
  -85.9499   26.8687    1.9640 O   0  0  0  0  0  0  0  0  0  0  0  0
  -88.4693   26.0947    2.9161 C   0  0  0  0  0  0  0  0  0  0  0  0
  -88.2232   26.9365    1.8200 O   0  0  0  0  0  0  0  0  0  0  0  0
  -86.4659   34.0786   -2.8410 N   0  0  0  0  0  0  0  0  0  0  0  0
  -85.4496   34.2513   -2.5787 H   0  0  0  0  0  0  0  0  0  0  0  0
  -87.2291   35.0758   -3.5009 C   0  0  0  0  0  0  0  0  0  0  0  0
  -87.9804   36.0068   -2.8228 C   0  0  0  0  0  0  0  0  0  0  0  0
  -88.7206   36.9794   -3.5061 C   0  0  0  0  0  0  0  0  0  0  0  0
  -88.7054   37.0165   -4.8789 C   0  0  0  0  0  0  0  0  0  0  0  0
  -87.9553   36.0871   -5.5576 C   0  0  0  0  0  0  0  0  0  0  0  0
  -87.2189   35.1194   -4.8775 C   0  0  0  0  0  0  0  0  0  0  0  0
  -89.4769   38.0334   -5.5844 N   0  0  0  0  0  0  0  0  0  0  0  0
  -88.7280   39.2355   -5.8749 C   0  0  0  0  0  0  0  0  0  0  0  0
  -90.7896   37.8104   -5.9693 C   0  0  0  0  0  0  0  0  0  0  0  0
  -91.1858   36.5698   -5.7677 O   0  0  0  0  0  0  0  0  0  0  0  0
  -91.8113   38.6697   -6.5525 C   0  0  0  0  0  0  0  0  0  0  0  0
  -92.9067   39.1010   -5.7988 N   0  0  0  0  0  0  0  0  0  0  0  0
  -92.6721   39.6604   -4.5115 C   0  0  0  0  0  0  0  0  0  0  0  0
  -93.0387   38.7084   -3.3947 C   0  0  0  0  0  0  0  0  0  0  0  0
  -94.3701   38.2199   -3.4864 N   0  0  0  0  0  0  0  0  0  0  0  0
  -94.6625   37.0743   -2.7079 C   0  0  0  0  0  0  0  0  0  0  0  0
  -95.0012   38.3241   -4.7490 C   0  0  0  0  0  0  0  0  0  0  0  0
  -94.1441   38.4269   -5.9457 C   0  0  0  0  0  0  0  0  0  0  0  0
 21 22  1  0  0  0
 22 19  1  0  0  0
 19 20  2  0  0  0
 19  1  1  0  0  0
  1  2  2  0  0  0
  2  3  1  0  0  0
  3  4  2  0  0  0
  4  5  1  0  0  0
  5  6  2  0  0  0
  6 23  1  0  0  0
 23 25  1  0  0  0
 25 26  2  0  0  0
 26 27  1  0  0  0
 27 28  2  0  0  0
 28 29  1  0  0  0
 29 30  2  0  0  0
 28 31  1  0  0  0
 31 32  1  0  0  0
 31 33  1  0  0  0
 33 34  2  0  0  0
 33 35  1  0  0  0
 35 36  1  0  0  0
 36 37  1  0  0  0
 37 38  1  0  0  0
 38 39  1  0  0  0
 39 40  1  0  0  0
 39 41  1  0  0  0
 41 42  1  0  0  0
  6 13  1  0  0  0
 13 14  2  0  0  0
 14 15  1  0  0  0
 15 16  2  0  0  0
 16 17  1  0  0  0
 17 18  2  0  0  0
  5  7  1  0  0  0
  7  8  2  0  0  0
  7  9  1  0  0  0
  9 10  1  0  0  0
 10 11  2  0  0  0
 11  1  1  0  0  0
 10  4  1  0  0  0
 30 25  1  0  0  0
 42 36  1  0  0  0
 18 13  1  0  0  0
 23 24  1  0  0  0
  9 12  1  0  0  0
M  END
> <minimizedAffinity>
-7.54078

> <CNNscore>
0.3712571859

> <CNNaffinity>
6.6980652809

> <CNN_VS>
2.4867048264

> <CNNaffinity_variance>
0.1375382841

$$$$
[H]c1c([H])c([H])c(/C(=C2/C(=O)N([H])c3c([H])c(C(=O)OC([H])([H])[H])c([H])c([H])c32)N([H])c2c([H])c([H])c(N(C(=O)C([H])([H])N3C([H])([H])C([H])([H])N(C([H])([H])[H])C([H])([H])C3([H])[H])C([H])([H])[H])c([H])c2[H])c([H])c1[H]


 42 46  0  0  0  0  0  0  0  0999 V2000
  -87.0040   28.5302    0.6894 C   0  0  0  0  0  0  0  0  0  0  0  0
  -87.6823   28.6708   -0.4822 C   0  0  0  0  0  0  0  0  0  0  0  0
  -87.6286   29.8449   -1.2425 C   0  0  0  0  0  0  0  0  0  0  0  0
  -86.8596   30.8715   -0.7639 C   0  0  0  0  0  0  0  0  0  0  0  0
  -86.5850   32.1849   -1.3182 C   0  0  0  0  0  0  0  0  0  0  0  0
  -87.1063   32.7630   -2.3672 C   0  0  0  0  0  0  0  0  0  0  0  0
  -85.6490   32.8289   -0.3485 C   0  0  0  0  0  0  0  0  0  0  0  0
  -85.1594   33.9585   -0.4393 O   0  0  0  0  0  0  0  0  0  0  0  0
  -85.4108   31.9165    0.7110 N   0  0  0  0  0  0  0  0  0  0  0  0
  -86.1573   30.7424    0.4327 C   0  0  0  0  0  0  0  0  0  0  0  0
  -86.2325   29.5713    1.1560 C   0  0  0  0  0  0  0  0  0  0  0  0
  -84.7905   32.0734    1.5593 H   0  0  0  0  0  0  0  0  0  0  0  0
  -88.2117   32.2522   -3.1172 C   0  0  0  0  0  0  0  0  0  0  0  0
  -88.1660   31.6998   -4.3759 C   0  0  0  0  0  0  0  0  0  0  0  0
  -89.2924   31.3408   -5.0708 C   0  0  0  0  0  0  0  0  0  0  0  0
  -90.5268   31.5299   -4.5098 C   0  0  0  0  0  0  0  0  0  0  0  0
  -90.6284   32.0780   -3.2546 C   0  0  0  0  0  0  0  0  0  0  0  0
  -89.4972   32.4311   -2.5738 C   0  0  0  0  0  0  0  0  0  0  0  0
  -87.0448   27.3204    1.5000 C   0  0  0  0  0  0  0  0  0  0  0  0
  -86.0340   26.6483    1.7816 O   0  0  0  0  0  0  0  0  0  0  0  0
  -88.4516   25.9023    2.9342 C   0  0  0  0  0  0  0  0  0  0  0  0
  -88.2893   26.9132    1.9737 O   0  0  0  0  0  0  0  0  0  0  0  0
  -86.6396   34.0630   -2.7013 N   0  0  0  0  0  0  0  0  0  0  0  0
  -85.6844   34.3012   -2.2983 H   0  0  0  0  0  0  0  0  0  0  0  0
  -87.3486   34.9972   -3.4994 C   0  0  0  0  0  0  0  0  0  0  0  0
  -88.2767   35.8674   -2.9775 C   0  0  0  0  0  0  0  0  0  0  0  0
  -88.9572   36.7787   -3.7944 C   0  0  0  0  0  0  0  0  0  0  0  0
  -88.7031   36.8157   -5.1435 C   0  0  0  0  0  0  0  0  0  0  0  0
  -87.7761   35.9471   -5.6663 C   0  0  0  0  0  0  0  0  0  0  0  0
  -87.0992   35.0402   -4.8533 C   0  0  0  0  0  0  0  0  0  0  0  0
  -89.4136   37.7688   -5.9883 N   0  0  0  0  0  0  0  0  0  0  0  0
  -89.3699   39.1280   -5.4975 C   0  0  0  0  0  0  0  0  0  0  0  0
  -90.0191   37.3776   -7.1722 C   0  0  0  0  0  0  0  0  0  0  0  0
  -89.7533   36.1300   -7.5032 O   0  0  0  0  0  0  0  0  0  0  0  0
  -90.8830   38.0693   -8.1195 C   0  0  0  0  0  0  0  0  0  0  0  0
  -92.2217   37.6991   -8.2775 N   0  0  0  0  0  0  0  0  0  0  0  0
  -93.0261   37.5333   -7.1154 C   0  0  0  0  0  0  0  0  0  0  0  0
  -93.2831   36.0773   -6.7962 C   0  0  0  0  0  0  0  0  0  0  0  0
  -93.8340   35.3512   -7.8866 N   0  0  0  0  0  0  0  0  0  0  0  0
  -93.7641   33.9408   -7.7874 C   0  0  0  0  0  0  0  0  0  0  0  0
  -93.6783   35.9191   -9.1736 C   0  0  0  0  0  0  0  0  0  0  0  0
  -92.5782   36.8810   -9.3780 C   0  0  0  0  0  0  0  0  0  0  0  0
 21 22  1  0  0  0
 22 19  1  0  0  0
 19 20  2  0  0  0
 19  1  1  0  0  0
  1  2  2  0  0  0
  2  3  1  0  0  0
  3  4  2  0  0  0
  4  5  1  0  0  0
  5  6  2  0  0  0
  6 23  1  0  0  0
 23 25  1  0  0  0
 25 26  2  0  0  0
 26 27  1  0  0  0
 27 28  2  0  0  0
 28 29  1  0  0  0
 29 30  2  0  0  0
 28 31  1  0  0  0
 31 32  1  0  0  0
 31 33  1  0  0  0
 33 34  2  0  0  0
 33 35  1  0  0  0
 35 36  1  0  0  0
 36 37  1  0  0  0
 37 38  1  0  0  0
 38 39  1  0  0  0
 39 40  1  0  0  0
 39 41  1  0  0  0
 41 42  1  0  0  0
  6 13  1  0  0  0
 13 14  2  0  0  0
 14 15  1  0  0  0
 15 16  2  0  0  0
 16 17  1  0  0  0
 17 18  2  0  0  0
  5  7  1  0  0  0
  7  8  2  0  0  0
  7  9  1  0  0  0
  9 10  1  0  0  0
 10 11  2  0  0  0
 11  1  1  0  0  0
 10  4  1  0  0  0
 30 25  1  0  0  0
 42 36  1  0  0  0
 18 13  1  0  0  0
 23 24  1  0  0  0
  9 12  1  0  0  0
M  END
> <minimizedAffinity>
-7.42432

> <CNNscore>
0.3282202482

> <CNNaffinity>
6.5282831192

> <CNN_VS>
2.1427147388

> <CNNaffinity_variance>
0.1660694033

$$$$
[H]c1c([H])c([H])c(/C(=C2/C(=O)N([H])c3c([H])c(C(=O)OC([H])([H])[H])c([H])c([H])c32)N([H])c2c([H])c([H])c(N(C(=O)C([H])([H])N3C([H])([H])C([H])([H])N(C([H])([H])[H])C([H])([H])C3([H])[H])C([H])([H])[H])c([H])c2[H])c([H])c1[H]


 42 46  0  0  0  0  0  0  0  0999 V2000
  -84.9928   29.2371    1.3708 C   0  0  0  0  0  0  0  0  0  0  0  0
  -85.9006   28.7191    2.2426 C   0  0  0  0  0  0  0  0  0  0  0  0
  -87.1198   28.1764    1.8201 C   0  0  0  0  0  0  0  0  0  0  0  0
  -87.3809   28.1828    0.4762 C   0  0  0  0  0  0  0  0  0  0  0  0
  -88.5238   27.6838   -0.2671 C   0  0  0  0  0  0  0  0  0  0  0  0
  -89.6539   27.2055    0.1805 C   0  0  0  0  0  0  0  0  0  0  0  0
  -88.2023   27.9510   -1.7012 C   0  0  0  0  0  0  0  0  0  0  0  0
  -88.9092   27.6784   -2.6758 O   0  0  0  0  0  0  0  0  0  0  0  0
  -86.9322   28.5794   -1.7616 N   0  0  0  0  0  0  0  0  0  0  0  0
  -86.4609   28.7074   -0.4294 C   0  0  0  0  0  0  0  0  0  0  0  0
  -85.2693   29.2336    0.0216 C   0  0  0  0  0  0  0  0  0  0  0  0
  -86.4205   28.8985   -2.6364 H   0  0  0  0  0  0  0  0  0  0  0  0
  -90.0648   27.2257    1.5502 C   0  0  0  0  0  0  0  0  0  0  0  0
  -90.6330   28.2825    2.2224 C   0  0  0  0  0  0  0  0  0  0  0  0
  -90.8901   28.2541    3.5692 C   0  0  0  0  0  0  0  0  0  0  0  0
  -90.5773   27.1383    4.2979 C   0  0  0  0  0  0  0  0  0  0  0  0
  -90.0081   26.0546    3.6750 C   0  0  0  0  0  0  0  0  0  0  0  0
  -89.7575   26.0971    2.3322 C   0  0  0  0  0  0  0  0  0  0  0  0
  -83.7187   29.8093    1.7848 C   0  0  0  0  0  0  0  0  0  0  0  0
  -82.7410   29.1232    2.1400 O   0  0  0  0  0  0  0  0  0  0  0  0
  -82.7962   31.8979    0.8716 C   0  0  0  0  0  0  0  0  0  0  0  0
  -83.6111   31.1976    1.7750 O   0  0  0  0  0  0  0  0  0  0  0  0
  -90.6073   26.7664   -0.7776 N   0  0  0  0  0  0  0  0  0  0  0  0
  -90.4881   25.7536   -1.0800 H   0  0  0  0  0  0  0  0  0  0  0  0
  -91.6458   27.5708   -1.3132 C   0  0  0  0  0  0  0  0  0  0  0  0
  -91.7084   28.9306   -1.1185 C   0  0  0  0  0  0  0  0  0  0  0  0
  -92.7471   29.6951   -1.6639 C   0  0  0  0  0  0  0  0  0  0  0  0
  -93.7285   29.0892   -2.4095 C   0  0  0  0  0  0  0  0  0  0  0  0
  -93.6673   27.7308   -2.6049 C   0  0  0  0  0  0  0  0  0  0  0  0
  -92.6337   26.9703   -2.0620 C   0  0  0  0  0  0  0  0  0  0  0  0
  -94.8063   29.8914   -2.9765 N   0  0  0  0  0  0  0  0  0  0  0  0
  -95.8236   30.2613   -2.0181 C   0  0  0  0  0  0  0  0  0  0  0  0
  -94.7946   30.2863   -4.3052 C   0  0  0  0  0  0  0  0  0  0  0  0
  -93.6680   29.9940   -4.9233 O   0  0  0  0  0  0  0  0  0  0  0  0
  -95.7737   30.9596   -5.1479 C   0  0  0  0  0  0  0  0  0  0  0  0
  -95.5439   32.2521   -5.6283 N   0  0  0  0  0  0  0  0  0  0  0  0
  -95.2307   32.4229   -7.0059 C   0  0  0  0  0  0  0  0  0  0  0  0
  -93.7652   32.7234   -7.2300 C   0  0  0  0  0  0  0  0  0  0  0  0
  -93.2966   33.8325   -6.4751 N   0  0  0  0  0  0  0  0  0  0  0  0
  -91.8909   33.9472   -6.3538 C   0  0  0  0  0  0  0  0  0  0  0  0
  -94.0773   34.2193   -5.3597 C   0  0  0  0  0  0  0  0  0  0  0  0
  -94.9719   33.2122   -4.7575 C   0  0  0  0  0  0  0  0  0  0  0  0
 21 22  1  0  0  0
 22 19  1  0  0  0
 19 20  2  0  0  0
 19  1  1  0  0  0
  1  2  2  0  0  0
  2  3  1  0  0  0
  3  4  2  0  0  0
  4  5  1  0  0  0
  5  6  2  0  0  0
  6 23  1  0  0  0
 23 25  1  0  0  0
 25 26  2  0  0  0
 26 27  1  0  0  0
 27 28  2  0  0  0
 28 29  1  0  0  0
 29 30  2  0  0  0
 28 31  1  0  0  0
 31 32  1  0  0  0
 31 33  1  0  0  0
 33 34  2  0  0  0
 33 35  1  0  0  0
 35 36  1  0  0  0
 36 37  1  0  0  0
 37 38  1  0  0  0
 38 39  1  0  0  0
 39 40  1  0  0  0
 39 41  1  0  0  0
 41 42  1  0  0  0
  6 13  1  0  0  0
 13 14  2  0  0  0
 14 15  1  0  0  0
 15 16  2  0  0  0
 16 17  1  0  0  0
 17 18  2  0  0  0
  5  7  1  0  0  0
  7  8  2  0  0  0
  7  9  1  0  0  0
  9 10  1  0  0  0
 10 11  2  0  0  0
 11  1  1  0  0  0
 10  4  1  0  0  0
 30 25  1  0  0  0
 42 36  1  0  0  0
 18 13  1  0  0  0
 23 24  1  0  0  0
  9 12  1  0  0  0
M  END
> <minimizedAffinity>
-8.09522

> <CNNscore>
0.1700343192

> <CNNaffinity>
6.3339700699

> <CNN_VS>
1.0769922733

> <CNNaffinity_variance>
0.1431367695

$$$$
[H]c1c([H])c([H])c(/C(=C2/C(=O)N([H])c3c([H])c(C(=O)OC([H])([H])[H])c([H])c([H])c32)N([H])c2c([H])c([H])c(N(C(=O)C([H])([H])N3C([H])([H])C([H])([H])N(C([H])([H])[H])C([H])([H])C3([H])[H])C([H])([H])[H])c([H])c2[H])c([H])c1[H]


 42 46  0  0  0  0  0  0  0  0999 V2000
  -85.1168   29.9892    0.8405 C   0  0  0  0  0  0  0  0  0  0  0  0
  -85.2966   31.0724    0.0364 C   0  0  0  0  0  0  0  0  0  0  0  0
  -86.5445   31.4061   -0.5029 C   0  0  0  0  0  0  0  0  0  0  0  0
  -87.6025   30.5939   -0.1941 C   0  0  0  0  0  0  0  0  0  0  0  0
  -89.0019   30.6803   -0.5705 C   0  0  0  0  0  0  0  0  0  0  0  0
  -89.5824   31.5001   -1.4057 C   0  0  0  0  0  0  0  0  0  0  0  0
  -89.6597   29.5234    0.1078 C   0  0  0  0  0  0  0  0  0  0  0  0
  -90.8564   29.2249    0.0561 O   0  0  0  0  0  0  0  0  0  0  0  0
  -88.6693   28.8122    0.8324 N   0  0  0  0  0  0  0  0  0  0  0  0
  -87.4353   29.4824    0.6296 C   0  0  0  0  0  0  0  0  0  0  0  0
  -86.1918   29.1835    1.1440 C   0  0  0  0  0  0  0  0  0  0  0  0
  -88.8144   27.9392    1.4204 H   0  0  0  0  0  0  0  0  0  0  0  0
  -88.8952   32.4115   -2.2673 C   0  0  0  0  0  0  0  0  0  0  0  0
  -88.9317   33.7850   -2.2077 C   0  0  0  0  0  0  0  0  0  0  0  0
  -88.3340   34.5852   -3.1475 C   0  0  0  0  0  0  0  0  0  0  0  0
  -87.6666   34.0173   -4.1992 C   0  0  0  0  0  0  0  0  0  0  0  0
  -87.6001   32.6496   -4.3057 C   0  0  0  0  0  0  0  0  0  0  0  0
  -88.2004   31.8646   -3.3617 C   0  0  0  0  0  0  0  0  0  0  0  0
  -83.8290   29.6192    1.4123 C   0  0  0  0  0  0  0  0  0  0  0  0
  -82.7671   30.2196    1.1583 O   0  0  0  0  0  0  0  0  0  0  0  0
  -82.6434   27.8085    2.5797 C   0  0  0  0  0  0  0  0  0  0  0  0
  -83.8082   28.5348    2.2857 O   0  0  0  0  0  0  0  0  0  0  0  0
  -90.9876   31.3764   -1.5785 N   0  0  0  0  0  0  0  0  0  0  0  0
  -91.5645   31.8970   -0.8521 H   0  0  0  0  0  0  0  0  0  0  0  0
  -91.6136   30.6354   -2.6136 C   0  0  0  0  0  0  0  0  0  0  0  0
  -91.1952   30.6874   -3.9225 C   0  0  0  0  0  0  0  0  0  0  0  0
  -91.8349   29.9406   -4.9194 C   0  0  0  0  0  0  0  0  0  0  0  0
  -92.9013   29.1367   -4.5987 C   0  0  0  0  0  0  0  0  0  0  0  0
  -93.3203   29.0837   -3.2915 C   0  0  0  0  0  0  0  0  0  0  0  0
  -92.6836   29.8270   -2.2998 C   0  0  0  0  0  0  0  0  0  0  0  0
  -93.5617   28.3598   -5.6413 N   0  0  0  0  0  0  0  0  0  0  0  0
  -94.5819   29.0933   -6.3566 C   0  0  0  0  0  0  0  0  0  0  0  0
  -93.1827   27.0571   -5.9249 C   0  0  0  0  0  0  0  0  0  0  0  0
  -92.1010   26.6782   -5.2746 O   0  0  0  0  0  0  0  0  0  0  0  0
  -93.7379   26.0307   -6.7971 C   0  0  0  0  0  0  0  0  0  0  0  0
  -94.8934   25.3295   -6.4405 N   0  0  0  0  0  0  0  0  0  0  0  0
  -95.2819   25.3045   -5.0718 C   0  0  0  0  0  0  0  0  0  0  0  0
  -94.9919   23.9728   -4.4155 C   0  0  0  0  0  0  0  0  0  0  0  0
  -95.5562   22.8688   -5.1099 N   0  0  0  0  0  0  0  0  0  0  0  0
  -95.0369   21.5959   -4.7720 C   0  0  0  0  0  0  0  0  0  0  0  0
  -95.9173   23.0836   -6.4615 C   0  0  0  0  0  0  0  0  0  0  0  0
  -95.2540   24.1823   -7.1897 C   0  0  0  0  0  0  0  0  0  0  0  0
 21 22  1  0  0  0
 22 19  1  0  0  0
 19 20  2  0  0  0
 19  1  1  0  0  0
  1  2  2  0  0  0
  2  3  1  0  0  0
  3  4  2  0  0  0
  4  5  1  0  0  0
  5  6  2  0  0  0
  6 23  1  0  0  0
 23 25  1  0  0  0
 25 26  2  0  0  0
 26 27  1  0  0  0
 27 28  2  0  0  0
 28 29  1  0  0  0
 29 30  2  0  0  0
 28 31  1  0  0  0
 31 32  1  0  0  0
 31 33  1  0  0  0
 33 34  2  0  0  0
 33 35  1  0  0  0
 35 36  1  0  0  0
 36 37  1  0  0  0
 37 38  1  0  0  0
 38 39  1  0  0  0
 39 40  1  0  0  0
 39 41  1  0  0  0
 41 42  1  0  0  0
  6 13  1  0  0  0
 13 14  2  0  0  0
 14 15  1  0  0  0
 15 16  2  0  0  0
 16 17  1  0  0  0
 17 18  2  0  0  0
  5  7  1  0  0  0
  7  8  2  0  0  0
  7  9  1  0  0  0
  9 10  1  0  0  0
 10 11  2  0  0  0
 11  1  1  0  0  0
 10  4  1  0  0  0
 30 25  1  0  0  0
 42 36  1  0  0  0
 18 13  1  0  0  0
 23 24  1  0  0  0
  9 12  1  0  0  0
M  END
> <minimizedAffinity>
-7.88510

> <CNNscore>
0.1295881420

> <CNNaffinity>
5.9487643242

> <CNN_VS>
0.7708893418

> <CNNaffinity_variance>
0.1921106875

$$$$
[H]c1c([H])c([H])c(/C(=C2/C(=O)N([H])c3c([H])c(C(=O)OC([H])([H])[H])c([H])c([H])c32)N([H])c2c([H])c([H])c(N(C(=O)C([H])([H])N3C([H])([H])C([H])([H])N(C([H])([H])[H])C([H])([H])C3([H])[H])C([H])([H])[H])c([H])c2[H])c([H])c1[H]


 42 46  0  0  0  0  0  0  0  0999 V2000
  -85.2662   29.9639    1.4624 C   0  0  0  0  0  0  0  0  0  0  0  0
  -85.8927   29.4029    2.5325 C   0  0  0  0  0  0  0  0  0  0  0  0
  -86.7832   28.3307    2.4018 C   0  0  0  0  0  0  0  0  0  0  0  0
  -87.0132   27.8524    1.1398 C   0  0  0  0  0  0  0  0  0  0  0  0
  -87.8490   26.7572    0.6818 C   0  0  0  0  0  0  0  0  0  0  0  0
  -88.6914   26.0234    1.3588 C   0  0  0  0  0  0  0  0  0  0  0  0
  -87.6518   26.7095   -0.7981 C   0  0  0  0  0  0  0  0  0  0  0  0
  -88.1791   25.9174   -1.5845 O   0  0  0  0  0  0  0  0  0  0  0  0
  -86.7456   27.7394   -1.1585 N   0  0  0  0  0  0  0  0  0  0  0  0
  -86.3779   28.4143    0.0342 C   0  0  0  0  0  0  0  0  0  0  0  0
  -85.5062   29.4694    0.1996 C   0  0  0  0  0  0  0  0  0  0  0  0
  -86.4003   27.9704   -2.1363 H   0  0  0  0  0  0  0  0  0  0  0  0
  -89.0864   26.2694    2.7111 C   0  0  0  0  0  0  0  0  0  0  0  0
  -88.8995   25.4335    3.7870 C   0  0  0  0  0  0  0  0  0  0  0  0
  -89.4143   25.6970    5.0305 C   0  0  0  0  0  0  0  0  0  0  0  0
  -90.1490   26.8337    5.2355 C   0  0  0  0  0  0  0  0  0  0  0  0
  -90.3653   27.7027    4.1942 C   0  0  0  0  0  0  0  0  0  0  0  0
  -89.8462   27.4271    2.9603 C   0  0  0  0  0  0  0  0  0  0  0  0
  -84.3375   31.0810    1.5712 C   0  0  0  0  0  0  0  0  0  0  0  0
  -84.2670   31.8202    2.5718 O   0  0  0  0  0  0  0  0  0  0  0  0
  -83.4308   32.5475   -0.1822 C   0  0  0  0  0  0  0  0  0  0  0  0
  -83.4943   31.3157    0.4882 O   0  0  0  0  0  0  0  0  0  0  0  0
  -89.3765   24.9939    0.6586 N   0  0  0  0  0  0  0  0  0  0  0  0
  -88.9039   24.0422    0.7088 H   0  0  0  0  0  0  0  0  0  0  0  0
  -90.5877   25.1704   -0.0585 C   0  0  0  0  0  0  0  0  0  0  0  0
  -91.2525   26.3731   -0.1100 C   0  0  0  0  0  0  0  0  0  0  0  0
  -92.4455   26.5129   -0.8296 C   0  0  0  0  0  0  0  0  0  0  0  0
  -92.9733   25.4376   -1.5015 C   0  0  0  0  0  0  0  0  0  0  0  0
  -92.3103   24.2355   -1.4511 C   0  0  0  0  0  0  0  0  0  0  0  0
  -91.1232   24.0967   -0.7348 C   0  0  0  0  0  0  0  0  0  0  0  0
  -94.2150   25.5906   -2.2510 N   0  0  0  0  0  0  0  0  0  0  0  0
  -95.3997   25.5890   -1.4223 C   0  0  0  0  0  0  0  0  0  0  0  0
  -94.2150   25.7701   -3.6254 C   0  0  0  0  0  0  0  0  0  0  0  0
  -93.0075   25.9340   -4.1272 O   0  0  0  0  0  0  0  0  0  0  0  0
  -95.2793   25.8168   -4.6190 C   0  0  0  0  0  0  0  0  0  0  0  0
  -95.6076   27.0105   -5.2682 N   0  0  0  0  0  0  0  0  0  0  0  0
  -95.1390   27.2171   -6.5959 C   0  0  0  0  0  0  0  0  0  0  0  0
  -93.9898   28.1990   -6.6543 C   0  0  0  0  0  0  0  0  0  0  0  0
  -94.2813   29.4437   -6.0336 N   0  0  0  0  0  0  0  0  0  0  0  0
  -93.1647   30.2602   -5.7329 C   0  0  0  0  0  0  0  0  0  0  0  0
  -95.3627   29.4623   -5.1206 C   0  0  0  0  0  0  0  0  0  0  0  0
  -95.7632   28.1874   -4.4948 C   0  0  0  0  0  0  0  0  0  0  0  0
 21 22  1  0  0  0
 22 19  1  0  0  0
 19 20  2  0  0  0
 19  1  1  0  0  0
  1  2  2  0  0  0
  2  3  1  0  0  0
  3  4  2  0  0  0
  4  5  1  0  0  0
  5  6  2  0  0  0
  6 23  1  0  0  0
 23 25  1  0  0  0
 25 26  2  0  0  0
 26 27  1  0  0  0
 27 28  2  0  0  0
 28 29  1  0  0  0
 29 30  2  0  0  0
 28 31  1  0  0  0
 31 32  1  0  0  0
 31 33  1  0  0  0
 33 34  2  0  0  0
 33 35  1  0  0  0
 35 36  1  0  0  0
 36 37  1  0  0  0
 37 38  1  0  0  0
 38 39  1  0  0  0
 39 40  1  0  0  0
 39 41  1  0  0  0
 41 42  1  0  0  0
  6 13  1  0  0  0
 13 14  2  0  0  0
 14 15  1  0  0  0
 15 16  2  0  0  0
 16 17  1  0  0  0
 17 18  2  0  0  0
  5  7  1  0  0  0
  7  8  2  0  0  0
  7  9  1  0  0  0
  9 10  1  0  0  0
 10 11  2  0  0  0
 11  1  1  0  0  0
 10  4  1  0  0  0
 30 25  1  0  0  0
 42 36  1  0  0  0
 18 13  1  0  0  0
 23 24  1  0  0  0
  9 12  1  0  0  0
M  END
> <minimizedAffinity>
-7.95779

> <CNNscore>
0.1107246652

> <CNNaffinity>
6.0595583916

> <CNN_VS>
0.6709425449

> <CNNaffinity_variance>
0.3585781157

$$$$
[H]c1c([H])c([H])c(/C(=C2/C(=O)N([H])c3c([H])c(C(=O)OC([H])([H])[H])c([H])c([H])c32)N([H])c2c([H])c([H])c(N(C(=O)C([H])([H])N3C([H])([H])C([H])([H])N(C([H])([H])[H])C([H])([H])C3([H])[H])C([H])([H])[H])c([H])c2[H])c([H])c1[H]


 42 46  0  0  0  0  0  0  0  0999 V2000
  -84.1725   31.0885    0.2975 C   0  0  0  0  0  0  0  0  0  0  0  0
  -85.4284   31.0897   -0.2269 C   0  0  0  0  0  0  0  0  0  0  0  0
  -86.3348   30.0469   -0.0027 C   0  0  0  0  0  0  0  0  0  0  0  0
  -85.9135   29.0013    0.7742 C   0  0  0  0  0  0  0  0  0  0  0  0
  -86.6095   27.8015    1.2028 C   0  0  0  0  0  0  0  0  0  0  0  0
  -87.7874   27.3606    0.8499 C   0  0  0  0  0  0  0  0  0  0  0  0
  -85.6306   27.0690    2.0610 C   0  0  0  0  0  0  0  0  0  0  0  0
  -85.8183   25.9925    2.6352 O   0  0  0  0  0  0  0  0  0  0  0  0
  -84.4308   27.8239    2.1090 N   0  0  0  0  0  0  0  0  0  0  0  0
  -84.6316   28.9862    1.3204 C   0  0  0  0  0  0  0  0  0  0  0  0
  -83.7647   30.0306    1.0794 C   0  0  0  0  0  0  0  0  0  0  0  0
  -83.5418   27.5741    2.6346 H   0  0  0  0  0  0  0  0  0  0  0  0
  -88.5910   27.9200   -0.1926 C   0  0  0  0  0  0  0  0  0  0  0  0
  -88.3822   27.7983   -1.5464 C   0  0  0  0  0  0  0  0  0  0  0  0
  -89.1366   28.4655   -2.4772 C   0  0  0  0  0  0  0  0  0  0  0  0
  -90.1464   29.2938   -2.0671 C   0  0  0  0  0  0  0  0  0  0  0  0
  -90.3970   29.4508   -0.7258 C   0  0  0  0  0  0  0  0  0  0  0  0
  -89.6370   28.7796    0.1904 C   0  0  0  0  0  0  0  0  0  0  0  0
  -83.2101   32.1597    0.0777 C   0  0  0  0  0  0  0  0  0  0  0  0
  -82.1251   32.2433    0.6849 O   0  0  0  0  0  0  0  0  0  0  0  0
  -84.7707   33.8073   -0.8695 C   0  0  0  0  0  0  0  0  0  0  0  0
  -83.5413   33.1297   -0.8649 O   0  0  0  0  0  0  0  0  0  0  0  0
  -88.2410   26.1510    1.4420 N   0  0  0  0  0  0  0  0  0  0  0  0
  -87.6635   25.8291    2.2753 H   0  0  0  0  0  0  0  0  0  0  0  0
  -89.3609   25.4024    0.9972 C   0  0  0  0  0  0  0  0  0  0  0  0
  -89.3861   24.7511   -0.2136 C   0  0  0  0  0  0  0  0  0  0  0  0
  -90.5080   24.0187   -0.6207 C   0  0  0  0  0  0  0  0  0  0  0  0
  -91.6108   23.9404    0.1941 C   0  0  0  0  0  0  0  0  0  0  0  0
  -91.5870   24.5904    1.4040 C   0  0  0  0  0  0  0  0  0  0  0  0
  -90.4706   25.3192    1.8088 C   0  0  0  0  0  0  0  0  0  0  0  0
  -92.7751   23.1741   -0.2350 N   0  0  0  0  0  0  0  0  0  0  0  0
  -92.6256   21.7456   -0.0698 C   0  0  0  0  0  0  0  0  0  0  0  0
  -93.9207   23.7975   -0.7043 C   0  0  0  0  0  0  0  0  0  0  0  0
  -93.8880   25.1085   -0.5749 O   0  0  0  0  0  0  0  0  0  0  0  0
  -95.1481   23.2933   -1.3057 C   0  0  0  0  0  0  0  0  0  0  0  0
  -95.2351   23.0636   -2.6818 N   0  0  0  0  0  0  0  0  0  0  0  0
  -94.0381   22.8129   -3.4093 C   0  0  0  0  0  0  0  0  0  0  0  0
  -93.6098   24.0023   -4.2401 C   0  0  0  0  0  0  0  0  0  0  0  0
  -94.6279   24.4758   -5.1112 N   0  0  0  0  0  0  0  0  0  0  0  0
  -94.4330   25.7743   -5.6404 C   0  0  0  0  0  0  0  0  0  0  0  0
  -95.9558   24.0924   -4.8067 C   0  0  0  0  0  0  0  0  0  0  0  0
  -96.2634   23.7037   -3.4169 C   0  0  0  0  0  0  0  0  0  0  0  0
 21 22  1  0  0  0
 22 19  1  0  0  0
 19 20  2  0  0  0
 19  1  1  0  0  0
  1  2  2  0  0  0
  2  3  1  0  0  0
  3  4  2  0  0  0
  4  5  1  0  0  0
  5  6  2  0  0  0
  6 23  1  0  0  0
 23 25  1  0  0  0
 25 26  2  0  0  0
 26 27  1  0  0  0
 27 28  2  0  0  0
 28 29  1  0  0  0
 29 30  2  0  0  0
 28 31  1  0  0  0
 31 32  1  0  0  0
 31 33  1  0  0  0
 33 34  2  0  0  0
 33 35  1  0  0  0
 35 36  1  0  0  0
 36 37  1  0  0  0
 37 38  1  0  0  0
 38 39  1  0  0  0
 39 40  1  0  0  0
 39 41  1  0  0  0
 41 42  1  0  0  0
  6 13  1  0  0  0
 13 14  2  0  0  0
 14 15  1  0  0  0
 15 16  2  0  0  0
 16 17  1  0  0  0
 17 18  2  0  0  0
  5  7  1  0  0  0
  7  8  2  0  0  0
  7  9  1  0  0  0
  9 10  1  0  0  0
 10 11  2  0  0  0
 11  1  1  0  0  0
 10  4  1  0  0  0
 30 25  1  0  0  0
 42 36  1  0  0  0
 18 13  1  0  0  0
 23 24  1  0  0  0
  9 12  1  0  0  0
M  END
> <minimizedAffinity>
-7.55974

> <CNNscore>
0.1062474176

> <CNNaffinity>
6.1657018661

> <CNN_VS>
0.6550899148

> <CNNaffinity_variance>
0.3012421727

$$$$
[H]c1c([H])c([H])c(/C(=C2/C(=O)N([H])c3c([H])c(C(=O)OC([H])([H])[H])c([H])c([H])c32)N([H])c2c([H])c([H])c(N(C(=O)C([H])([H])N3C([H])([H])C([H])([H])N(C([H])([H])[H])C([H])([H])C3([H])[H])C([H])([H])[H])c([H])c2[H])c([H])c1[H]


 42 46  0  0  0  0  0  0  0  0999 V2000
  -84.6469   29.6074    1.2585 C   0  0  0  0  0  0  0  0  0  0  0  0
  -85.2618   30.4436    0.3782 C   0  0  0  0  0  0  0  0  0  0  0  0
  -86.5941   30.2698   -0.0145 C   0  0  0  0  0  0  0  0  0  0  0  0
  -87.2765   29.2109    0.5216 C   0  0  0  0  0  0  0  0  0  0  0  0
  -88.6505   28.7803    0.3362 C   0  0  0  0  0  0  0  0  0  0  0  0
  -89.5530   29.2352   -0.4914 C   0  0  0  0  0  0  0  0  0  0  0  0
  -88.8057   27.5837    1.2167 C   0  0  0  0  0  0  0  0  0  0  0  0
  -89.8276   26.9068    1.3632 O   0  0  0  0  0  0  0  0  0  0  0  0
  -87.5675   27.3477    1.8671 N   0  0  0  0  0  0  0  0  0  0  0  0
  -86.6619   28.3469    1.4258 C   0  0  0  0  0  0  0  0  0  0  0  0
  -85.3480   28.5481    1.7910 C   0  0  0  0  0  0  0  0  0  0  0  0
  -87.3488   26.5705    2.5576 H   0  0  0  0  0  0  0  0  0  0  0  0
  -89.3040   30.1856   -1.5307 C   0  0  0  0  0  0  0  0  0  0  0  0
  -88.6685   29.9477   -2.7270 C   0  0  0  0  0  0  0  0  0  0  0  0
  -88.3677   30.9448   -3.6193 C   0  0  0  0  0  0  0  0  0  0  0  0
  -88.7035   32.2400   -3.3304 C   0  0  0  0  0  0  0  0  0  0  0  0
  -89.3397   32.5321   -2.1488 C   0  0  0  0  0  0  0  0  0  0  0  0
  -89.6332   31.5282   -1.2691 C   0  0  0  0  0  0  0  0  0  0  0  0
  -83.2619   29.7650    1.6815 C   0  0  0  0  0  0  0  0  0  0  0  0
  -82.5847   28.8415    2.1728 O   0  0  0  0  0  0  0  0  0  0  0  0
  -82.3377   31.5505    0.2654 C   0  0  0  0  0  0  0  0  0  0  0  0
  -82.6856   31.0221    1.5187 O   0  0  0  0  0  0  0  0  0  0  0  0
  -90.8411   28.6361   -0.4535 N   0  0  0  0  0  0  0  0  0  0  0  0
  -91.3437   28.7396    0.4783 H   0  0  0  0  0  0  0  0  0  0  0  0
  -91.4468   27.9500   -1.5374 C   0  0  0  0  0  0  0  0  0  0  0  0
  -90.8533   26.8796   -2.1642 C   0  0  0  0  0  0  0  0  0  0  0  0
  -91.4807   26.2235   -3.2304 C   0  0  0  0  0  0  0  0  0  0  0  0
  -92.7117   26.6458   -3.6689 C   0  0  0  0  0  0  0  0  0  0  0  0
  -93.3058   27.7150   -3.0437 C   0  0  0  0  0  0  0  0  0  0  0  0
  -92.6813   28.3677   -1.9829 C   0  0  0  0  0  0  0  0  0  0  0  0
  -93.3606   25.9567   -4.7784 N   0  0  0  0  0  0  0  0  0  0  0  0
  -93.0562   26.5224   -6.0737 C   0  0  0  0  0  0  0  0  0  0  0  0
  -94.1484   24.8347   -4.5740 C   0  0  0  0  0  0  0  0  0  0  0  0
  -94.1140   24.3960   -3.3318 O   0  0  0  0  0  0  0  0  0  0  0  0
  -94.9992   24.0468   -5.4558 C   0  0  0  0  0  0  0  0  0  0  0  0
  -95.5281   22.8210   -5.0411 N   0  0  0  0  0  0  0  0  0  0  0  0
  -94.9015   22.1369   -3.9620 C   0  0  0  0  0  0  0  0  0  0  0  0
  -94.0887   20.9493   -4.4279 C   0  0  0  0  0  0  0  0  0  0  0  0
  -94.8313   20.0380   -5.2265 N   0  0  0  0  0  0  0  0  0  0  0  0
  -94.0683   19.1161   -5.9828 C   0  0  0  0  0  0  0  0  0  0  0  0
  -96.0221   20.5291   -5.8131 C   0  0  0  0  0  0  0  0  0  0  0  0
  -96.1516   21.9868   -6.0017 C   0  0  0  0  0  0  0  0  0  0  0  0
 21 22  1  0  0  0
 22 19  1  0  0  0
 19 20  2  0  0  0
 19  1  1  0  0  0
  1  2  2  0  0  0
  2  3  1  0  0  0
  3  4  2  0  0  0
  4  5  1  0  0  0
  5  6  2  0  0  0
  6 23  1  0  0  0
 23 25  1  0  0  0
 25 26  2  0  0  0
 26 27  1  0  0  0
 27 28  2  0  0  0
 28 29  1  0  0  0
 29 30  2  0  0  0
 28 31  1  0  0  0
 31 32  1  0  0  0
 31 33  1  0  0  0
 33 34  2  0  0  0
 33 35  1  0  0  0
 35 36  1  0  0  0
 36 37  1  0  0  0
 37 38  1  0  0  0
 38 39  1  0  0  0
 39 40  1  0  0  0
 39 41  1  0  0  0
 41 42  1  0  0  0
  6 13  1  0  0  0
 13 14  2  0  0  0
 14 15  1  0  0  0
 15 16  2  0  0  0
 16 17  1  0  0  0
 17 18  2  0  0  0
  5  7  1  0  0  0
  7  8  2  0  0  0
  7  9  1  0  0  0
  9 10  1  0  0  0
 10 11  2  0  0  0
 11  1  1  0  0  0
 10  4  1  0  0  0
 30 25  1  0  0  0
 42 36  1  0  0  0
 18 13  1  0  0  0
 23 24  1  0  0  0
  9 12  1  0  0  0
M  END
> <minimizedAffinity>
-8.14452

> <CNNscore>
0.0940933451

> <CNNaffinity>
5.9151763916

> <CNN_VS>
0.5565787554

> <CNNaffinity_variance>
0.3076424599

$$$$
[H]c1nc(N([H])c2c([H])c(OC([H])([H])[H])c(OC([H])([H])[H])c(OC([H])([H])[H])c2[H])nc(N([H])c2nc3c(c([H])c2[H])OC(C([H])([H])[H])(C([H])([H])[H])C(=O)N3[H])c1F


 37 40  0  0  0  0  0  0  0  0999 V2000
  -84.5716   32.6430   -0.0446 C   0  0  0  0  0  0  0  0  0  0  0  0
  -83.2423   32.5710   -0.1820 N   0  0  0  0  0  0  0  0  0  0  0  0
  -82.4601   31.6444    0.3755 C   0  0  0  0  0  0  0  0  0  0  0  0
  -83.0354   30.6841    1.1507 C   0  0  0  0  0  0  0  0  0  0  0  0
  -82.3673   29.6988    1.7669 F   0  0  0  0  0  0  0  0  0  0  0  0
  -84.4267   30.7041    1.3346 C   0  0  0  0  0  0  0  0  0  0  0  0
  -85.1214   31.6747    0.7329 N   0  0  0  0  0  0  0  0  0  0  0  0
  -85.4215   33.6051   -0.6184 N   0  0  0  0  0  0  0  0  0  0  0  0
  -85.1119   34.6221   -0.4820 H   0  0  0  0  0  0  0  0  0  0  0  0
  -88.8585   32.5204   -1.6353 C   0  0  0  0  0  0  0  0  0  0  0  0
  -87.7183   32.7546   -0.8532 C   0  0  0  0  0  0  0  0  0  0  0  0
  -86.6090   33.3536   -1.3305 C   0  0  0  0  0  0  0  0  0  0  0  0
  -86.6435   33.7463   -2.6837 C   0  0  0  0  0  0  0  0  0  0  0  0
  -87.7414   33.5329   -3.4757 C   0  0  0  0  0  0  0  0  0  0  0  0
  -88.8640   32.9163   -2.9608 C   0  0  0  0  0  0  0  0  0  0  0  0
  -89.8549   30.5659   -0.6490 C   0  0  0  0  0  0  0  0  0  0  0  0
  -89.9567   31.8993   -1.0715 O   0  0  0  0  0  0  0  0  0  0  0  0
  -87.7383   33.9285   -4.7873 O   0  0  0  0  0  0  0  0  0  0  0  0
  -87.7227   35.3069   -5.0946 C   0  0  0  0  0  0  0  0  0  0  0  0
  -90.0037   32.6773   -3.7259 O   0  0  0  0  0  0  0  0  0  0  0  0
  -90.0772   31.4559   -4.4494 C   0  0  0  0  0  0  0  0  0  0  0  0
  -85.0536   29.7185    2.1355 N   0  0  0  0  0  0  0  0  0  0  0  0
  -84.7834   29.6289    3.1242 H   0  0  0  0  0  0  0  0  0  0  0  0
  -86.0374   28.8800    1.5557 C   0  0  0  0  0  0  0  0  0  0  0  0
  -86.1861   28.8130    0.1625 C   0  0  0  0  0  0  0  0  0  0  0  0
  -87.1455   27.9945   -0.3870 C   0  0  0  0  0  0  0  0  0  0  0  0
  -87.9697   27.2331    0.4095 C   0  0  0  0  0  0  0  0  0  0  0  0
  -88.9475   26.3973   -0.1111 O   0  0  0  0  0  0  0  0  0  0  0  0
  -90.0658   25.9756    0.6546 C   0  0  0  0  0  0  0  0  0  0  0  0
  -90.6417   24.7104    0.0857 C   0  0  0  0  0  0  0  0  0  0  0  0
  -91.1012   27.0682    0.6983 C   0  0  0  0  0  0  0  0  0  0  0  0
  -89.6439   25.6816    2.0581 C   0  0  0  0  0  0  0  0  0  0  0  0
  -90.1584   24.7135    2.7000 O   0  0  0  0  0  0  0  0  0  0  0  0
  -88.6584   26.5241    2.6242 N   0  0  0  0  0  0  0  0  0  0  0  0
  -87.8144   27.3061    1.7931 C   0  0  0  0  0  0  0  0  0  0  0  0
  -86.8642   28.1194    2.2829 N   0  0  0  0  0  0  0  0  0  0  0  0
  -88.5626   26.5611    3.6556 H   0  0  0  0  0  0  0  0  0  0  0  0
 16 17  1  0  0  0
 17 10  1  0  0  0
 10 11  2  0  0  0
 11 12  1  0  0  0
 12  8  1  0  0  0
  8  1  1  0  0  0
  1  2  2  0  0  0
  2  3  1  0  0  0
  3  4  2  0  0  0
  4  5  1  0  0  0
  4  6  1  0  0  0
  6 22  1  0  0  0
 22 24  1  0  0  0
 24 25  2  0  0  0
 25 26  1  0  0  0
 26 27  2  0  0  0
 27 28  1  0  0  0
 28 29  1  0  0  0
 29 30  1  0  0  0
 29 31  1  0  0  0
 29 32  1  0  0  0
 32 33  2  0  0  0
 32 34  1  0  0  0
 34 35  1  0  0  0
 35 36  2  0  0  0
  6  7  2  0  0  0
 12 13  2  0  0  0
 13 14  1  0  0  0
 14 18  1  0  0  0
 18 19  1  0  0  0
 14 15  2  0  0  0
 15 20  1  0  0  0
 20 21  1  0  0  0
 15 10  1  0  0  0
  7  1  1  0  0  0
 36 24  1  0  0  0
 35 27  1  0  0  0
  8  9  1  0  0  0
 22 23  1  0  0  0
 34 37  1  0  0  0
M  END
> <minimizedAffinity>
-9.13332

> <CNNscore>
0.5525463223

> <CNNaffinity>
7.4508886337

> <CNN_VS>
4.1169610023

> <CNNaffinity_variance>
0.1391387880

$$$$
[H]c1nc(N([H])c2c([H])c(OC([H])([H])[H])c(OC([H])([H])[H])c(OC([H])([H])[H])c2[H])nc(N([H])c2nc3c(c([H])c2[H])OC(C([H])([H])[H])(C([H])([H])[H])C(=O)N3[H])c1F


 37 40  0  0  0  0  0  0  0  0999 V2000
  -84.6032   32.6712   -0.0465 C   0  0  0  0  0  0  0  0  0  0  0  0
  -83.2789   32.5814   -0.2181 N   0  0  0  0  0  0  0  0  0  0  0  0
  -82.4969   31.6374    0.3097 C   0  0  0  0  0  0  0  0  0  0  0  0
  -83.0667   30.6772    1.0890 C   0  0  0  0  0  0  0  0  0  0  0  0
  -82.3981   29.6756    1.6778 F   0  0  0  0  0  0  0  0  0  0  0  0
  -84.4526   30.7155    1.3082 C   0  0  0  0  0  0  0  0  0  0  0  0
  -85.1476   31.7026    0.7343 N   0  0  0  0  0  0  0  0  0  0  0  0
  -85.4528   33.6518   -0.5886 N   0  0  0  0  0  0  0  0  0  0  0  0
  -85.2152   34.6598   -0.3126 H   0  0  0  0  0  0  0  0  0  0  0  0
  -87.7999   33.5313   -3.5041 C   0  0  0  0  0  0  0  0  0  0  0  0
  -86.6534   33.7708   -2.7329 C   0  0  0  0  0  0  0  0  0  0  0  0
  -86.5563   33.4282   -1.4327 C   0  0  0  0  0  0  0  0  0  0  0  0
  -87.6843   32.8018   -0.8654 C   0  0  0  0  0  0  0  0  0  0  0  0
  -88.8201   32.5526   -1.5905 C   0  0  0  0  0  0  0  0  0  0  0  0
  -88.8923   32.9149   -2.9206 C   0  0  0  0  0  0  0  0  0  0  0  0
  -87.7535   35.2754   -5.1598 C   0  0  0  0  0  0  0  0  0  0  0  0
  -87.8211   33.9135   -4.8318 O   0  0  0  0  0  0  0  0  0  0  0  0
  -89.8973   31.9415   -1.0048 O   0  0  0  0  0  0  0  0  0  0  0  0
  -89.7378   30.6629   -0.4264 C   0  0  0  0  0  0  0  0  0  0  0  0
  -90.0247   32.6831   -3.6987 O   0  0  0  0  0  0  0  0  0  0  0  0
  -90.1319   31.4316   -4.3642 C   0  0  0  0  0  0  0  0  0  0  0  0
  -85.0738   29.7305    2.1142 N   0  0  0  0  0  0  0  0  0  0  0  0
  -84.8060   29.6501    3.1043 H   0  0  0  0  0  0  0  0  0  0  0  0
  -86.0489   28.8798    1.5374 C   0  0  0  0  0  0  0  0  0  0  0  0
  -86.1918   28.8006    0.1442 C   0  0  0  0  0  0  0  0  0  0  0  0
  -87.1427   27.9703   -0.4024 C   0  0  0  0  0  0  0  0  0  0  0  0
  -87.9639   27.2089    0.3971 C   0  0  0  0  0  0  0  0  0  0  0  0
  -88.9332   26.3613   -0.1205 O   0  0  0  0  0  0  0  0  0  0  0  0
  -90.0511   25.9370    0.6443 C   0  0  0  0  0  0  0  0  0  0  0  0
  -90.6150   24.6628    0.0834 C   0  0  0  0  0  0  0  0  0  0  0  0
  -91.0951   27.0217    0.6755 C   0  0  0  0  0  0  0  0  0  0  0  0
  -89.6322   25.6574    2.0517 C   0  0  0  0  0  0  0  0  0  0  0  0
  -90.1416   24.6903    2.6993 O   0  0  0  0  0  0  0  0  0  0  0  0
  -88.6555   26.5119    2.6148 N   0  0  0  0  0  0  0  0  0  0  0  0
  -87.8145   27.2939    1.7806 C   0  0  0  0  0  0  0  0  0  0  0  0
  -86.8725   28.1184    2.2674 N   0  0  0  0  0  0  0  0  0  0  0  0
  -88.5638   26.5579    3.6461 H   0  0  0  0  0  0  0  0  0  0  0  0
 16 17  1  0  0  0
 17 10  1  0  0  0
 10 11  2  0  0  0
 11 12  1  0  0  0
 12  8  1  0  0  0
  8  1  1  0  0  0
  1  2  2  0  0  0
  2  3  1  0  0  0
  3  4  2  0  0  0
  4  5  1  0  0  0
  4  6  1  0  0  0
  6 22  1  0  0  0
 22 24  1  0  0  0
 24 25  2  0  0  0
 25 26  1  0  0  0
 26 27  2  0  0  0
 27 28  1  0  0  0
 28 29  1  0  0  0
 29 30  1  0  0  0
 29 31  1  0  0  0
 29 32  1  0  0  0
 32 33  2  0  0  0
 32 34  1  0  0  0
 34 35  1  0  0  0
 35 36  2  0  0  0
  6  7  2  0  0  0
 12 13  2  0  0  0
 13 14  1  0  0  0
 14 18  1  0  0  0
 18 19  1  0  0  0
 14 15  2  0  0  0
 15 20  1  0  0  0
 20 21  1  0  0  0
 15 10  1  0  0  0
  7  1  1  0  0  0
 36 24  1  0  0  0
 35 27  1  0  0  0
  8  9  1  0  0  0
 22 23  1  0  0  0
 34 37  1  0  0  0
M  END
> <minimizedAffinity>
-9.14555

> <CNNscore>
0.5229586959

> <CNNaffinity>
7.4070014954

> <CNN_VS>
3.8735558987

> <CNNaffinity_variance>
0.1384578496

$$$$
[H]c1nc(N([H])c2c([H])c(OC([H])([H])[H])c(OC([H])([H])[H])c(OC([H])([H])[H])c2[H])nc(N([H])c2nc3c(c([H])c2[H])OC(C([H])([H])[H])(C([H])([H])[H])C(=O)N3[H])c1F


 37 40  0  0  0  0  0  0  0  0999 V2000
  -85.3685   27.6413    2.0281 C   0  0  0  0  0  0  0  0  0  0  0  0
  -84.1815   27.1772    2.4365 N   0  0  0  0  0  0  0  0  0  0  0  0
  -83.0472   27.8802    2.4600 C   0  0  0  0  0  0  0  0  0  0  0  0
  -83.0722   29.1752    2.0402 C   0  0  0  0  0  0  0  0  0  0  0  0
  -82.0078   29.9895    2.0127 F   0  0  0  0  0  0  0  0  0  0  0  0
  -84.2872   29.7221    1.5990 C   0  0  0  0  0  0  0  0  0  0  0  0
  -85.3674   28.9348    1.6144 N   0  0  0  0  0  0  0  0  0  0  0  0
  -86.5791   26.9268    1.9918 N   0  0  0  0  0  0  0  0  0  0  0  0
  -86.6177   26.0682    2.6320 H   0  0  0  0  0  0  0  0  0  0  0  0
  -88.9305   27.5725   -0.8503 C   0  0  0  0  0  0  0  0  0  0  0  0
  -87.7700   27.2353   -0.1391 C   0  0  0  0  0  0  0  0  0  0  0  0
  -87.7070   27.2319    1.2075 C   0  0  0  0  0  0  0  0  0  0  0  0
  -88.8874   27.5900    1.8894 C   0  0  0  0  0  0  0  0  0  0  0  0
  -90.0387   27.9244    1.2254 C   0  0  0  0  0  0  0  0  0  0  0  0
  -90.0746   27.9201   -0.1546 C   0  0  0  0  0  0  0  0  0  0  0  0
  -88.3132   28.6093   -2.9310 C   0  0  0  0  0  0  0  0  0  0  0  0
  -88.9140   27.5524   -2.2319 O   0  0  0  0  0  0  0  0  0  0  0  0
  -91.1672   28.2672    1.9223 O   0  0  0  0  0  0  0  0  0  0  0  0
  -91.0876   28.4543    3.3199 C   0  0  0  0  0  0  0  0  0  0  0  0
  -91.2204   28.2527   -0.8742 O   0  0  0  0  0  0  0  0  0  0  0  0
  -92.0653   27.1955   -1.3089 C   0  0  0  0  0  0  0  0  0  0  0  0
  -84.3445   31.0661    1.1564 N   0  0  0  0  0  0  0  0  0  0  0  0
  -83.6147   31.7255    1.4584 H   0  0  0  0  0  0  0  0  0  0  0  0
  -85.4054   31.4700    0.3087 C   0  0  0  0  0  0  0  0  0  0  0  0
  -86.6718   30.8770    0.4193 C   0  0  0  0  0  0  0  0  0  0  0  0
  -87.6929   31.2789   -0.4102 C   0  0  0  0  0  0  0  0  0  0  0  0
  -87.4955   32.2597   -1.3548 C   0  0  0  0  0  0  0  0  0  0  0  0
  -88.5028   32.6889   -2.2075 O   0  0  0  0  0  0  0  0  0  0  0  0
  -88.2237   33.3338   -3.4408 C   0  0  0  0  0  0  0  0  0  0  0  0
  -89.4047   34.1496   -3.8830 C   0  0  0  0  0  0  0  0  0  0  0  0
  -87.8523   32.3124   -4.4832 C   0  0  0  0  0  0  0  0  0  0  0  0
  -87.0702   34.2706   -3.2793 C   0  0  0  0  0  0  0  0  0  0  0  0
  -87.0509   35.3855   -3.8880 O   0  0  0  0  0  0  0  0  0  0  0  0
  -86.0191   33.8571   -2.4275 N   0  0  0  0  0  0  0  0  0  0  0  0
  -86.2336   32.8434   -1.4574 C   0  0  0  0  0  0  0  0  0  0  0  0
  -85.2684   32.4180   -0.6258 N   0  0  0  0  0  0  0  0  0  0  0  0
  -85.0899   34.3060   -2.5233 H   0  0  0  0  0  0  0  0  0  0  0  0
 16 17  1  0  0  0
 17 10  1  0  0  0
 10 11  2  0  0  0
 11 12  1  0  0  0
 12  8  1  0  0  0
  8  1  1  0  0  0
  1  2  2  0  0  0
  2  3  1  0  0  0
  3  4  2  0  0  0
  4  5  1  0  0  0
  4  6  1  0  0  0
  6 22  1  0  0  0
 22 24  1  0  0  0
 24 25  2  0  0  0
 25 26  1  0  0  0
 26 27  2  0  0  0
 27 28  1  0  0  0
 28 29  1  0  0  0
 29 30  1  0  0  0
 29 31  1  0  0  0
 29 32  1  0  0  0
 32 33  2  0  0  0
 32 34  1  0  0  0
 34 35  1  0  0  0
 35 36  2  0  0  0
  6  7  2  0  0  0
 12 13  2  0  0  0
 13 14  1  0  0  0
 14 18  1  0  0  0
 18 19  1  0  0  0
 14 15  2  0  0  0
 15 20  1  0  0  0
 20 21  1  0  0  0
 15 10  1  0  0  0
  7  1  1  0  0  0
 36 24  1  0  0  0
 35 27  1  0  0  0
  8  9  1  0  0  0
 22 23  1  0  0  0
 34 37  1  0  0  0
M  END
> <minimizedAffinity>
-9.20078

> <CNNscore>
0.5077290535

> <CNNaffinity>
7.4048414230

> <CNN_VS>
3.7596530914

> <CNNaffinity_variance>
0.1549968272

$$$$
[H]c1nc(N([H])c2c([H])c(OC([H])([H])[H])c(OC([H])([H])[H])c(OC([H])([H])[H])c2[H])nc(N([H])c2nc3c(c([H])c2[H])OC(C([H])([H])[H])(C([H])([H])[H])C(=O)N3[H])c1F


 37 40  0  0  0  0  0  0  0  0999 V2000
  -84.9072   31.8389    0.3553 C   0  0  0  0  0  0  0  0  0  0  0  0
  -83.6117   32.0848    0.5849 N   0  0  0  0  0  0  0  0  0  0  0  0
  -82.7469   31.2190    1.1176 C   0  0  0  0  0  0  0  0  0  0  0  0
  -83.1924   29.9799    1.4642 C   0  0  0  0  0  0  0  0  0  0  0  0
  -82.4311   29.0190    2.0064 F   0  0  0  0  0  0  0  0  0  0  0  0
  -84.5418   29.6593    1.2489 C   0  0  0  0  0  0  0  0  0  0  0  0
  -85.3270   30.5968    0.7093 N   0  0  0  0  0  0  0  0  0  0  0  0
  -85.8417   32.7286   -0.2037 N   0  0  0  0  0  0  0  0  0  0  0  0
  -85.8338   33.7154    0.2142 H   0  0  0  0  0  0  0  0  0  0  0  0
  -88.5414   31.2113   -2.3093 C   0  0  0  0  0  0  0  0  0  0  0  0
  -87.6719   31.4474   -1.2347 C   0  0  0  0  0  0  0  0  0  0  0  0
  -86.7602   32.4404   -1.2302 C   0  0  0  0  0  0  0  0  0  0  0  0
  -86.7164   33.2540   -2.3803 C   0  0  0  0  0  0  0  0  0  0  0  0
  -87.5517   33.0512   -3.4476 C   0  0  0  0  0  0  0  0  0  0  0  0
  -88.4757   32.0258   -3.4255 C   0  0  0  0  0  0  0  0  0  0  0  0
  -90.5319   30.2599   -1.3511 C   0  0  0  0  0  0  0  0  0  0  0  0
  -89.4484   30.1713   -2.2371 O   0  0  0  0  0  0  0  0  0  0  0  0
  -87.4800   33.8627   -4.5490 O   0  0  0  0  0  0  0  0  0  0  0  0
  -87.4185   35.2629   -4.3743 C   0  0  0  0  0  0  0  0  0  0  0  0
  -89.3457   31.7797   -4.4857 O   0  0  0  0  0  0  0  0  0  0  0  0
  -90.5895   32.4677   -4.5013 C   0  0  0  0  0  0  0  0  0  0  0  0
  -85.0344   28.3785    1.5992 N   0  0  0  0  0  0  0  0  0  0  0  0
  -84.4236   27.7291    2.1128 H   0  0  0  0  0  0  0  0  0  0  0  0
  -86.3561   28.0227    1.2338 C   0  0  0  0  0  0  0  0  0  0  0  0
  -87.3596   27.9108    2.2075 C   0  0  0  0  0  0  0  0  0  0  0  0
  -88.6388   27.5645    1.8385 C   0  0  0  0  0  0  0  0  0  0  0  0
  -88.9568   27.3236    0.5216 C   0  0  0  0  0  0  0  0  0  0  0  0
  -90.2362   26.9723    0.1146 O   0  0  0  0  0  0  0  0  0  0  0  0
  -90.4798   26.2969   -1.1098 C   0  0  0  0  0  0  0  0  0  0  0  0
  -91.8968   26.5181   -1.5559 C   0  0  0  0  0  0  0  0  0  0  0  0
  -90.1855   24.8282   -0.9549 C   0  0  0  0  0  0  0  0  0  0  0  0
  -89.5863   26.8374   -2.1794 C   0  0  0  0  0  0  0  0  0  0  0  0
  -90.0069   26.9658   -3.3713 O   0  0  0  0  0  0  0  0  0  0  0  0
  -88.2702   27.1921   -1.8007 N   0  0  0  0  0  0  0  0  0  0  0  0
  -87.9530   27.4373   -0.4391 C   0  0  0  0  0  0  0  0  0  0  0  0
  -86.7195   27.7778   -0.0307 N   0  0  0  0  0  0  0  0  0  0  0  0
  -87.5413   27.2702   -2.5334 H   0  0  0  0  0  0  0  0  0  0  0  0
 16 17  1  0  0  0
 17 10  1  0  0  0
 10 11  2  0  0  0
 11 12  1  0  0  0
 12  8  1  0  0  0
  8  1  1  0  0  0
  1  2  2  0  0  0
  2  3  1  0  0  0
  3  4  2  0  0  0
  4  5  1  0  0  0
  4  6  1  0  0  0
  6 22  1  0  0  0
 22 24  1  0  0  0
 24 25  2  0  0  0
 25 26  1  0  0  0
 26 27  2  0  0  0
 27 28  1  0  0  0
 28 29  1  0  0  0
 29 30  1  0  0  0
 29 31  1  0  0  0
 29 32  1  0  0  0
 32 33  2  0  0  0
 32 34  1  0  0  0
 34 35  1  0  0  0
 35 36  2  0  0  0
  6  7  2  0  0  0
 12 13  2  0  0  0
 13 14  1  0  0  0
 14 18  1  0  0  0
 18 19  1  0  0  0
 14 15  2  0  0  0
 15 20  1  0  0  0
 20 21  1  0  0  0
 15 10  1  0  0  0
  7  1  1  0  0  0
 36 24  1  0  0  0
 35 27  1  0  0  0
  8  9  1  0  0  0
 22 23  1  0  0  0
 34 37  1  0  0  0
M  END
> <minimizedAffinity>
-8.66957

> <CNNscore>
0.4759682119

> <CNNaffinity>
7.3327651024

> <CNN_VS>
3.4901630878

> <CNNaffinity_variance>
0.2520435154

$$$$
[H]c1nc(N([H])c2c([H])c(OC([H])([H])[H])c(OC([H])([H])[H])c(OC([H])([H])[H])c2[H])nc(N([H])c2nc3c(c([H])c2[H])OC(C([H])([H])[H])(C([H])([H])[H])C(=O)N3[H])c1F


 37 40  0  0  0  0  0  0  0  0999 V2000
  -84.9505   31.7293    0.6145 C   0  0  0  0  0  0  0  0  0  0  0  0
  -83.6368   31.9166    0.7892 N   0  0  0  0  0  0  0  0  0  0  0  0
  -82.7862   31.0047    1.2650 C   0  0  0  0  0  0  0  0  0  0  0  0
  -83.2676   29.7780    1.6075 C   0  0  0  0  0  0  0  0  0  0  0  0
  -82.5240   28.7751    2.0957 F   0  0  0  0  0  0  0  0  0  0  0  0
  -84.6376   29.5180    1.4480 C   0  0  0  0  0  0  0  0  0  0  0  0
  -85.4060   30.4984    0.9632 N   0  0  0  0  0  0  0  0  0  0  0  0
  -85.8708   32.6685    0.1161 N   0  0  0  0  0  0  0  0  0  0  0  0
  -85.9793   33.5548    0.7087 H   0  0  0  0  0  0  0  0  0  0  0  0
  -87.4112   33.1748   -3.2594 C   0  0  0  0  0  0  0  0  0  0  0  0
  -86.5938   33.3527   -2.1340 C   0  0  0  0  0  0  0  0  0  0  0  0
  -86.6400   32.5449   -1.0558 C   0  0  0  0  0  0  0  0  0  0  0  0
  -87.5678   31.4851   -1.1080 C   0  0  0  0  0  0  0  0  0  0  0  0
  -88.3811   31.2825   -2.1922 C   0  0  0  0  0  0  0  0  0  0  0  0
  -88.3130   32.1260   -3.2829 C   0  0  0  0  0  0  0  0  0  0  0  0
  -87.2826   35.4294   -4.0874 C   0  0  0  0  0  0  0  0  0  0  0  0
  -87.3038   34.0475   -4.3254 O   0  0  0  0  0  0  0  0  0  0  0  0
  -89.2711   30.2411   -2.2072 O   0  0  0  0  0  0  0  0  0  0  0  0
  -90.4625   30.3380   -1.4550 C   0  0  0  0  0  0  0  0  0  0  0  0
  -89.1188   31.9612   -4.4076 O   0  0  0  0  0  0  0  0  0  0  0  0
  -90.3677   32.6394   -4.4385 C   0  0  0  0  0  0  0  0  0  0  0  0
  -85.1676   28.2515    1.7957 N   0  0  0  0  0  0  0  0  0  0  0  0
  -84.5935   27.6023    2.3503 H   0  0  0  0  0  0  0  0  0  0  0  0
  -86.4752   27.9093    1.3711 C   0  0  0  0  0  0  0  0  0  0  0  0
  -87.5090   27.7482    2.3053 C   0  0  0  0  0  0  0  0  0  0  0  0
  -88.7740   27.4158    1.8791 C   0  0  0  0  0  0  0  0  0  0  0  0
  -89.0483   27.2367    0.5427 C   0  0  0  0  0  0  0  0  0  0  0  0
  -90.3122   26.9012    0.0781 O   0  0  0  0  0  0  0  0  0  0  0  0
  -90.5131   26.2839   -1.1841 C   0  0  0  0  0  0  0  0  0  0  0  0
  -91.9160   26.5216   -1.6649 C   0  0  0  0  0  0  0  0  0  0  0  0
  -90.2171   24.8104   -1.0895 C   0  0  0  0  0  0  0  0  0  0  0  0
  -89.5881   26.8774   -2.1973 C   0  0  0  0  0  0  0  0  0  0  0  0
  -89.9706   27.0609   -3.3948 O   0  0  0  0  0  0  0  0  0  0  0  0
  -88.2866   27.2179   -1.7598 N   0  0  0  0  0  0  0  0  0  0  0  0
  -88.0146   27.3990   -0.3786 C   0  0  0  0  0  0  0  0  0  0  0  0
  -86.7965   27.7236    0.0853 N   0  0  0  0  0  0  0  0  0  0  0  0
  -87.5348   27.3329   -2.4640 H   0  0  0  0  0  0  0  0  0  0  0  0
 16 17  1  0  0  0
 17 10  1  0  0  0
 10 11  2  0  0  0
 11 12  1  0  0  0
 12  8  1  0  0  0
  8  1  1  0  0  0
  1  2  2  0  0  0
  2  3  1  0  0  0
  3  4  2  0  0  0
  4  5  1  0  0  0
  4  6  1  0  0  0
  6 22  1  0  0  0
 22 24  1  0  0  0
 24 25  2  0  0  0
 25 26  1  0  0  0
 26 27  2  0  0  0
 27 28  1  0  0  0
 28 29  1  0  0  0
 29 30  1  0  0  0
 29 31  1  0  0  0
 29 32  1  0  0  0
 32 33  2  0  0  0
 32 34  1  0  0  0
 34 35  1  0  0  0
 35 36  2  0  0  0
  6  7  2  0  0  0
 12 13  2  0  0  0
 13 14  1  0  0  0
 14 18  1  0  0  0
 18 19  1  0  0  0
 14 15  2  0  0  0
 15 20  1  0  0  0
 20 21  1  0  0  0
 15 10  1  0  0  0
  7  1  1  0  0  0
 36 24  1  0  0  0
 35 27  1  0  0  0
  8  9  1  0  0  0
 22 23  1  0  0  0
 34 37  1  0  0  0
M  END
> <minimizedAffinity>
-8.64746

> <CNNscore>
0.4200631380

> <CNNaffinity>
7.2787232399

> <CNN_VS>
3.0575232506

> <CNNaffinity_variance>
0.2634187043

$$$$
[H]c1nc(N([H])c2c([H])c(OC([H])([H])[H])c(OC([H])([H])[H])c(OC([H])([H])[H])c2[H])nc(N([H])c2nc3c(c([H])c2[H])OC(C([H])([H])[H])(C([H])([H])[H])C(=O)N3[H])c1F


 37 40  0  0  0  0  0  0  0  0999 V2000
  -85.1415   29.2867    2.0868 C   0  0  0  0  0  0  0  0  0  0  0  0
  -83.8622   28.8999    2.1578 N   0  0  0  0  0  0  0  0  0  0  0  0
  -82.8202   29.6010    1.7061 C   0  0  0  0  0  0  0  0  0  0  0  0
  -83.0495   30.8095    1.1222 C   0  0  0  0  0  0  0  0  0  0  0  0
  -82.0960   31.6118    0.6281 F   0  0  0  0  0  0  0  0  0  0  0  0
  -84.3703   31.2725    1.0169 C   0  0  0  0  0  0  0  0  0  0  0  0
  -85.3440   30.4948    1.5004 N   0  0  0  0  0  0  0  0  0  0  0  0
  -86.2592   28.5719    2.5529 N   0  0  0  0  0  0  0  0  0  0  0  0
  -86.3254   28.4792    3.6186 H   0  0  0  0  0  0  0  0  0  0  0  0
  -88.9311   26.3250    1.1980 C   0  0  0  0  0  0  0  0  0  0  0  0
  -87.9556   26.8621    2.0502 C   0  0  0  0  0  0  0  0  0  0  0  0
  -87.2640   27.9831    1.7631 C   0  0  0  0  0  0  0  0  0  0  0  0
  -87.5707   28.6104    0.5387 C   0  0  0  0  0  0  0  0  0  0  0  0
  -88.5184   28.1125   -0.3169 C   0  0  0  0  0  0  0  0  0  0  0  0
  -89.2112   26.9619    0.0023 C   0  0  0  0  0  0  0  0  0  0  0  0
  -90.1820   25.0848    2.8359 C   0  0  0  0  0  0  0  0  0  0  0  0
  -89.5963   25.1706    1.5645 O   0  0  0  0  0  0  0  0  0  0  0  0
  -88.7897   28.7498   -1.4989 O   0  0  0  0  0  0  0  0  0  0  0  0
  -87.7681   28.8804   -2.4653 C   0  0  0  0  0  0  0  0  0  0  0  0
  -90.1829   26.4171   -0.8346 O   0  0  0  0  0  0  0  0  0  0  0  0
  -91.5271   26.8469   -0.6641 C   0  0  0  0  0  0  0  0  0  0  0  0
  -84.6401   32.5255    0.4144 N   0  0  0  0  0  0  0  0  0  0  0  0
  -84.0145   33.3195    0.6061 H   0  0  0  0  0  0  0  0  0  0  0  0
  -85.7648   32.6550   -0.4372 C   0  0  0  0  0  0  0  0  0  0  0  0
  -87.0077   32.1231   -0.0630 C   0  0  0  0  0  0  0  0  0  0  0  0
  -88.0914   32.2562   -0.8997 C   0  0  0  0  0  0  0  0  0  0  0  0
  -87.9801   32.9064   -2.1073 C   0  0  0  0  0  0  0  0  0  0  0  0
  -89.0522   33.0586   -2.9752 O   0  0  0  0  0  0  0  0  0  0  0  0
  -88.8719   33.3014   -4.3620 C   0  0  0  0  0  0  0  0  0  0  0  0
  -90.0976   33.9460   -4.9435 C   0  0  0  0  0  0  0  0  0  0  0  0
  -88.5506   32.0132   -5.0727 C   0  0  0  0  0  0  0  0  0  0  0  0
  -87.7304   34.2432   -4.5728 C   0  0  0  0  0  0  0  0  0  0  0  0
  -87.7767   35.1226   -5.4885 O   0  0  0  0  0  0  0  0  0  0  0  0
  -86.6150   34.1057   -3.7136 N   0  0  0  0  0  0  0  0  0  0  0  0
  -86.7409   33.4319   -2.4707 C   0  0  0  0  0  0  0  0  0  0  0  0
  -85.7123   33.2770   -1.6210 N   0  0  0  0  0  0  0  0  0  0  0  0
  -85.7043   34.5048   -4.0062 H   0  0  0  0  0  0  0  0  0  0  0  0
 16 17  1  0  0  0
 17 10  1  0  0  0
 10 11  2  0  0  0
 11 12  1  0  0  0
 12  8  1  0  0  0
  8  1  1  0  0  0
  1  2  2  0  0  0
  2  3  1  0  0  0
  3  4  2  0  0  0
  4  5  1  0  0  0
  4  6  1  0  0  0
  6 22  1  0  0  0
 22 24  1  0  0  0
 24 25  2  0  0  0
 25 26  1  0  0  0
 26 27  2  0  0  0
 27 28  1  0  0  0
 28 29  1  0  0  0
 29 30  1  0  0  0
 29 31  1  0  0  0
 29 32  1  0  0  0
 32 33  2  0  0  0
 32 34  1  0  0  0
 34 35  1  0  0  0
 35 36  2  0  0  0
  6  7  2  0  0  0
 12 13  2  0  0  0
 13 14  1  0  0  0
 14 18  1  0  0  0
 18 19  1  0  0  0
 14 15  2  0  0  0
 15 20  1  0  0  0
 20 21  1  0  0  0
 15 10  1  0  0  0
  7  1  1  0  0  0
 36 24  1  0  0  0
 35 27  1  0  0  0
  8  9  1  0  0  0
 22 23  1  0  0  0
 34 37  1  0  0  0
M  END
> <minimizedAffinity>
-9.04159

> <CNNscore>
0.3961588740

> <CNNaffinity>
7.3956580162

> <CNN_VS>
2.9298555851

> <CNNaffinity_variance>
0.2291478664

$$$$
[H]c1nc(N([H])c2c([H])c(OC([H])([H])[H])c(OC([H])([H])[H])c(OC([H])([H])[H])c2[H])nc(N([H])c2nc3c(c([H])c2[H])OC(C([H])([H])[H])(C([H])([H])[H])C(=O)N3[H])c1F


 37 40  0  0  0  0  0  0  0  0999 V2000
  -85.5125   27.4609    2.1013 C   0  0  0  0  0  0  0  0  0  0  0  0
  -84.2550   27.0695    2.3393 N   0  0  0  0  0  0  0  0  0  0  0  0
  -83.1897   27.8734    2.3594 C   0  0  0  0  0  0  0  0  0  0  0  0
  -83.3691   29.2020    2.1219 C   0  0  0  0  0  0  0  0  0  0  0  0
  -82.3879   30.1153    2.1127 F   0  0  0  0  0  0  0  0  0  0  0  0
  -84.6649   29.6765    1.8652 C   0  0  0  0  0  0  0  0  0  0  0  0
  -85.6653   28.7899    1.8675 N   0  0  0  0  0  0  0  0  0  0  0  0
  -86.6536   26.6397    2.0736 N   0  0  0  0  0  0  0  0  0  0  0  0
  -86.5672   25.7253    2.6259 H   0  0  0  0  0  0  0  0  0  0  0  0
  -89.3114   27.0939   -0.5252 C   0  0  0  0  0  0  0  0  0  0  0  0
  -88.0820   26.7871    0.0757 C   0  0  0  0  0  0  0  0  0  0  0  0
  -87.8599   26.9068    1.3999 C   0  0  0  0  0  0  0  0  0  0  0  0
  -88.9434   27.3642    2.1766 C   0  0  0  0  0  0  0  0  0  0  0  0
  -90.1580   27.6724    1.6217 C   0  0  0  0  0  0  0  0  0  0  0  0
  -90.3573   27.5411    0.2620 C   0  0  0  0  0  0  0  0  0  0  0  0
  -90.0557   25.7819   -2.3987 C   0  0  0  0  0  0  0  0  0  0  0  0
  -89.4591   26.9452   -1.8910 O   0  0  0  0  0  0  0  0  0  0  0  0
  -91.1885   28.1143    2.4087 O   0  0  0  0  0  0  0  0  0  0  0  0
  -90.9735   28.2972    3.7925 C   0  0  0  0  0  0  0  0  0  0  0  0
  -91.5732   27.8421   -0.3484 O   0  0  0  0  0  0  0  0  0  0  0  0
  -91.7457   29.1478   -0.8834 C   0  0  0  0  0  0  0  0  0  0  0  0
  -84.8829   31.0532    1.6146 N   0  0  0  0  0  0  0  0  0  0  0  0
  -84.5315   31.7476    2.2876 H   0  0  0  0  0  0  0  0  0  0  0  0
  -85.5796   31.4407    0.4435 C   0  0  0  0  0  0  0  0  0  0  0  0
  -85.3186   32.6771   -0.1654 C   0  0  0  0  0  0  0  0  0  0  0  0
  -86.0025   33.0406   -1.3022 C   0  0  0  0  0  0  0  0  0  0  0  0
  -86.9459   32.2083   -1.8595 C   0  0  0  0  0  0  0  0  0  0  0  0
  -87.6540   32.5432   -3.0050 O   0  0  0  0  0  0  0  0  0  0  0  0
  -88.9005   31.9439   -3.3240 C   0  0  0  0  0  0  0  0  0  0  0  0
  -89.1720   32.0547   -4.7971 C   0  0  0  0  0  0  0  0  0  0  0  0
  -90.0011   32.5871   -2.5223 C   0  0  0  0  0  0  0  0  0  0  0  0
  -88.8708   30.4885   -2.9844 C   0  0  0  0  0  0  0  0  0  0  0  0
  -89.4557   29.6383   -3.7253 O   0  0  0  0  0  0  0  0  0  0  0  0
  -88.1689   30.1144   -1.8145 N   0  0  0  0  0  0  0  0  0  0  0  0
  -87.1985   30.9814   -1.2475 C   0  0  0  0  0  0  0  0  0  0  0  0
  -86.5059   30.6706   -0.1394 N   0  0  0  0  0  0  0  0  0  0  0  0
  -88.3746   29.1972   -1.3779 H   0  0  0  0  0  0  0  0  0  0  0  0
 16 17  1  0  0  0
 17 10  1  0  0  0
 10 11  2  0  0  0
 11 12  1  0  0  0
 12  8  1  0  0  0
  8  1  1  0  0  0
  1  2  2  0  0  0
  2  3  1  0  0  0
  3  4  2  0  0  0
  4  5  1  0  0  0
  4  6  1  0  0  0
  6 22  1  0  0  0
 22 24  1  0  0  0
 24 25  2  0  0  0
 25 26  1  0  0  0
 26 27  2  0  0  0
 27 28  1  0  0  0
 28 29  1  0  0  0
 29 30  1  0  0  0
 29 31  1  0  0  0
 29 32  1  0  0  0
 32 33  2  0  0  0
 32 34  1  0  0  0
 34 35  1  0  0  0
 35 36  2  0  0  0
  6  7  2  0  0  0
 12 13  2  0  0  0
 13 14  1  0  0  0
 14 18  1  0  0  0
 18 19  1  0  0  0
 14 15  2  0  0  0
 15 20  1  0  0  0
 20 21  1  0  0  0
 15 10  1  0  0  0
  7  1  1  0  0  0
 36 24  1  0  0  0
 35 27  1  0  0  0
  8  9  1  0  0  0
 22 23  1  0  0  0
 34 37  1  0  0  0
M  END
> <minimizedAffinity>
-8.84709

> <CNNscore>
0.3905600905

> <CNNaffinity>
7.1504135132

> <CNN_VS>
2.7926661968

> <CNNaffinity_variance>
0.1691534221

$$$$
[H]c1nc(N([H])c2c([H])c(OC([H])([H])[H])c(OC([H])([H])[H])c(OC([H])([H])[H])c2[H])nc(N([H])c2nc3c(c([H])c2[H])OC(C([H])([H])[H])(C([H])([H])[H])C(=O)N3[H])c1F


 37 40  0  0  0  0  0  0  0  0999 V2000
  -85.1053   29.1503    1.6356 C   0  0  0  0  0  0  0  0  0  0  0  0
  -83.8387   28.8364    1.9333 N   0  0  0  0  0  0  0  0  0  0  0  0
  -82.7834   29.6303    1.7399 C   0  0  0  0  0  0  0  0  0  0  0  0
  -82.9838   30.8631    1.1978 C   0  0  0  0  0  0  0  0  0  0  0  0
  -82.0144   31.7557    0.9518 F   0  0  0  0  0  0  0  0  0  0  0  0
  -84.2899   31.2530    0.8631 C   0  0  0  0  0  0  0  0  0  0  0  0
  -85.2790   30.3846    1.0965 N   0  0  0  0  0  0  0  0  0  0  0  0
  -86.2363   28.3372    1.8274 N   0  0  0  0  0  0  0  0  0  0  0  0
  -86.4782   28.1317    2.8510 H   0  0  0  0  0  0  0  0  0  0  0  0
  -88.0864   27.6804   -1.3616 C   0  0  0  0  0  0  0  0  0  0  0  0
  -87.2403   28.2809   -0.4182 C   0  0  0  0  0  0  0  0  0  0  0  0
  -87.0493   27.7844    0.8205 C   0  0  0  0  0  0  0  0  0  0  0  0
  -87.7530   26.6048    1.1365 C   0  0  0  0  0  0  0  0  0  0  0  0
  -88.5873   25.9922    0.2383 C   0  0  0  0  0  0  0  0  0  0  0  0
  -88.7648   26.5231   -1.0236 C   0  0  0  0  0  0  0  0  0  0  0  0
  -89.0306   29.3933   -2.7615 C   0  0  0  0  0  0  0  0  0  0  0  0
  -88.2293   28.2521   -2.6114 O   0  0  0  0  0  0  0  0  0  0  0  0
  -89.2550   24.8462    0.5812 O   0  0  0  0  0  0  0  0  0  0  0  0
  -90.3205   24.9161    1.5056 C   0  0  0  0  0  0  0  0  0  0  0  0
  -89.6020   25.9372   -1.9708 O   0  0  0  0  0  0  0  0  0  0  0  0
  -90.9777   26.2951   -1.9574 C   0  0  0  0  0  0  0  0  0  0  0  0
  -84.5297   32.5291    0.2977 N   0  0  0  0  0  0  0  0  0  0  0  0
  -83.8686   33.2943    0.4873 H   0  0  0  0  0  0  0  0  0  0  0  0
  -85.6742   32.7210   -0.5150 C   0  0  0  0  0  0  0  0  0  0  0  0
  -86.9290   32.2487   -0.1026 C   0  0  0  0  0  0  0  0  0  0  0  0
  -88.0319   32.4420   -0.9017 C   0  0  0  0  0  0  0  0  0  0  0  0
  -87.9283   33.0953   -2.1082 C   0  0  0  0  0  0  0  0  0  0  0  0
  -89.0197   33.3074   -2.9388 O   0  0  0  0  0  0  0  0  0  0  0  0
  -88.8736   33.5518   -4.3293 C   0  0  0  0  0  0  0  0  0  0  0  0
  -90.0842   34.2611   -4.8654 C   0  0  0  0  0  0  0  0  0  0  0  0
  -88.6408   32.2548   -5.0583 C   0  0  0  0  0  0  0  0  0  0  0  0
  -87.6941   34.4373   -4.5725 C   0  0  0  0  0  0  0  0  0  0  0  0
  -87.7268   35.3251   -5.4806 O   0  0  0  0  0  0  0  0  0  0  0  0
  -86.5590   34.2378   -3.7520 N   0  0  0  0  0  0  0  0  0  0  0  0
  -86.6772   33.5614   -2.5098 C   0  0  0  0  0  0  0  0  0  0  0  0
  -85.6299   33.3489   -1.6960 N   0  0  0  0  0  0  0  0  0  0  0  0
  -85.6398   34.5935   -4.0725 H   0  0  0  0  0  0  0  0  0  0  0  0
 16 17  1  0  0  0
 17 10  1  0  0  0
 10 11  2  0  0  0
 11 12  1  0  0  0
 12  8  1  0  0  0
  8  1  1  0  0  0
  1  2  2  0  0  0
  2  3  1  0  0  0
  3  4  2  0  0  0
  4  5  1  0  0  0
  4  6  1  0  0  0
  6 22  1  0  0  0
 22 24  1  0  0  0
 24 25  2  0  0  0
 25 26  1  0  0  0
 26 27  2  0  0  0
 27 28  1  0  0  0
 28 29  1  0  0  0
 29 30  1  0  0  0
 29 31  1  0  0  0
 29 32  1  0  0  0
 32 33  2  0  0  0
 32 34  1  0  0  0
 34 35  1  0  0  0
 35 36  2  0  0  0
  6  7  2  0  0  0
 12 13  2  0  0  0
 13 14  1  0  0  0
 14 18  1  0  0  0
 18 19  1  0  0  0
 14 15  2  0  0  0
 15 20  1  0  0  0
 20 21  1  0  0  0
 15 10  1  0  0  0
  7  1  1  0  0  0
 36 24  1  0  0  0
 35 27  1  0  0  0
  8  9  1  0  0  0
 22 23  1  0  0  0
 34 37  1  0  0  0
M  END
> <minimizedAffinity>
-9.03414

> <CNNscore>
0.3787387908

> <CNNaffinity>
7.3652825356

> <CNN_VS>
2.7895181179

> <CNNaffinity_variance>
0.1866913885

$$$$
[H]c1nc(N([H])c2c([H])c(OC([H])([H])[H])c(OC([H])([H])[H])c(OC([H])([H])[H])c2[H])nc(N([H])c2nc3c(c([H])c2[H])OC(C([H])([H])[H])(C([H])([H])[H])C(=O)N3[H])c1F


 37 40  0  0  0  0  0  0  0  0999 V2000
  -85.3534   27.5513    2.0635 C   0  0  0  0  0  0  0  0  0  0  0  0
  -84.1361   27.1276    2.4239 N   0  0  0  0  0  0  0  0  0  0  0  0
  -83.0325   27.8780    2.4358 C   0  0  0  0  0  0  0  0  0  0  0  0
  -83.1248   29.1821    2.0554 C   0  0  0  0  0  0  0  0  0  0  0  0
  -82.0972   30.0421    2.0217 F   0  0  0  0  0  0  0  0  0  0  0  0
  -84.3745   29.6882    1.6656 C   0  0  0  0  0  0  0  0  0  0  0  0
  -85.4195   28.8549    1.6885 N   0  0  0  0  0  0  0  0  0  0  0  0
  -86.5331   26.7865    2.0406 N   0  0  0  0  0  0  0  0  0  0  0  0
  -86.4724   25.8447    2.5485 H   0  0  0  0  0  0  0  0  0  0  0  0
  -90.0778   27.7818    1.3562 C   0  0  0  0  0  0  0  0  0  0  0  0
  -88.8997   27.4596    2.0453 C   0  0  0  0  0  0  0  0  0  0  0  0
  -87.7472   27.1402    1.4232 C   0  0  0  0  0  0  0  0  0  0  0  0
  -87.7755   27.1445    0.0140 C   0  0  0  0  0  0  0  0  0  0  0  0
  -88.9093   27.4549   -0.6903 C   0  0  0  0  0  0  0  0  0  0  0  0
  -90.0763   27.7777   -0.0272 C   0  0  0  0  0  0  0  0  0  0  0  0
  -91.1070   28.5389    3.3941 C   0  0  0  0  0  0  0  0  0  0  0  0
  -91.2195   28.0979    2.0676 O   0  0  0  0  0  0  0  0  0  0  0  0
  -88.8989   27.4487   -2.0602 O   0  0  0  0  0  0  0  0  0  0  0  0
  -88.1937   28.4582   -2.7517 C   0  0  0  0  0  0  0  0  0  0  0  0
  -91.2538   28.0999   -0.6987 O   0  0  0  0  0  0  0  0  0  0  0  0
  -91.4533   29.4538   -1.0832 C   0  0  0  0  0  0  0  0  0  0  0  0
  -84.5019   31.0406    1.2648 N   0  0  0  0  0  0  0  0  0  0  0  0
  -83.8447   31.7387    1.6381 H   0  0  0  0  0  0  0  0  0  0  0  0
  -85.5312   31.3992    0.3598 C   0  0  0  0  0  0  0  0  0  0  0  0
  -86.7902   30.7849    0.4319 C   0  0  0  0  0  0  0  0  0  0  0  0
  -87.7806   31.1428   -0.4532 C   0  0  0  0  0  0  0  0  0  0  0  0
  -87.5592   32.1000   -1.4167 C   0  0  0  0  0  0  0  0  0  0  0  0
  -88.5352   32.4848   -2.3251 O   0  0  0  0  0  0  0  0  0  0  0  0
  -88.2133   33.0995   -3.5633 C   0  0  0  0  0  0  0  0  0  0  0  0
  -89.3882   33.8791   -4.0809 C   0  0  0  0  0  0  0  0  0  0  0  0
  -87.7772   32.0563   -4.5579 C   0  0  0  0  0  0  0  0  0  0  0  0
  -87.0855   34.0630   -3.3789 C   0  0  0  0  0  0  0  0  0  0  0  0
  -87.0595   35.1602   -4.0187 O   0  0  0  0  0  0  0  0  0  0  0  0
  -86.0660   33.6946   -2.4699 N   0  0  0  0  0  0  0  0  0  0  0  0
  -86.3049   32.7051   -1.4807 C   0  0  0  0  0  0  0  0  0  0  0  0
  -85.3700   32.3227   -0.5953 N   0  0  0  0  0  0  0  0  0  0  0  0
  -85.1418   34.1588   -2.5378 H   0  0  0  0  0  0  0  0  0  0  0  0
 16 17  1  0  0  0
 17 10  1  0  0  0
 10 11  2  0  0  0
 11 12  1  0  0  0
 12  8  1  0  0  0
  8  1  1  0  0  0
  1  2  2  0  0  0
  2  3  1  0  0  0
  3  4  2  0  0  0
  4  5  1  0  0  0
  4  6  1  0  0  0
  6 22  1  0  0  0
 22 24  1  0  0  0
 24 25  2  0  0  0
 25 26  1  0  0  0
 26 27  2  0  0  0
 27 28  1  0  0  0
 28 29  1  0  0  0
 29 30  1  0  0  0
 29 31  1  0  0  0
 29 32  1  0  0  0
 32 33  2  0  0  0
 32 34  1  0  0  0
 34 35  1  0  0  0
 35 36  2  0  0  0
  6  7  2  0  0  0
 12 13  2  0  0  0
 13 14  1  0  0  0
 14 18  1  0  0  0
 18 19  1  0  0  0
 14 15  2  0  0  0
 15 20  1  0  0  0
 20 21  1  0  0  0
 15 10  1  0  0  0
  7  1  1  0  0  0
 36 24  1  0  0  0
 35 27  1  0  0  0
  8  9  1  0  0  0
 22 23  1  0  0  0
 34 37  1  0  0  0
M  END
> <minimizedAffinity>
-9.27695

> <CNNscore>
0.3602396846

> <CNNaffinity>
7.2743477821

> <CNN_VS>
2.6205086708

> <CNNaffinity_variance>
0.1357688606

$$$$
[H]C1=C([H])C([H])(F)C([H])([H])C([H])=C1N([H])C(=O)C1(C(=O)N([H])c2c([H])c([H])c(Oc3c([H])c([H])nc4c([H])c(OC([H])([H])C([H])([H])C([H])([H])N5C([H])([H])C([H])([H])OC([H])([H])C5([H])[H])c(OC([H])([H])[H])c([H])c34)c(F)c2[H])C([H])([H])C1([H])[H]


 48 53  0  0  0  0  0  0  0  0999 V2000
  -86.2626   29.2384    1.0628 C   0  0  0  0  0  0  0  0  0  0  0  0
  -87.0128   29.0989   -0.0965 C   0  0  0  0  0  0  0  0  0  0  0  0
  -87.4889   27.9134   -0.5719 C   0  0  0  0  0  0  0  0  0  0  0  0
  -87.2164   26.7391    0.1390 C   0  0  0  0  0  0  0  0  0  0  0  0
  -86.4804   26.8320    1.2889 C   0  0  0  0  0  0  0  0  0  0  0  0
  -86.0032   28.0681    1.7547 C   0  0  0  0  0  0  0  0  0  0  0  0
  -85.3052   28.0811    2.9140 F   0  0  0  0  0  0  0  0  0  0  0  0
  -87.7617   25.4995   -0.3507 N   0  0  0  0  0  0  0  0  0  0  0  0
  -89.0379   25.0754   -0.0593 C   0  0  0  0  0  0  0  0  0  0  0  0
  -89.7277   25.8465    0.7239 O   0  0  0  0  0  0  0  0  0  0  0  0
  -87.0982   24.9494   -0.9174 H   0  0  0  0  0  0  0  0  0  0  0  0
  -89.7868   23.8677   -0.4832 C   0  0  0  0  0  0  0  0  0  0  0  0
  -89.9536   23.7253   -1.9866 C   0  0  0  0  0  0  0  0  0  0  0  0
  -91.1164   24.2243   -1.2584 C   0  0  0  0  0  0  0  0  0  0  0  0
  -89.9063   22.6471    0.3149 C   0  0  0  0  0  0  0  0  0  0  0  0
  -89.3579   21.5971   -0.2553 O   0  0  0  0  0  0  0  0  0  0  0  0
  -90.4729   22.3652    1.5520 N   0  0  0  0  0  0  0  0  0  0  0  0
  -90.9256   23.0673    2.1599 H   0  0  0  0  0  0  0  0  0  0  0  0
  -90.4317   21.0101    2.1025 C   0  0  0  0  0  0  0  0  0  0  0  0
  -89.5785   20.7813    3.0749 C   0  0  0  0  0  0  0  0  0  0  0  0
  -89.3809   19.5076    3.7604 C   0  0  0  0  0  0  0  0  0  0  0  0
  -90.2005   18.3833    3.2592 C   0  0  0  0  0  0  0  0  0  0  0  0
  -90.9903   17.8598    4.3146 F   0  0  0  0  0  0  0  0  0  0  0  0
  -91.1179   18.7436    2.1765 C   0  0  0  0  0  0  0  0  0  0  0  0
  -91.2435   19.9357    1.6296 C   0  0  0  0  0  0  0  0  0  0  0  0
  -85.8132   30.4679    1.4918 O   0  0  0  0  0  0  0  0  0  0  0  0
  -87.8456   32.8579   -1.1399 C   0  0  0  0  0  0  0  0  0  0  0  0
  -87.1823   32.0522   -0.2557 C   0  0  0  0  0  0  0  0  0  0  0  0
  -85.8059   32.1056   -0.2100 C   0  0  0  0  0  0  0  0  0  0  0  0
  -85.0780   31.2909    0.6840 C   0  0  0  0  0  0  0  0  0  0  0  0
  -83.7048   31.3560    0.7102 C   0  0  0  0  0  0  0  0  0  0  0  0
  -83.0186   32.2098   -0.1251 C   0  0  0  0  0  0  0  0  0  0  0  0
  -83.7135   32.9839   -0.9734 N   0  0  0  0  0  0  0  0  0  0  0  0
  -85.0738   32.9364   -1.0183 C   0  0  0  0  0  0  0  0  0  0  0  0
  -85.7513   33.7509   -1.9129 C   0  0  0  0  0  0  0  0  0  0  0  0
  -87.1235   33.7209   -1.9808 C   0  0  0  0  0  0  0  0  0  0  0  0
  -89.9134   31.7061   -1.6108 C   0  0  0  0  0  0  0  0  0  0  0  0
  -89.2207   32.8853   -1.2706 O   0  0  0  0  0  0  0  0  0  0  0  0
  -87.7963   34.5194   -2.8468 O   0  0  0  0  0  0  0  0  0  0  0  0
  -87.6235   34.5418   -4.2170 C   0  0  0  0  0  0  0  0  0  0  0  0
  -86.9692   35.8287   -4.6997 C   0  0  0  0  0  0  0  0  0  0  0  0
  -87.5641   36.1853   -6.0687 C   0  0  0  0  0  0  0  0  0  0  0  0
  -86.6904   37.1441   -6.6975 N   0  0  0  0  0  0  0  0  0  0  0  0
  -87.3977   37.8082   -7.8171 C   0  0  0  0  0  0  0  0  0  0  0  0
  -86.4145   38.8777   -8.3020 C   0  0  0  0  0  0  0  0  0  0  0  0
  -85.1155   38.6421   -7.8519 O   0  0  0  0  0  0  0  0  0  0  0  0
  -85.0091   38.7902   -6.4548 C   0  0  0  0  0  0  0  0  0  0  0  0
  -86.2756   38.2219   -5.8012 C   0  0  0  0  0  0  0  0  0  0  0  0
 37 38  1  0  0  0
 38 27  1  0  0  0
 27 28  2  0  0  0
 28 29  1  0  0  0
 29 30  2  0  0  0
 30 26  1  0  0  0
 26  1  1  0  0  0
  1  2  2  0  0  0
  2  3  1  0  0  0
  3  4  2  0  0  0
  4  8  1  0  0  0
  8  9  1  0  0  0
  9 10  2  0  0  0
  9 12  1  0  0  0
 12 13  1  0  0  0
 13 14  1  0  0  0
 12 15  1  0  0  0
 15 16  2  0  0  0
 15 17  1  0  0  0
 17 19  1  0  0  0
 19 20  2  0  0  0
 20 21  1  0  0  0
 21 22  1  0  0  0
 22 23  1  0  0  0
 22 24  1  0  0  0
 24 25  2  0  0  0
  4  5  1  0  0  0
  5  6  2  0  0  0
  6  7  1  0  0  0
 30 31  1  0  0  0
 31 32  2  0  0  0
 32 33  1  0  0  0
 33 34  2  0  0  0
 34 35  1  0  0  0
 35 36  2  0  0  0
 36 39  1  0  0  0
 39 40  1  0  0  0
 40 41  1  0  0  0
 41 42  1  0  0  0
 42 43  1  0  0  0
 43 44  1  0  0  0
 44 45  1  0  0  0
 45 46  1  0  0  0
 46 47  1  0  0  0
 47 48  1  0  0  0
 36 27  1  0  0  0
 48 43  1  0  0  0
 34 29  1  0  0  0
  6  1  1  0  0  0
 14 12  1  0  0  0
 25 19  1  0  0  0
  8 11  1  0  0  0
 17 18  1  0  0  0
M  END
> <minimizedAffinity>
-9.89578

> <CNNscore>
0.6749996543

> <CNNaffinity>
7.4740819931

> <CNN_VS>
5.0450029373

> <CNNaffinity_variance>
0.0786887258

$$$$
[H]C1=C([H])C([H])(F)C([H])([H])C([H])=C1N([H])C(=O)C1(C(=O)N([H])c2c([H])c([H])c(Oc3c([H])c([H])nc4c([H])c(OC([H])([H])C([H])([H])C([H])([H])N5C([H])([H])C([H])([H])OC([H])([H])C5([H])[H])c(OC([H])([H])[H])c([H])c34)c(F)c2[H])C([H])([H])C1([H])[H]


 48 53  0  0  0  0  0  0  0  0999 V2000
  -86.4117   28.7980    1.2281 C   0  0  0  0  0  0  0  0  0  0  0  0
  -87.5018   28.8490    0.3705 C   0  0  0  0  0  0  0  0  0  0  0  0
  -88.0891   27.7589   -0.1998 C   0  0  0  0  0  0  0  0  0  0  0  0
  -87.5768   26.4874    0.0819 C   0  0  0  0  0  0  0  0  0  0  0  0
  -86.5025   26.3920    0.9242 C   0  0  0  0  0  0  0  0  0  0  0  0
  -85.9182   27.5333    1.4974 C   0  0  0  0  0  0  0  0  0  0  0  0
  -84.8753   27.3546    2.3412 F   0  0  0  0  0  0  0  0  0  0  0  0
  -88.2332   25.3416   -0.4925 N   0  0  0  0  0  0  0  0  0  0  0  0
  -89.2836   24.6956    0.1183 C   0  0  0  0  0  0  0  0  0  0  0  0
  -89.6375   25.1576    1.2781 O   0  0  0  0  0  0  0  0  0  0  0  0
  -87.8260   25.0364   -1.3896 H   0  0  0  0  0  0  0  0  0  0  0  0
  -90.1029   23.5378   -0.3142 C   0  0  0  0  0  0  0  0  0  0  0  0
  -90.3175   23.4436   -1.8154 C   0  0  0  0  0  0  0  0  0  0  0  0
  -91.4338   23.9795   -1.0419 C   0  0  0  0  0  0  0  0  0  0  0  0
  -90.2613   22.3038    0.4561 C   0  0  0  0  0  0  0  0  0  0  0  0
  -89.7045   21.2589   -0.1155 O   0  0  0  0  0  0  0  0  0  0  0  0
  -90.8718   22.0047    1.6679 N   0  0  0  0  0  0  0  0  0  0  0  0
  -91.3376   22.7001    2.2736 H   0  0  0  0  0  0  0  0  0  0  0  0
  -90.8625   20.6392    2.1936 C   0  0  0  0  0  0  0  0  0  0  0  0
  -89.9186   20.3320    3.0540 C   0  0  0  0  0  0  0  0  0  0  0  0
  -89.7326   19.0341    3.6958 C   0  0  0  0  0  0  0  0  0  0  0  0
  -90.6841   17.9799    3.2833 C   0  0  0  0  0  0  0  0  0  0  0  0
  -91.3785   17.4913    4.4195 F   0  0  0  0  0  0  0  0  0  0  0  0
  -91.6954   18.4249    2.3226 C   0  0  0  0  0  0  0  0  0  0  0  0
  -91.7995   19.6336    1.8087 C   0  0  0  0  0  0  0  0  0  0  0  0
  -85.8656   29.9384    1.7749 O   0  0  0  0  0  0  0  0  0  0  0  0
  -87.2207   32.8140   -0.8065 C   0  0  0  0  0  0  0  0  0  0  0  0
  -86.7851   31.8485    0.0588 C   0  0  0  0  0  0  0  0  0  0  0  0
  -85.4291   31.6698    0.2289 C   0  0  0  0  0  0  0  0  0  0  0  0
  -84.9325   30.6840    1.1089 C   0  0  0  0  0  0  0  0  0  0  0  0
  -83.5758   30.5188    1.2603 C   0  0  0  0  0  0  0  0  0  0  0  0
  -82.6831   31.3047    0.5654 C   0  0  0  0  0  0  0  0  0  0  0  0
  -83.1583   32.2419   -0.2698 N   0  0  0  0  0  0  0  0  0  0  0  0
  -84.4977   32.4236   -0.4371 C   0  0  0  0  0  0  0  0  0  0  0  0
  -84.9448   33.4009   -1.3133 C   0  0  0  0  0  0  0  0  0  0  0  0
  -86.2906   33.6035   -1.5030 C   0  0  0  0  0  0  0  0  0  0  0  0
  -89.3252   32.1524   -1.7850 C   0  0  0  0  0  0  0  0  0  0  0  0
  -88.5541   33.0780   -1.0538 O   0  0  0  0  0  0  0  0  0  0  0  0
  -86.7386   34.5623   -2.3517 O   0  0  0  0  0  0  0  0  0  0  0  0
  -86.9713   34.3927   -3.7026 C   0  0  0  0  0  0  0  0  0  0  0  0
  -87.7224   35.5666   -4.3152 C   0  0  0  0  0  0  0  0  0  0  0  0
  -88.4971   35.0554   -5.5373 C   0  0  0  0  0  0  0  0  0  0  0  0
  -89.8953   35.3363   -5.3273 N   0  0  0  0  0  0  0  0  0  0  0  0
  -90.6981   34.1231   -5.6078 C   0  0  0  0  0  0  0  0  0  0  0  0
  -92.1264   34.5194   -5.2225 C   0  0  0  0  0  0  0  0  0  0  0  0
  -92.2822   35.9022   -5.1277 O   0  0  0  0  0  0  0  0  0  0  0  0
  -91.5519   36.4401   -4.0495 C   0  0  0  0  0  0  0  0  0  0  0  0
  -90.2094   35.7041   -3.9478 C   0  0  0  0  0  0  0  0  0  0  0  0
 37 38  1  0  0  0
 38 27  1  0  0  0
 27 28  2  0  0  0
 28 29  1  0  0  0
 29 30  2  0  0  0
 30 26  1  0  0  0
 26  1  1  0  0  0
  1  2  2  0  0  0
  2  3  1  0  0  0
  3  4  2  0  0  0
  4  8  1  0  0  0
  8  9  1  0  0  0
  9 10  2  0  0  0
  9 12  1  0  0  0
 12 13  1  0  0  0
 13 14  1  0  0  0
 12 15  1  0  0  0
 15 16  2  0  0  0
 15 17  1  0  0  0
 17 19  1  0  0  0
 19 20  2  0  0  0
 20 21  1  0  0  0
 21 22  1  0  0  0
 22 23  1  0  0  0
 22 24  1  0  0  0
 24 25  2  0  0  0
  4  5  1  0  0  0
  5  6  2  0  0  0
  6  7  1  0  0  0
 30 31  1  0  0  0
 31 32  2  0  0  0
 32 33  1  0  0  0
 33 34  2  0  0  0
 34 35  1  0  0  0
 35 36  2  0  0  0
 36 39  1  0  0  0
 39 40  1  0  0  0
 40 41  1  0  0  0
 41 42  1  0  0  0
 42 43  1  0  0  0
 43 44  1  0  0  0
 44 45  1  0  0  0
 45 46  1  0  0  0
 46 47  1  0  0  0
 47 48  1  0  0  0
 36 27  1  0  0  0
 48 43  1  0  0  0
 34 29  1  0  0  0
  6  1  1  0  0  0
 14 12  1  0  0  0
 25 19  1  0  0  0
  8 11  1  0  0  0
 17 18  1  0  0  0
M  END
> <minimizedAffinity>
-9.03080

> <CNNscore>
0.5249000192

> <CNNaffinity>
7.3581838608

> <CNN_VS>
3.8623108864

> <CNNaffinity_variance>
0.1535468996

$$$$
[H]C1=C([H])C([H])(F)C([H])([H])C([H])=C1N([H])C(=O)C1(C(=O)N([H])c2c([H])c([H])c(Oc3c([H])c([H])nc4c([H])c(OC([H])([H])C([H])([H])C([H])([H])N5C([H])([H])C([H])([H])OC([H])([H])C5([H])[H])c(OC([H])([H])[H])c([H])c34)c(F)c2[H])C([H])([H])C1([H])[H]


 48 53  0  0  0  0  0  0  0  0999 V2000
  -86.1106   29.2573    1.1494 C   0  0  0  0  0  0  0  0  0  0  0  0
  -86.3493   28.9922   -0.1919 C   0  0  0  0  0  0  0  0  0  0  0  0
  -86.8393   27.8143   -0.6723 C   0  0  0  0  0  0  0  0  0  0  0  0
  -87.1303   26.7832    0.2281 C   0  0  0  0  0  0  0  0  0  0  0  0
  -86.9105   27.0033    1.5606 C   0  0  0  0  0  0  0  0  0  0  0  0
  -86.4048   28.2279    2.0266 C   0  0  0  0  0  0  0  0  0  0  0  0
  -86.2397   28.3779    3.3615 F   0  0  0  0  0  0  0  0  0  0  0  0
  -87.6880   25.5600   -0.2881 N   0  0  0  0  0  0  0  0  0  0  0  0
  -88.9898   25.1758   -0.0615 C   0  0  0  0  0  0  0  0  0  0  0  0
  -89.6944   25.9693    0.6854 O   0  0  0  0  0  0  0  0  0  0  0  0
  -87.0140   24.9886   -0.8201 H   0  0  0  0  0  0  0  0  0  0  0  0
  -89.7531   23.9909   -0.5222 C   0  0  0  0  0  0  0  0  0  0  0  0
  -89.9226   23.8977   -2.0292 C   0  0  0  0  0  0  0  0  0  0  0  0
  -91.0790   24.3871   -1.2844 C   0  0  0  0  0  0  0  0  0  0  0  0
  -89.8863   22.7473    0.2374 C   0  0  0  0  0  0  0  0  0  0  0  0
  -89.0821   21.7946   -0.1795 O   0  0  0  0  0  0  0  0  0  0  0  0
  -90.6805   22.3630    1.3109 N   0  0  0  0  0  0  0  0  0  0  0  0
  -91.3537   22.9833    1.7899 H   0  0  0  0  0  0  0  0  0  0  0  0
  -90.5831   21.0137    1.8684 C   0  0  0  0  0  0  0  0  0  0  0  0
  -89.7791   20.8427    2.8932 C   0  0  0  0  0  0  0  0  0  0  0  0
  -89.5398   19.5851    3.5949 C   0  0  0  0  0  0  0  0  0  0  0  0
  -90.2492   18.4083    3.0480 C   0  0  0  0  0  0  0  0  0  0  0  0
  -91.0667   17.8327    4.0542 F   0  0  0  0  0  0  0  0  0  0  0  0
  -91.1190   18.7062    1.9086 C   0  0  0  0  0  0  0  0  0  0  0  0
  -91.2898   19.8872    1.3501 C   0  0  0  0  0  0  0  0  0  0  0  0
  -85.6164   30.4720    1.5715 O   0  0  0  0  0  0  0  0  0  0  0  0
  -87.5989   32.8758   -1.0856 C   0  0  0  0  0  0  0  0  0  0  0  0
  -86.9525   32.0659   -0.1929 C   0  0  0  0  0  0  0  0  0  0  0  0
  -85.5752   32.0900   -0.1486 C   0  0  0  0  0  0  0  0  0  0  0  0
  -84.8643   31.2698    0.7540 C   0  0  0  0  0  0  0  0  0  0  0  0
  -83.4900   31.3054    0.7786 C   0  0  0  0  0  0  0  0  0  0  0  0
  -82.7862   32.1347   -0.0666 C   0  0  0  0  0  0  0  0  0  0  0  0
  -83.4649   32.9142   -0.9231 N   0  0  0  0  0  0  0  0  0  0  0  0
  -84.8260   32.8956   -0.9666 C   0  0  0  0  0  0  0  0  0  0  0  0
  -85.4865   33.7145   -1.8699 C   0  0  0  0  0  0  0  0  0  0  0  0
  -86.8590   33.7135   -1.9366 C   0  0  0  0  0  0  0  0  0  0  0  0
  -89.7841   32.0936   -0.4244 C   0  0  0  0  0  0  0  0  0  0  0  0
  -88.9732   32.9315   -1.2158 O   0  0  0  0  0  0  0  0  0  0  0  0
  -87.5151   34.5167   -2.8110 O   0  0  0  0  0  0  0  0  0  0  0  0
  -87.5535   34.3482   -4.1814 C   0  0  0  0  0  0  0  0  0  0  0  0
  -88.6752   33.4181   -4.6219 C   0  0  0  0  0  0  0  0  0  0  0  0
  -88.0794   32.0224   -4.8504 C   0  0  0  0  0  0  0  0  0  0  0  0
  -89.0609   31.0477   -4.4445 N   0  0  0  0  0  0  0  0  0  0  0  0
  -88.5444   30.2633   -3.2987 C   0  0  0  0  0  0  0  0  0  0  0  0
  -89.7210   29.3712   -2.8923 C   0  0  0  0  0  0  0  0  0  0  0  0
  -90.6871   29.2842   -3.8946 O   0  0  0  0  0  0  0  0  0  0  0  0
  -91.3401   30.5153   -4.1025 C   0  0  0  0  0  0  0  0  0  0  0  0
  -90.3105   31.6462   -3.9787 C   0  0  0  0  0  0  0  0  0  0  0  0
 37 38  1  0  0  0
 38 27  1  0  0  0
 27 28  2  0  0  0
 28 29  1  0  0  0
 29 30  2  0  0  0
 30 26  1  0  0  0
 26  1  1  0  0  0
  1  2  2  0  0  0
  2  3  1  0  0  0
  3  4  2  0  0  0
  4  8  1  0  0  0
  8  9  1  0  0  0
  9 10  2  0  0  0
  9 12  1  0  0  0
 12 13  1  0  0  0
 13 14  1  0  0  0
 12 15  1  0  0  0
 15 16  2  0  0  0
 15 17  1  0  0  0
 17 19  1  0  0  0
 19 20  2  0  0  0
 20 21  1  0  0  0
 21 22  1  0  0  0
 22 23  1  0  0  0
 22 24  1  0  0  0
 24 25  2  0  0  0
  4  5  1  0  0  0
  5  6  2  0  0  0
  6  7  1  0  0  0
 30 31  1  0  0  0
 31 32  2  0  0  0
 32 33  1  0  0  0
 33 34  2  0  0  0
 34 35  1  0  0  0
 35 36  2  0  0  0
 36 39  1  0  0  0
 39 40  1  0  0  0
 40 41  1  0  0  0
 41 42  1  0  0  0
 42 43  1  0  0  0
 43 44  1  0  0  0
 44 45  1  0  0  0
 45 46  1  0  0  0
 46 47  1  0  0  0
 47 48  1  0  0  0
 36 27  1  0  0  0
 48 43  1  0  0  0
 34 29  1  0  0  0
  6  1  1  0  0  0
 14 12  1  0  0  0
 25 19  1  0  0  0
  8 11  1  0  0  0
 17 18  1  0  0  0
M  END
> <minimizedAffinity>
-9.47326

> <CNNscore>
0.3454141617

> <CNNaffinity>
7.4098434448

> <CNN_VS>
2.5594649315

> <CNNaffinity_variance>
0.2424819916

$$$$
[H]C1=C([H])C([H])(F)C([H])([H])C([H])=C1N([H])C(=O)C1(C(=O)N([H])c2c([H])c([H])c(Oc3c([H])c([H])nc4c([H])c(OC([H])([H])C([H])([H])C([H])([H])N5C([H])([H])C([H])([H])OC([H])([H])C5([H])[H])c(OC([H])([H])[H])c([H])c34)c(F)c2[H])C([H])([H])C1([H])[H]


 48 53  0  0  0  0  0  0  0  0999 V2000
  -86.4617   28.7394    1.2850 C   0  0  0  0  0  0  0  0  0  0  0  0
  -87.5792   28.7548    0.4620 C   0  0  0  0  0  0  0  0  0  0  0  0
  -88.1808   27.6423   -0.0466 C   0  0  0  0  0  0  0  0  0  0  0  0
  -87.6550   26.3837    0.2668 C   0  0  0  0  0  0  0  0  0  0  0  0
  -86.5536   26.3233    1.0766 C   0  0  0  0  0  0  0  0  0  0  0  0
  -85.9551   27.4871    1.5863 C   0  0  0  0  0  0  0  0  0  0  0  0
  -84.8847   27.3435    2.4019 F   0  0  0  0  0  0  0  0  0  0  0  0
  -88.3256   25.2151   -0.2415 N   0  0  0  0  0  0  0  0  0  0  0  0
  -89.4377   24.6694    0.3577 C   0  0  0  0  0  0  0  0  0  0  0  0
  -89.8395   25.2508    1.4460 O   0  0  0  0  0  0  0  0  0  0  0  0
  -87.8794   24.8123   -1.0797 H   0  0  0  0  0  0  0  0  0  0  0  0
  -90.2797   23.5083   -0.0189 C   0  0  0  0  0  0  0  0  0  0  0  0
  -90.4286   22.4587    1.0696 C   0  0  0  0  0  0  0  0  0  0  0  0
  -89.4768   22.1479    0.0070 C   0  0  0  0  0  0  0  0  0  0  0  0
  -91.3114   23.5375   -1.0562 C   0  0  0  0  0  0  0  0  0  0  0  0
  -92.5152   23.7779   -0.5857 O   0  0  0  0  0  0  0  0  0  0  0  0
  -91.2857   23.3701   -2.4354 N   0  0  0  0  0  0  0  0  0  0  0  0
  -90.4284   23.2001   -2.9864 H   0  0  0  0  0  0  0  0  0  0  0  0
  -92.5155   23.4601   -3.2231 C   0  0  0  0  0  0  0  0  0  0  0  0
  -93.1878   22.3485   -3.4181 C   0  0  0  0  0  0  0  0  0  0  0  0
  -94.4332   22.2200   -4.1689 C   0  0  0  0  0  0  0  0  0  0  0  0
  -94.9312   23.4663   -4.7900 C   0  0  0  0  0  0  0  0  0  0  0  0
  -96.2377   23.7483   -4.3150 F   0  0  0  0  0  0  0  0  0  0  0  0
  -94.1108   24.6466   -4.5116 C   0  0  0  0  0  0  0  0  0  0  0  0
  -93.0028   24.6715   -3.7992 C   0  0  0  0  0  0  0  0  0  0  0  0
  -85.9023   29.9013    1.7696 O   0  0  0  0  0  0  0  0  0  0  0  0
  -87.2576   32.7921   -0.7946 C   0  0  0  0  0  0  0  0  0  0  0  0
  -86.8220   31.8221    0.0657 C   0  0  0  0  0  0  0  0  0  0  0  0
  -85.4673   31.5985    0.1857 C   0  0  0  0  0  0  0  0  0  0  0  0
  -84.9708   30.6063    1.0585 C   0  0  0  0  0  0  0  0  0  0  0  0
  -83.6157   30.3959    1.1597 C   0  0  0  0  0  0  0  0  0  0  0  0
  -82.7244   31.1423    0.4209 C   0  0  0  0  0  0  0  0  0  0  0  0
  -83.1994   32.0857   -0.4074 N   0  0  0  0  0  0  0  0  0  0  0  0
  -84.5373   32.3118   -0.5254 C   0  0  0  0  0  0  0  0  0  0  0  0
  -84.9845   33.2938   -1.3962 C   0  0  0  0  0  0  0  0  0  0  0  0
  -86.3289   33.5407   -1.5365 C   0  0  0  0  0  0  0  0  0  0  0  0
  -89.5874   32.2830   -0.4242 C   0  0  0  0  0  0  0  0  0  0  0  0
  -88.5898   33.0994   -0.9938 O   0  0  0  0  0  0  0  0  0  0  0  0
  -86.7765   34.5047   -2.3797 O   0  0  0  0  0  0  0  0  0  0  0  0
  -87.0125   34.3421   -3.7309 C   0  0  0  0  0  0  0  0  0  0  0  0
  -88.4971   34.3533   -4.0674 C   0  0  0  0  0  0  0  0  0  0  0  0
  -88.7911   33.1557   -4.9808 C   0  0  0  0  0  0  0  0  0  0  0  0
  -88.9205   31.9842   -4.1508 N   0  0  0  0  0  0  0  0  0  0  0  0
  -90.2842   31.4214   -4.2867 C   0  0  0  0  0  0  0  0  0  0  0  0
  -90.2408   30.1275   -3.4685 C   0  0  0  0  0  0  0  0  0  0  0  0
  -89.1567   30.0948   -2.5914 O   0  0  0  0  0  0  0  0  0  0  0  0
  -87.9283   30.0224   -3.2776 C   0  0  0  0  0  0  0  0  0  0  0  0
  -88.0109   30.9045   -4.5304 C   0  0  0  0  0  0  0  0  0  0  0  0
 37 38  1  0  0  0
 38 27  1  0  0  0
 27 28  2  0  0  0
 28 29  1  0  0  0
 29 30  2  0  0  0
 30 26  1  0  0  0
 26  1  1  0  0  0
  1  2  2  0  0  0
  2  3  1  0  0  0
  3  4  2  0  0  0
  4  8  1  0  0  0
  8  9  1  0  0  0
  9 10  2  0  0  0
  9 12  1  0  0  0
 12 13  1  0  0  0
 13 14  1  0  0  0
 12 15  1  0  0  0
 15 16  2  0  0  0
 15 17  1  0  0  0
 17 19  1  0  0  0
 19 20  2  0  0  0
 20 21  1  0  0  0
 21 22  1  0  0  0
 22 23  1  0  0  0
 22 24  1  0  0  0
 24 25  2  0  0  0
  4  5  1  0  0  0
  5  6  2  0  0  0
  6  7  1  0  0  0
 30 31  1  0  0  0
 31 32  2  0  0  0
 32 33  1  0  0  0
 33 34  2  0  0  0
 34 35  1  0  0  0
 35 36  2  0  0  0
 36 39  1  0  0  0
 39 40  1  0  0  0
 40 41  1  0  0  0
 41 42  1  0  0  0
 42 43  1  0  0  0
 43 44  1  0  0  0
 44 45  1  0  0  0
 45 46  1  0  0  0
 46 47  1  0  0  0
 47 48  1  0  0  0
 36 27  1  0  0  0
 48 43  1  0  0  0
 34 29  1  0  0  0
  6  1  1  0  0  0
 14 12  1  0  0  0
 25 19  1  0  0  0
  8 11  1  0  0  0
 17 18  1  0  0  0
M  END
> <minimizedAffinity>
-8.83943

> <CNNscore>
0.1489772201

> <CNNaffinity>
6.9845724106

> <CNN_VS>
1.0405421257

> <CNNaffinity_variance>
0.5000185966

$$$$
[H]C1=C([H])C([H])(F)C([H])([H])C([H])=C1N([H])C(=O)C1(C(=O)N([H])c2c([H])c([H])c(Oc3c([H])c([H])nc4c([H])c(OC([H])([H])C([H])([H])C([H])([H])N5C([H])([H])C([H])([H])OC([H])([H])C5([H])[H])c(OC([H])([H])[H])c([H])c34)c(F)c2[H])C([H])([H])C1([H])[H]


 48 53  0  0  0  0  0  0  0  0999 V2000
  -86.4131   28.9513    1.0627 C   0  0  0  0  0  0  0  0  0  0  0  0
  -86.3580   28.6857   -0.2985 C   0  0  0  0  0  0  0  0  0  0  0  0
  -87.0153   27.6626   -0.9143 C   0  0  0  0  0  0  0  0  0  0  0  0
  -87.8080   26.8044   -0.1436 C   0  0  0  0  0  0  0  0  0  0  0  0
  -87.8909   27.0315    1.2033 C   0  0  0  0  0  0  0  0  0  0  0  0
  -87.2022   28.0944    1.8102 C   0  0  0  0  0  0  0  0  0  0  0  0
  -87.3560   28.2694    3.1433 F   0  0  0  0  0  0  0  0  0  0  0  0
  -88.5312   25.7542   -0.8127 N   0  0  0  0  0  0  0  0  0  0  0  0
  -89.8305   25.8960   -1.2432 C   0  0  0  0  0  0  0  0  0  0  0  0
  -90.3953   27.0341   -0.9794 O   0  0  0  0  0  0  0  0  0  0  0  0
  -87.9935   24.8801   -0.9151 H   0  0  0  0  0  0  0  0  0  0  0  0
  -90.7270   24.9630   -1.9676 C   0  0  0  0  0  0  0  0  0  0  0  0
  -90.9058   23.6120   -1.2958 C   0  0  0  0  0  0  0  0  0  0  0  0
  -89.9833   23.6469   -2.4268 C   0  0  0  0  0  0  0  0  0  0  0  0
  -91.7708   25.3800   -2.9045 C   0  0  0  0  0  0  0  0  0  0  0  0
  -92.8817   24.6867   -2.7878 O   0  0  0  0  0  0  0  0  0  0  0  0
  -91.8370   26.3590   -3.8885 N   0  0  0  0  0  0  0  0  0  0  0  0
  -91.0726   27.0187   -4.1071 H   0  0  0  0  0  0  0  0  0  0  0  0
  -93.0526   26.5411   -4.6822 C   0  0  0  0  0  0  0  0  0  0  0  0
  -94.0118   27.2679   -4.1556 C   0  0  0  0  0  0  0  0  0  0  0  0
  -95.2969   27.5726   -4.7776 C   0  0  0  0  0  0  0  0  0  0  0  0
  -95.5236   26.9540   -6.1016 C   0  0  0  0  0  0  0  0  0  0  0  0
  -95.7787   27.9644   -7.0639 F   0  0  0  0  0  0  0  0  0  0  0  0
  -94.3944   26.1654   -6.5983 C   0  0  0  0  0  0  0  0  0  0  0  0
  -93.2545   25.9606   -5.9703 C   0  0  0  0  0  0  0  0  0  0  0  0
  -85.7264   30.0054    1.6240 O   0  0  0  0  0  0  0  0  0  0  0  0
  -87.2902   32.8701   -0.8492 C   0  0  0  0  0  0  0  0  0  0  0  0
  -86.7846   31.9080   -0.0189 C   0  0  0  0  0  0  0  0  0  0  0  0
  -85.4180   31.7468    0.0585 C   0  0  0  0  0  0  0  0  0  0  0  0
  -84.8502   30.7651    0.8991 C   0  0  0  0  0  0  0  0  0  0  0  0
  -83.4843   30.6174    0.9579 C   0  0  0  0  0  0  0  0  0  0  0  0
  -82.6510   31.4170    0.2072 C   0  0  0  0  0  0  0  0  0  0  0  0
  -83.1937   32.3503   -0.5905 N   0  0  0  0  0  0  0  0  0  0  0  0
  -84.5436   32.5147   -0.6663 C   0  0  0  0  0  0  0  0  0  0  0  0
  -85.0617   33.4885   -1.5065 C   0  0  0  0  0  0  0  0  0  0  0  0
  -86.4198   33.6737   -1.6041 C   0  0  0  0  0  0  0  0  0  0  0  0
  -89.5818   32.2295   -0.4461 C   0  0  0  0  0  0  0  0  0  0  0  0
  -88.6406   33.1172   -1.0048 O   0  0  0  0  0  0  0  0  0  0  0  0
  -86.9365   34.6290   -2.4170 O   0  0  0  0  0  0  0  0  0  0  0  0
  -87.1680   34.4901   -3.7716 C   0  0  0  0  0  0  0  0  0  0  0  0
  -88.6512   34.5124   -4.1135 C   0  0  0  0  0  0  0  0  0  0  0  0
  -88.9475   33.3273   -5.0422 C   0  0  0  0  0  0  0  0  0  0  0  0
  -88.9837   32.1307   -4.2391 N   0  0  0  0  0  0  0  0  0  0  0  0
  -90.3318   31.5204   -4.3090 C   0  0  0  0  0  0  0  0  0  0  0  0
  -90.1919   30.2084   -3.5314 C   0  0  0  0  0  0  0  0  0  0  0  0
  -89.0562   30.1942   -2.7219 O   0  0  0  0  0  0  0  0  0  0  0  0
  -87.8698   30.1861   -3.4819 C   0  0  0  0  0  0  0  0  0  0  0  0
  -88.0603   31.0964   -4.7023 C   0  0  0  0  0  0  0  0  0  0  0  0
 37 38  1  0  0  0
 38 27  1  0  0  0
 27 28  2  0  0  0
 28 29  1  0  0  0
 29 30  2  0  0  0
 30 26  1  0  0  0
 26  1  1  0  0  0
  1  2  2  0  0  0
  2  3  1  0  0  0
  3  4  2  0  0  0
  4  8  1  0  0  0
  8  9  1  0  0  0
  9 10  2  0  0  0
  9 12  1  0  0  0
 12 13  1  0  0  0
 13 14  1  0  0  0
 12 15  1  0  0  0
 15 16  2  0  0  0
 15 17  1  0  0  0
 17 19  1  0  0  0
 19 20  2  0  0  0
 20 21  1  0  0  0
 21 22  1  0  0  0
 22 23  1  0  0  0
 22 24  1  0  0  0
 24 25  2  0  0  0
  4  5  1  0  0  0
  5  6  2  0  0  0
  6  7  1  0  0  0
 30 31  1  0  0  0
 31 32  2  0  0  0
 32 33  1  0  0  0
 33 34  2  0  0  0
 34 35  1  0  0  0
 35 36  2  0  0  0
 36 39  1  0  0  0
 39 40  1  0  0  0
 40 41  1  0  0  0
 41 42  1  0  0  0
 42 43  1  0  0  0
 43 44  1  0  0  0
 44 45  1  0  0  0
 45 46  1  0  0  0
 46 47  1  0  0  0
 47 48  1  0  0  0
 36 27  1  0  0  0
 48 43  1  0  0  0
 34 29  1  0  0  0
  6  1  1  0  0  0
 14 12  1  0  0  0
 25 19  1  0  0  0
  8 11  1  0  0  0
 17 18  1  0  0  0
M  END
> <minimizedAffinity>
-8.58613

> <CNNscore>
0.1323188096

> <CNNaffinity>
6.8357744217

> <CNN_VS>
0.9045015574

> <CNNaffinity_variance>
0.9179178476

$$$$
[H]C1=C([H])C([H])(F)C([H])([H])C([H])=C1N([H])C(=O)C1(C(=O)N([H])c2c([H])c([H])c(Oc3c([H])c([H])nc4c([H])c(OC([H])([H])C([H])([H])C([H])([H])N5C([H])([H])C([H])([H])OC([H])([H])C5([H])[H])c(OC([H])([H])[H])c([H])c34)c(F)c2[H])C([H])([H])C1([H])[H]


 48 53  0  0  0  0  0  0  0  0999 V2000
  -87.7651   32.1678   -1.0470 C   0  0  0  0  0  0  0  0  0  0  0  0
  -88.4327   32.2886   -2.2578 C   0  0  0  0  0  0  0  0  0  0  0  0
  -88.0933   33.1662   -3.2441 C   0  0  0  0  0  0  0  0  0  0  0  0
  -86.9995   34.0170   -3.0481 C   0  0  0  0  0  0  0  0  0  0  0  0
  -86.3124   33.9299   -1.8679 C   0  0  0  0  0  0  0  0  0  0  0  0
  -86.6853   33.0153   -0.8695 C   0  0  0  0  0  0  0  0  0  0  0  0
  -85.9396   32.9709    0.2590 F   0  0  0  0  0  0  0  0  0  0  0  0
  -86.6254   34.9089   -4.1150 N   0  0  0  0  0  0  0  0  0  0  0  0
  -87.1901   36.1521   -4.2850 C   0  0  0  0  0  0  0  0  0  0  0  0
  -88.1211   36.4735   -3.4400 O   0  0  0  0  0  0  0  0  0  0  0  0
  -85.9149   34.5182   -4.7525 H   0  0  0  0  0  0  0  0  0  0  0  0
  -86.9266   37.2167   -5.2831 C   0  0  0  0  0  0  0  0  0  0  0  0
  -85.5484   37.8482   -5.1815 C   0  0  0  0  0  0  0  0  0  0  0  0
  -86.6488   38.6187   -4.6097 C   0  0  0  0  0  0  0  0  0  0  0  0
  -87.6149   37.3324   -6.5691 C   0  0  0  0  0  0  0  0  0  0  0  0
  -87.0013   36.7017   -7.5459 O   0  0  0  0  0  0  0  0  0  0  0  0
  -88.7842   37.9643   -6.9744 N   0  0  0  0  0  0  0  0  0  0  0  0
  -89.4139   38.4864   -6.3434 H   0  0  0  0  0  0  0  0  0  0  0  0
  -89.2264   37.8977   -8.3676 C   0  0  0  0  0  0  0  0  0  0  0  0
  -90.1959   37.0580   -8.6518 C   0  0  0  0  0  0  0  0  0  0  0  0
  -90.7824   36.8398   -9.9707 C   0  0  0  0  0  0  0  0  0  0  0  0
  -90.1761   37.6192  -11.0716 C   0  0  0  0  0  0  0  0  0  0  0  0
  -91.1696   38.4153  -11.6973 F   0  0  0  0  0  0  0  0  0  0  0  0
  -89.1058   38.5246  -10.6492 C   0  0  0  0  0  0  0  0  0  0  0  0
  -88.6525   38.6712   -9.4209 C   0  0  0  0  0  0  0  0  0  0  0  0
  -88.1570   31.2567   -0.0909 O   0  0  0  0  0  0  0  0  0  0  0  0
  -90.1180   27.9439   -1.4866 C   0  0  0  0  0  0  0  0  0  0  0  0
  -89.4773   29.0605   -1.0249 C   0  0  0  0  0  0  0  0  0  0  0  0
  -88.2354   28.9226   -0.4431 C   0  0  0  0  0  0  0  0  0  0  0  0
  -87.5373   30.0458    0.0506 C   0  0  0  0  0  0  0  0  0  0  0  0
  -86.3015   29.8857    0.6320 C   0  0  0  0  0  0  0  0  0  0  0  0
  -85.7248   28.6396    0.7416 C   0  0  0  0  0  0  0  0  0  0  0  0
  -86.3906   27.5735    0.2704 N   0  0  0  0  0  0  0  0  0  0  0  0
  -87.6161   27.7070   -0.3086 C   0  0  0  0  0  0  0  0  0  0  0  0
  -88.2703   26.5782   -0.7783 C   0  0  0  0  0  0  0  0  0  0  0  0
  -89.5088   26.6840   -1.3641 C   0  0  0  0  0  0  0  0  0  0  0  0
  -91.5544   28.6992   -3.2728 C   0  0  0  0  0  0  0  0  0  0  0  0
  -91.3633   27.9657   -2.0848 O   0  0  0  0  0  0  0  0  0  0  0  0
  -90.1538   25.5871   -1.8342 O   0  0  0  0  0  0  0  0  0  0  0  0
  -90.8261   24.6597   -1.0623 C   0  0  0  0  0  0  0  0  0  0  0  0
  -92.0112   24.0443   -1.7932 C   0  0  0  0  0  0  0  0  0  0  0  0
  -93.2214   24.9698   -1.6095 C   0  0  0  0  0  0  0  0  0  0  0  0
  -93.9925   24.9411   -2.8272 N   0  0  0  0  0  0  0  0  0  0  0  0
  -93.1323   25.3141   -3.9743 C   0  0  0  0  0  0  0  0  0  0  0  0
  -94.0308   25.1160   -5.1986 C   0  0  0  0  0  0  0  0  0  0  0  0
  -95.3813   25.0503   -4.8561 O   0  0  0  0  0  0  0  0  0  0  0  0
  -95.6783   23.8912   -4.1121 C   0  0  0  0  0  0  0  0  0  0  0  0
  -94.5186   23.6150   -3.1461 C   0  0  0  0  0  0  0  0  0  0  0  0
 37 38  1  0  0  0
 38 27  1  0  0  0
 27 28  2  0  0  0
 28 29  1  0  0  0
 29 30  2  0  0  0
 30 26  1  0  0  0
 26  1  1  0  0  0
  1  2  2  0  0  0
  2  3  1  0  0  0
  3  4  2  0  0  0
  4  8  1  0  0  0
  8  9  1  0  0  0
  9 10  2  0  0  0
  9 12  1  0  0  0
 12 13  1  0  0  0
 13 14  1  0  0  0
 12 15  1  0  0  0
 15 16  2  0  0  0
 15 17  1  0  0  0
 17 19  1  0  0  0
 19 20  2  0  0  0
 20 21  1  0  0  0
 21 22  1  0  0  0
 22 23  1  0  0  0
 22 24  1  0  0  0
 24 25  2  0  0  0
  4  5  1  0  0  0
  5  6  2  0  0  0
  6  7  1  0  0  0
 30 31  1  0  0  0
 31 32  2  0  0  0
 32 33  1  0  0  0
 33 34  2  0  0  0
 34 35  1  0  0  0
 35 36  2  0  0  0
 36 39  1  0  0  0
 39 40  1  0  0  0
 40 41  1  0  0  0
 41 42  1  0  0  0
 42 43  1  0  0  0
 43 44  1  0  0  0
 44 45  1  0  0  0
 45 46  1  0  0  0
 46 47  1  0  0  0
 47 48  1  0  0  0
 36 27  1  0  0  0
 48 43  1  0  0  0
 34 29  1  0  0  0
  6  1  1  0  0  0
 14 12  1  0  0  0
 25 19  1  0  0  0
  8 11  1  0  0  0
 17 18  1  0  0  0
M  END
> <minimizedAffinity>
-7.17846

> <CNNscore>
0.0851320773

> <CNNaffinity>
6.2880601883

> <CNN_VS>
0.5353156328

> <CNNaffinity_variance>
0.2625687420

$$$$
[H]C1=C([H])C([H])(F)C([H])([H])C([H])=C1N([H])C(=O)C1(C(=O)N([H])c2c([H])c([H])c(Oc3c([H])c([H])nc4c([H])c(OC([H])([H])C([H])([H])C([H])([H])N5C([H])([H])C([H])([H])OC([H])([H])C5([H])[H])c(OC([H])([H])[H])c([H])c34)c(F)c2[H])C([H])([H])C1([H])[H]


 48 53  0  0  0  0  0  0  0  0999 V2000
  -88.7247   34.5824   -3.7482 C   0  0  0  0  0  0  0  0  0  0  0  0
  -89.5010   33.4996   -4.1370 C   0  0  0  0  0  0  0  0  0  0  0  0
  -89.2638   32.2074   -3.7735 C   0  0  0  0  0  0  0  0  0  0  0  0
  -88.1670   31.9245   -2.9515 C   0  0  0  0  0  0  0  0  0  0  0  0
  -87.3756   32.9638   -2.5441 C   0  0  0  0  0  0  0  0  0  0  0  0
  -87.6449   34.2858   -2.9346 C   0  0  0  0  0  0  0  0  0  0  0  0
  -86.8314   35.2618   -2.4687 F   0  0  0  0  0  0  0  0  0  0  0  0
  -87.9530   30.5613   -2.5397 N   0  0  0  0  0  0  0  0  0  0  0  0
  -88.3258   30.0847   -1.3037 C   0  0  0  0  0  0  0  0  0  0  0  0
  -88.8585   30.9512   -0.4979 O   0  0  0  0  0  0  0  0  0  0  0  0
  -87.4721   29.9847   -3.2469 H   0  0  0  0  0  0  0  0  0  0  0  0
  -88.2247   28.7307   -0.7076 C   0  0  0  0  0  0  0  0  0  0  0  0
  -87.6437   28.7022    0.6960 C   0  0  0  0  0  0  0  0  0  0  0  0
  -86.7329   28.3258   -0.3811 C   0  0  0  0  0  0  0  0  0  0  0  0
  -89.0473   27.5884   -1.1072 C   0  0  0  0  0  0  0  0  0  0  0  0
  -89.9118   27.2228   -0.1867 O   0  0  0  0  0  0  0  0  0  0  0  0
  -89.1109   26.8118   -2.2576 N   0  0  0  0  0  0  0  0  0  0  0  0
  -88.5288   26.9646   -3.0974 H   0  0  0  0  0  0  0  0  0  0  0  0
  -90.0660   25.7084   -2.3637 C   0  0  0  0  0  0  0  0  0  0  0  0
  -91.2135   25.9603   -2.9515 C   0  0  0  0  0  0  0  0  0  0  0  0
  -92.2977   25.0053   -3.1609 C   0  0  0  0  0  0  0  0  0  0  0  0
  -92.0672   23.6527   -2.6091 C   0  0  0  0  0  0  0  0  0  0  0  0
  -92.1579   22.6909   -3.6478 F   0  0  0  0  0  0  0  0  0  0  0  0
  -90.7591   23.4763   -1.9757 C   0  0  0  0  0  0  0  0  0  0  0  0
  -89.8266   24.3985   -1.8500 C   0  0  0  0  0  0  0  0  0  0  0  0
  -89.0203   35.8671   -4.1480 O   0  0  0  0  0  0  0  0  0  0  0  0
  -91.2842   36.3177   -7.5304 C   0  0  0  0  0  0  0  0  0  0  0  0
  -90.5418   36.1588   -6.3927 C   0  0  0  0  0  0  0  0  0  0  0  0
  -89.2313   36.5854   -6.3880 C   0  0  0  0  0  0  0  0  0  0  0  0
  -88.4254   36.4398   -5.2382 C   0  0  0  0  0  0  0  0  0  0  0  0
  -87.1188   36.8676   -5.2562 C   0  0  0  0  0  0  0  0  0  0  0  0
  -86.5757   37.4428   -6.3839 C   0  0  0  0  0  0  0  0  0  0  0  0
  -87.3447   37.5809   -7.4754 N   0  0  0  0  0  0  0  0  0  0  0  0
  -88.6412   37.1639   -7.4820 C   0  0  0  0  0  0  0  0  0  0  0  0
  -89.3984   37.3223   -8.6327 C   0  0  0  0  0  0  0  0  0  0  0  0
  -90.7081   36.9079   -8.6675 C   0  0  0  0  0  0  0  0  0  0  0  0
  -93.6069   36.6396   -6.9597 C   0  0  0  0  0  0  0  0  0  0  0  0
  -92.6041   35.9263   -7.6465 O   0  0  0  0  0  0  0  0  0  0  0  0
  -91.4598   37.0657   -9.7857 O   0  0  0  0  0  0  0  0  0  0  0  0
  -91.2522   36.4208  -10.9894 C   0  0  0  0  0  0  0  0  0  0  0  0
  -91.3078   34.9055  -10.8545 C   0  0  0  0  0  0  0  0  0  0  0  0
  -92.6311   34.4181  -11.4595 C   0  0  0  0  0  0  0  0  0  0  0  0
  -93.5341   34.1229  -10.3753 N   0  0  0  0  0  0  0  0  0  0  0  0
  -94.7010   35.0339  -10.4325 C   0  0  0  0  0  0  0  0  0  0  0  0
  -95.6271   34.5296   -9.3219 C   0  0  0  0  0  0  0  0  0  0  0  0
  -94.9615   33.7058   -8.4142 O   0  0  0  0  0  0  0  0  0  0  0  0
  -94.5602   32.4910   -9.0044 C   0  0  0  0  0  0  0  0  0  0  0  0
  -94.0881   32.7715  -10.4372 C   0  0  0  0  0  0  0  0  0  0  0  0
 37 38  1  0  0  0
 38 27  1  0  0  0
 27 28  2  0  0  0
 28 29  1  0  0  0
 29 30  2  0  0  0
 30 26  1  0  0  0
 26  1  1  0  0  0
  1  2  2  0  0  0
  2  3  1  0  0  0
  3  4  2  0  0  0
  4  8  1  0  0  0
  8  9  1  0  0  0
  9 10  2  0  0  0
  9 12  1  0  0  0
 12 13  1  0  0  0
 13 14  1  0  0  0
 12 15  1  0  0  0
 15 16  2  0  0  0
 15 17  1  0  0  0
 17 19  1  0  0  0
 19 20  2  0  0  0
 20 21  1  0  0  0
 21 22  1  0  0  0
 22 23  1  0  0  0
 22 24  1  0  0  0
 24 25  2  0  0  0
  4  5  1  0  0  0
  5  6  2  0  0  0
  6  7  1  0  0  0
 30 31  1  0  0  0
 31 32  2  0  0  0
 32 33  1  0  0  0
 33 34  2  0  0  0
 34 35  1  0  0  0
 35 36  2  0  0  0
 36 39  1  0  0  0
 39 40  1  0  0  0
 40 41  1  0  0  0
 41 42  1  0  0  0
 42 43  1  0  0  0
 43 44  1  0  0  0
 44 45  1  0  0  0
 45 46  1  0  0  0
 46 47  1  0  0  0
 47 48  1  0  0  0
 36 27  1  0  0  0
 48 43  1  0  0  0
 34 29  1  0  0  0
  6  1  1  0  0  0
 14 12  1  0  0  0
 25 19  1  0  0  0
  8 11  1  0  0  0
 17 18  1  0  0  0
M  END
> <minimizedAffinity>
-6.75654

> <CNNscore>
0.0793190598

> <CNNaffinity>
5.9955420494

> <CNN_VS>
0.4755607545

> <CNNaffinity_variance>
0.5071810484

$$$$
[H]C1=C([H])C([H])(F)C([H])([H])C([H])=C1N([H])C(=O)C1(C(=O)N([H])c2c([H])c([H])c(Oc3c([H])c([H])nc4c([H])c(OC([H])([H])C([H])([H])C([H])([H])N5C([H])([H])C([H])([H])OC([H])([H])C5([H])[H])c(OC([H])([H])[H])c([H])c34)c(F)c2[H])C([H])([H])C1([H])[H]


 48 53  0  0  0  0  0  0  0  0999 V2000
  -88.5914   29.5942   -1.1197 C   0  0  0  0  0  0  0  0  0  0  0  0
  -89.7110   29.6154   -0.2997 C   0  0  0  0  0  0  0  0  0  0  0  0
  -89.9727   28.7001    0.6760 C   0  0  0  0  0  0  0  0  0  0  0  0
  -89.0659   27.6552    0.8866 C   0  0  0  0  0  0  0  0  0  0  0  0
  -87.9475   27.5975    0.1002 C   0  0  0  0  0  0  0  0  0  0  0  0
  -87.7040   28.5554   -0.8976 C   0  0  0  0  0  0  0  0  0  0  0  0
  -86.5624   28.4452   -1.6160 F   0  0  0  0  0  0  0  0  0  0  0  0
  -89.3326   26.7202    1.9488 N   0  0  0  0  0  0  0  0  0  0  0  0
  -89.8072   25.4480    1.7255 C   0  0  0  0  0  0  0  0  0  0  0  0
  -90.0412   25.1382    0.4873 O   0  0  0  0  0  0  0  0  0  0  0  0
  -89.1592   27.1021    2.8911 H   0  0  0  0  0  0  0  0  0  0  0  0
  -90.1115   24.3402    2.6631 C   0  0  0  0  0  0  0  0  0  0  0  0
  -90.8786   23.1839    2.0442 C   0  0  0  0  0  0  0  0  0  0  0  0
  -91.6645   24.1159    2.8474 C   0  0  0  0  0  0  0  0  0  0  0  0
  -89.3496   24.0540    3.8791 C   0  0  0  0  0  0  0  0  0  0  0  0
  -89.1425   25.1165    4.6252 O   0  0  0  0  0  0  0  0  0  0  0  0
  -88.8033   22.8939    4.4145 N   0  0  0  0  0  0  0  0  0  0  0  0
  -88.8863   21.9580    3.9849 H   0  0  0  0  0  0  0  0  0  0  0  0
  -88.0771   22.9256    5.6844 C   0  0  0  0  0  0  0  0  0  0  0  0
  -87.7149   21.7727    6.1994 C   0  0  0  0  0  0  0  0  0  0  0  0
  -86.9850   21.5833    7.4494 C   0  0  0  0  0  0  0  0  0  0  0  0
  -86.6810   22.8204    8.2005 C   0  0  0  0  0  0  0  0  0  0  0  0
  -85.2794   22.9343    8.3868 F   0  0  0  0  0  0  0  0  0  0  0  0
  -87.1261   24.0493    7.5407 C   0  0  0  0  0  0  0  0  0  0  0  0
  -87.7659   24.1257    6.3915 C   0  0  0  0  0  0  0  0  0  0  0  0
  -88.3830   30.5526   -2.0870 O   0  0  0  0  0  0  0  0  0  0  0  0
  -88.6759   33.6634   -4.7339 C   0  0  0  0  0  0  0  0  0  0  0  0
  -88.5895   32.6148   -3.8600 C   0  0  0  0  0  0  0  0  0  0  0  0
  -87.7370   32.7155   -2.7817 C   0  0  0  0  0  0  0  0  0  0  0  0
  -87.6121   31.6581   -1.8549 C   0  0  0  0  0  0  0  0  0  0  0  0
  -86.7521   31.7770   -0.7886 C   0  0  0  0  0  0  0  0  0  0  0  0
  -86.0042   32.9190   -0.6038 C   0  0  0  0  0  0  0  0  0  0  0  0
  -86.1258   33.9232   -1.4862 N   0  0  0  0  0  0  0  0  0  0  0  0
  -86.9703   33.8283   -2.5506 C   0  0  0  0  0  0  0  0  0  0  0  0
  -87.0617   34.8883   -3.4398 C   0  0  0  0  0  0  0  0  0  0  0  0
  -87.9037   34.8178   -4.5235 C   0  0  0  0  0  0  0  0  0  0  0  0
  -90.8739   33.4174   -5.6997 C   0  0  0  0  0  0  0  0  0  0  0  0
  -89.4952   33.6698   -5.8464 O   0  0  0  0  0  0  0  0  0  0  0  0
  -88.0066   35.8524   -5.3949 O   0  0  0  0  0  0  0  0  0  0  0  0
  -88.6523   37.0481   -5.1477 C   0  0  0  0  0  0  0  0  0  0  0  0
  -87.8245   38.2541   -5.5694 C   0  0  0  0  0  0  0  0  0  0  0  0
  -86.3421   37.9134   -5.3662 C   0  0  0  0  0  0  0  0  0  0  0  0
  -85.5718   39.1028   -5.6307 N   0  0  0  0  0  0  0  0  0  0  0  0
  -85.0898   39.6821   -4.3551 C   0  0  0  0  0  0  0  0  0  0  0  0
  -84.1903   40.8444   -4.7856 C   0  0  0  0  0  0  0  0  0  0  0  0
  -84.4129   41.2203   -6.1103 O   0  0  0  0  0  0  0  0  0  0  0  0
  -84.0111   40.2178   -7.0151 C   0  0  0  0  0  0  0  0  0  0  0  0
  -84.3709   38.8481   -6.4244 C   0  0  0  0  0  0  0  0  0  0  0  0
 37 38  1  0  0  0
 38 27  1  0  0  0
 27 28  2  0  0  0
 28 29  1  0  0  0
 29 30  2  0  0  0
 30 26  1  0  0  0
 26  1  1  0  0  0
  1  2  2  0  0  0
  2  3  1  0  0  0
  3  4  2  0  0  0
  4  8  1  0  0  0
  8  9  1  0  0  0
  9 10  2  0  0  0
  9 12  1  0  0  0
 12 13  1  0  0  0
 13 14  1  0  0  0
 12 15  1  0  0  0
 15 16  2  0  0  0
 15 17  1  0  0  0
 17 19  1  0  0  0
 19 20  2  0  0  0
 20 21  1  0  0  0
 21 22  1  0  0  0
 22 23  1  0  0  0
 22 24  1  0  0  0
 24 25  2  0  0  0
  4  5  1  0  0  0
  5  6  2  0  0  0
  6  7  1  0  0  0
 30 31  1  0  0  0
 31 32  2  0  0  0
 32 33  1  0  0  0
 33 34  2  0  0  0
 34 35  1  0  0  0
 35 36  2  0  0  0
 36 39  1  0  0  0
 39 40  1  0  0  0
 40 41  1  0  0  0
 41 42  1  0  0  0
 42 43  1  0  0  0
 43 44  1  0  0  0
 44 45  1  0  0  0
 45 46  1  0  0  0
 46 47  1  0  0  0
 47 48  1  0  0  0
 36 27  1  0  0  0
 48 43  1  0  0  0
 34 29  1  0  0  0
  6  1  1  0  0  0
 14 12  1  0  0  0
 25 19  1  0  0  0
  8 11  1  0  0  0
 17 18  1  0  0  0
M  END
> <minimizedAffinity>
-7.97197

> <CNNscore>
0.0734697282

> <CNNaffinity>
6.6123862267

> <CNN_VS>
0.4858102202

> <CNNaffinity_variance>
0.2743681967

$$$$
[H]C1=C([H])C([H])(F)C([H])([H])C([H])=C1N([H])C(=O)C1(C(=O)N([H])c2c([H])c([H])c(Oc3c([H])c([H])nc4c([H])c(OC([H])([H])C([H])([H])C([H])([H])N5C([H])([H])C([H])([H])OC([H])([H])C5([H])[H])c(OC([H])([H])[H])c([H])c34)c(F)c2[H])C([H])([H])C1([H])[H]


 48 53  0  0  0  0  0  0  0  0999 V2000
  -93.5185   28.3646   -3.3080 C   0  0  0  0  0  0  0  0  0  0  0  0
  -92.2886   28.9332   -3.6083 C   0  0  0  0  0  0  0  0  0  0  0  0
  -91.1031   28.5487   -3.0562 C   0  0  0  0  0  0  0  0  0  0  0  0
  -91.0970   27.5104   -2.1178 C   0  0  0  0  0  0  0  0  0  0  0  0
  -92.2887   26.9210   -1.7937 C   0  0  0  0  0  0  0  0  0  0  0  0
  -93.4950   27.3384   -2.3794 C   0  0  0  0  0  0  0  0  0  0  0  0
  -94.6283   26.6882   -2.0269 F   0  0  0  0  0  0  0  0  0  0  0  0
  -89.8330   27.0851   -1.5747 N   0  0  0  0  0  0  0  0  0  0  0  0
  -89.2652   27.6588   -0.4601 C   0  0  0  0  0  0  0  0  0  0  0  0
  -89.9217   28.6461    0.0673 O   0  0  0  0  0  0  0  0  0  0  0  0
  -89.3828   26.3296   -2.1137 H   0  0  0  0  0  0  0  0  0  0  0  0
  -88.0086   27.3510    0.2644 C   0  0  0  0  0  0  0  0  0  0  0  0
  -87.6654   25.8724    0.3303 C   0  0  0  0  0  0  0  0  0  0  0  0
  -88.2525   26.4472    1.5371 C   0  0  0  0  0  0  0  0  0  0  0  0
  -86.9054   28.2956    0.4434 C   0  0  0  0  0  0  0  0  0  0  0  0
  -86.4042   28.7309   -0.6913 O   0  0  0  0  0  0  0  0  0  0  0  0
  -86.2793   28.8339    1.5611 N   0  0  0  0  0  0  0  0  0  0  0  0
  -86.5520   28.6310    2.5367 H   0  0  0  0  0  0  0  0  0  0  0  0
  -85.1742   29.7818    1.4157 C   0  0  0  0  0  0  0  0  0  0  0  0
  -83.9590   29.3245    1.6152 C   0  0  0  0  0  0  0  0  0  0  0  0
  -82.7249   30.0984    1.5191 C   0  0  0  0  0  0  0  0  0  0  0  0
  -82.8987   31.5343    1.2108 C   0  0  0  0  0  0  0  0  0  0  0  0
  -82.1935   31.8571    0.0232 F   0  0  0  0  0  0  0  0  0  0  0  0
  -84.2901   31.9414    1.0063 C   0  0  0  0  0  0  0  0  0  0  0  0
  -85.3483   31.1614    1.0940 C   0  0  0  0  0  0  0  0  0  0  0  0
  -94.6823   28.7975   -3.9046 O   0  0  0  0  0  0  0  0  0  0  0  0
  -94.6960   31.3148   -7.1344 C   0  0  0  0  0  0  0  0  0  0  0  0
  -94.6861   30.4876   -6.0451 C   0  0  0  0  0  0  0  0  0  0  0  0
  -95.1025   29.1826   -6.1966 C   0  0  0  0  0  0  0  0  0  0  0  0
  -95.1125   28.2928   -5.1007 C   0  0  0  0  0  0  0  0  0  0  0  0
  -95.5365   26.9961   -5.2722 C   0  0  0  0  0  0  0  0  0  0  0  0
  -95.9539   26.5430   -6.5042 C   0  0  0  0  0  0  0  0  0  0  0  0
  -95.9424   27.3910   -7.5447 N   0  0  0  0  0  0  0  0  0  0  0  0
  -95.5277   28.6801   -7.3992 C   0  0  0  0  0  0  0  0  0  0  0  0
  -95.5359   29.5231   -8.5001 C   0  0  0  0  0  0  0  0  0  0  0  0
  -95.1253   30.8290   -8.3806 C   0  0  0  0  0  0  0  0  0  0  0  0
  -93.9980   33.2415   -5.8597 C   0  0  0  0  0  0  0  0  0  0  0  0
  -94.3014   32.6383   -7.0967 O   0  0  0  0  0  0  0  0  0  0  0  0
  -95.1219   31.6597   -9.4531 O   0  0  0  0  0  0  0  0  0  0  0  0
  -96.0458   32.6566   -9.6985 C   0  0  0  0  0  0  0  0  0  0  0  0
  -95.4300   33.8613  -10.3963 C   0  0  0  0  0  0  0  0  0  0  0  0
  -94.5526   33.3522  -11.5478 C   0  0  0  0  0  0  0  0  0  0  0  0
  -93.2922   34.0493  -11.4887 N   0  0  0  0  0  0  0  0  0  0  0  0
  -93.5171   35.5057  -11.6416 C   0  0  0  0  0  0  0  0  0  0  0  0
  -92.1325   36.1248  -11.4295 C   0  0  0  0  0  0  0  0  0  0  0  0
  -91.1098   35.1849  -11.5576 O   0  0  0  0  0  0  0  0  0  0  0  0
  -91.1411   34.2305  -10.5216 C   0  0  0  0  0  0  0  0  0  0  0  0
  -92.6043   33.8909  -10.2086 C   0  0  0  0  0  0  0  0  0  0  0  0
 37 38  1  0  0  0
 38 27  1  0  0  0
 27 28  2  0  0  0
 28 29  1  0  0  0
 29 30  2  0  0  0
 30 26  1  0  0  0
 26  1  1  0  0  0
  1  2  2  0  0  0
  2  3  1  0  0  0
  3  4  2  0  0  0
  4  8  1  0  0  0
  8  9  1  0  0  0
  9 10  2  0  0  0
  9 12  1  0  0  0
 12 13  1  0  0  0
 13 14  1  0  0  0
 12 15  1  0  0  0
 15 16  2  0  0  0
 15 17  1  0  0  0
 17 19  1  0  0  0
 19 20  2  0  0  0
 20 21  1  0  0  0
 21 22  1  0  0  0
 22 23  1  0  0  0
 22 24  1  0  0  0
 24 25  2  0  0  0
  4  5  1  0  0  0
  5  6  2  0  0  0
  6  7  1  0  0  0
 30 31  1  0  0  0
 31 32  2  0  0  0
 32 33  1  0  0  0
 33 34  2  0  0  0
 34 35  1  0  0  0
 35 36  2  0  0  0
 36 39  1  0  0  0
 39 40  1  0  0  0
 40 41  1  0  0  0
 41 42  1  0  0  0
 42 43  1  0  0  0
 43 44  1  0  0  0
 44 45  1  0  0  0
 45 46  1  0  0  0
 46 47  1  0  0  0
 47 48  1  0  0  0
 36 27  1  0  0  0
 48 43  1  0  0  0
 34 29  1  0  0  0
  6  1  1  0  0  0
 14 12  1  0  0  0
 25 19  1  0  0  0
  8 11  1  0  0  0
 17 18  1  0  0  0
M  END
> <minimizedAffinity>
-7.31616

> <CNNscore>
0.0720395446

> <CNNaffinity>
5.9800252914

> <CNN_VS>
0.4307982922

> <CNNaffinity_variance>
0.1475184858

$$$$
[H]c1nc(N([H])c2c([H])c(OC([H])([H])[H])c(OC([H])([H])[H])c(OC([H])([H])[H])c2[H])nc(N([H])c2nc3c(c([H])c2[H])OC(C([H])([H])[H])(C([H])([H])[H])C(=O)N3[H])c1Cl


 37 40  0  0  0  0  0  0  0  0999 V2000
  -89.0119   32.7891   -5.0208 C   0  0  0  0  0  0  0  0  0  0  0  0
  -89.3520   33.8785   -5.6917 N   0  0  0  0  0  0  0  0  0  0  0  0
  -88.7853   35.0871   -5.5944 C   0  0  0  0  0  0  0  0  0  0  0  0
  -87.7424   35.2190   -4.7090 C   0  0  0  0  0  0  0  0  0  0  0  0
  -86.9010   36.7221   -4.4662 Cl  0  0  0  0  0  0  0  0  0  0  0  0
  -87.3253   34.1187   -3.9658 C   0  0  0  0  0  0  0  0  0  0  0  0
  -87.9656   32.9639   -4.1469 N   0  0  0  0  0  0  0  0  0  0  0  0
  -89.5884   31.5054   -5.1016 N   0  0  0  0  0  0  0  0  0  0  0  0
  -89.5928   31.0820   -6.0863 H   0  0  0  0  0  0  0  0  0  0  0  0
  -91.9294   29.8867   -2.6666 C   0  0  0  0  0  0  0  0  0  0  0  0
  -91.4453   30.6246   -3.7613 C   0  0  0  0  0  0  0  0  0  0  0  0
  -90.1387   30.7709   -4.0383 C   0  0  0  0  0  0  0  0  0  0  0  0
  -89.2319   30.1419   -3.1717 C   0  0  0  0  0  0  0  0  0  0  0  0
  -89.6856   29.4186   -2.1000 C   0  0  0  0  0  0  0  0  0  0  0  0
  -91.0374   29.2743   -1.8227 C   0  0  0  0  0  0  0  0  0  0  0  0
  -94.1093   30.9028   -2.6084 C   0  0  0  0  0  0  0  0  0  0  0  0
  -93.2891   29.7672   -2.4248 O   0  0  0  0  0  0  0  0  0  0  0  0
  -88.7935   28.8010   -1.2492 O   0  0  0  0  0  0  0  0  0  0  0  0
  -87.5457   28.3814   -1.7601 C   0  0  0  0  0  0  0  0  0  0  0  0
  -91.4979   28.5412   -0.7360 O   0  0  0  0  0  0  0  0  0  0  0  0
  -91.6907   27.1581   -0.8927 C   0  0  0  0  0  0  0  0  0  0  0  0
  -86.2603   34.2053   -3.0455 N   0  0  0  0  0  0  0  0  0  0  0  0
  -85.5219   34.9355   -3.1650 H   0  0  0  0  0  0  0  0  0  0  0  0
  -86.1872   33.3021   -1.9545 C   0  0  0  0  0  0  0  0  0  0  0  0
  -87.3608   32.7475   -1.4184 C   0  0  0  0  0  0  0  0  0  0  0  0
  -87.2625   31.8738   -0.3601 C   0  0  0  0  0  0  0  0  0  0  0  0
  -86.0467   31.5289    0.1869 C   0  0  0  0  0  0  0  0  0  0  0  0
  -85.9301   30.6511    1.2524 O   0  0  0  0  0  0  0  0  0  0  0  0
  -84.7703   30.5755    2.0587 C   0  0  0  0  0  0  0  0  0  0  0  0
  -84.6344   29.1690    2.6319 C   0  0  0  0  0  0  0  0  0  0  0  0
  -84.8520   31.6036    3.1503 C   0  0  0  0  0  0  0  0  0  0  0  0
  -83.5263   30.8438    1.2839 C   0  0  0  0  0  0  0  0  0  0  0  0
  -82.4351   30.2829    1.5991 O   0  0  0  0  0  0  0  0  0  0  0  0
  -83.6260   31.7458    0.1921 N   0  0  0  0  0  0  0  0  0  0  0  0
  -84.8994   32.0874   -0.3568 C   0  0  0  0  0  0  0  0  0  0  0  0
  -85.0286   32.9364   -1.3888 N   0  0  0  0  0  0  0  0  0  0  0  0
  -82.7666   32.1582   -0.2080 H   0  0  0  0  0  0  0  0  0  0  0  0
 16 17  1  0  0  0
 17 10  1  0  0  0
 10 11  2  0  0  0
 11 12  1  0  0  0
 12  8  1  0  0  0
  8  1  1  0  0  0
  1  2  2  0  0  0
  2  3  1  0  0  0
  3  4  2  0  0  0
  4  5  1  0  0  0
  4  6  1  0  0  0
  6 22  1  0  0  0
 22 24  1  0  0  0
 24 25  2  0  0  0
 25 26  1  0  0  0
 26 27  2  0  0  0
 27 28  1  0  0  0
 28 29  1  0  0  0
 29 30  1  0  0  0
 29 31  1  0  0  0
 29 32  1  0  0  0
 32 33  2  0  0  0
 32 34  1  0  0  0
 34 35  1  0  0  0
 35 36  2  0  0  0
  6  7  2  0  0  0
 12 13  2  0  0  0
 13 14  1  0  0  0
 14 18  1  0  0  0
 18 19  1  0  0  0
 14 15  2  0  0  0
 15 20  1  0  0  0
 20 21  1  0  0  0
 15 10  1  0  0  0
  7  1  1  0  0  0
 36 24  1  0  0  0
 35 27  1  0  0  0
  8  9  1  0  0  0
 22 23  1  0  0  0
 34 37  1  0  0  0
M  END
> <minimizedAffinity>
-8.45548

> <CNNscore>
0.5150918365

> <CNNaffinity>
7.1093416214

> <CNN_VS>
3.6619639397

> <CNNaffinity_variance>
0.1453215778

$$$$
[H]c1nc(N([H])c2c([H])c(OC([H])([H])[H])c(OC([H])([H])[H])c(OC([H])([H])[H])c2[H])nc(N([H])c2nc3c(c([H])c2[H])OC(C([H])([H])[H])(C([H])([H])[H])C(=O)N3[H])c1Cl


 37 40  0  0  0  0  0  0  0  0999 V2000
  -85.1812   31.9098    0.3099 C   0  0  0  0  0  0  0  0  0  0  0  0
  -83.9294   32.1828    0.6433 N   0  0  0  0  0  0  0  0  0  0  0  0
  -83.0443   31.3384    1.1863 C   0  0  0  0  0  0  0  0  0  0  0  0
  -83.4711   30.0539    1.4253 C   0  0  0  0  0  0  0  0  0  0  0  0
  -82.4431   28.8378    2.1256 Cl  0  0  0  0  0  0  0  0  0  0  0  0
  -84.7746   29.6890    1.1020 C   0  0  0  0  0  0  0  0  0  0  0  0
  -85.5677   30.6159    0.5652 N   0  0  0  0  0  0  0  0  0  0  0  0
  -86.1348   32.7759   -0.2622 N   0  0  0  0  0  0  0  0  0  0  0  0
  -86.1806   33.7466    0.1900 H   0  0  0  0  0  0  0  0  0  0  0  0
  -88.7025   31.2117   -2.4961 C   0  0  0  0  0  0  0  0  0  0  0  0
  -87.8791   31.4653   -1.3848 C   0  0  0  0  0  0  0  0  0  0  0  0
  -86.9967   32.4771   -1.3304 C   0  0  0  0  0  0  0  0  0  0  0  0
  -86.9148   33.3092   -2.4572 C   0  0  0  0  0  0  0  0  0  0  0  0
  -87.7096   33.0773   -3.5490 C   0  0  0  0  0  0  0  0  0  0  0  0
  -88.6174   32.0289   -3.5950 C   0  0  0  0  0  0  0  0  0  0  0  0
  -90.7822   30.2670   -1.7413 C   0  0  0  0  0  0  0  0  0  0  0  0
  -89.5969   30.1527   -2.5015 O   0  0  0  0  0  0  0  0  0  0  0  0
  -87.6282   33.8957   -4.6557 O   0  0  0  0  0  0  0  0  0  0  0  0
  -87.2963   35.2560   -4.4726 C   0  0  0  0  0  0  0  0  0  0  0  0
  -89.4233   31.7933   -4.7020 O   0  0  0  0  0  0  0  0  0  0  0  0
  -90.6565   32.4612   -4.7887 C   0  0  0  0  0  0  0  0  0  0  0  0
  -85.2577   28.3836    1.3287 N   0  0  0  0  0  0  0  0  0  0  0  0
  -84.6349   27.6606    1.7557 H   0  0  0  0  0  0  0  0  0  0  0  0
  -86.5900   28.0468    0.9782 C   0  0  0  0  0  0  0  0  0  0  0  0
  -87.5876   27.9965    1.9655 C   0  0  0  0  0  0  0  0  0  0  0  0
  -88.8722   27.6672    1.5993 C   0  0  0  0  0  0  0  0  0  0  0  0
  -89.2060   27.3860    0.2932 C   0  0  0  0  0  0  0  0  0  0  0  0
  -90.4944   27.0527   -0.0924 O   0  0  0  0  0  0  0  0  0  0  0  0
  -90.7838   26.4052   -1.3163 C   0  0  0  0  0  0  0  0  0  0  0  0
  -92.1882   26.7813   -1.7762 C   0  0  0  0  0  0  0  0  0  0  0  0
  -90.6469   24.9200   -1.1412 C   0  0  0  0  0  0  0  0  0  0  0  0
  -89.8530   26.8150   -2.4050 C   0  0  0  0  0  0  0  0  0  0  0  0
  -90.2442   26.8535   -3.6093 O   0  0  0  0  0  0  0  0  0  0  0  0
  -88.5267   27.1542   -2.0288 N   0  0  0  0  0  0  0  0  0  0  0  0
  -88.2065   27.4412   -0.6669 C   0  0  0  0  0  0  0  0  0  0  0  0
  -86.9632   27.7655   -0.2778 N   0  0  0  0  0  0  0  0  0  0  0  0
  -87.7870   27.1934   -2.7498 H   0  0  0  0  0  0  0  0  0  0  0  0
 16 17  1  0  0  0
 17 10  1  0  0  0
 10 11  2  0  0  0
 11 12  1  0  0  0
 12  8  1  0  0  0
  8  1  1  0  0  0
  1  2  2  0  0  0
  2  3  1  0  0  0
  3  4  2  0  0  0
  4  5  1  0  0  0
  4  6  1  0  0  0
  6 22  1  0  0  0
 22 24  1  0  0  0
 24 25  2  0  0  0
 25 26  1  0  0  0
 26 27  2  0  0  0
 27 28  1  0  0  0
 28 29  1  0  0  0
 29 30  1  0  0  0
 29 31  1  0  0  0
 29 32  1  0  0  0
 32 33  2  0  0  0
 32 34  1  0  0  0
 34 35  1  0  0  0
 35 36  2  0  0  0
  6  7  2  0  0  0
 12 13  2  0  0  0
 13 14  1  0  0  0
 14 18  1  0  0  0
 18 19  1  0  0  0
 14 15  2  0  0  0
 15 20  1  0  0  0
 20 21  1  0  0  0
 15 10  1  0  0  0
  7  1  1  0  0  0
 36 24  1  0  0  0
 35 27  1  0  0  0
  8  9  1  0  0  0
 22 23  1  0  0  0
 34 37  1  0  0  0
M  END
> <minimizedAffinity>
-8.65813

> <CNNscore>
0.4556087554

> <CNNaffinity>
7.3840012550

> <CNN_VS>
3.3642156124

> <CNNaffinity_variance>
0.3603463769

$$$$
[H]c1nc(N([H])c2c([H])c(OC([H])([H])[H])c(OC([H])([H])[H])c(OC([H])([H])[H])c2[H])nc(N([H])c2nc3c(c([H])c2[H])OC(C([H])([H])[H])(C([H])([H])[H])C(=O)N3[H])c1Cl


 37 40  0  0  0  0  0  0  0  0999 V2000
  -85.1610   31.8443    0.4581 C   0  0  0  0  0  0  0  0  0  0  0  0
  -83.8769   32.0750    0.6826 N   0  0  0  0  0  0  0  0  0  0  0  0
  -82.9846   31.2112    1.1815 C   0  0  0  0  0  0  0  0  0  0  0  0
  -83.4405   29.9532    1.4956 C   0  0  0  0  0  0  0  0  0  0  0  0
  -82.4078   28.7169    2.1522 Cl  0  0  0  0  0  0  0  0  0  0  0  0
  -84.7789   29.6330    1.2882 C   0  0  0  0  0  0  0  0  0  0  0  0
  -85.5758   30.5756    0.7854 N   0  0  0  0  0  0  0  0  0  0  0  0
  -86.1230   32.7318   -0.0652 N   0  0  0  0  0  0  0  0  0  0  0  0
  -86.2703   33.6201    0.5163 H   0  0  0  0  0  0  0  0  0  0  0  0
  -87.6209   33.0770   -3.4809 C   0  0  0  0  0  0  0  0  0  0  0  0
  -86.8246   33.3069   -2.3450 C   0  0  0  0  0  0  0  0  0  0  0  0
  -86.8754   32.5483   -1.2372 C   0  0  0  0  0  0  0  0  0  0  0  0
  -87.7803   31.4760   -1.2430 C   0  0  0  0  0  0  0  0  0  0  0  0
  -88.5641   31.2368   -2.3412 C   0  0  0  0  0  0  0  0  0  0  0  0
  -88.5041   32.0268   -3.4802 C   0  0  0  0  0  0  0  0  0  0  0  0
  -87.2690   35.2667   -4.4132 C   0  0  0  0  0  0  0  0  0  0  0  0
  -87.5301   33.8907   -4.5994 O   0  0  0  0  0  0  0  0  0  0  0  0
  -89.4529   30.1827   -2.3457 O   0  0  0  0  0  0  0  0  0  0  0  0
  -90.6268   30.2796   -1.5666 C   0  0  0  0  0  0  0  0  0  0  0  0
  -89.2989   31.7848   -4.5939 O   0  0  0  0  0  0  0  0  0  0  0  0
  -90.5440   32.4298   -4.6828 C   0  0  0  0  0  0  0  0  0  0  0  0
  -85.2927   28.3560    1.5950 N   0  0  0  0  0  0  0  0  0  0  0  0
  -84.7038   27.6641    2.1120 H   0  0  0  0  0  0  0  0  0  0  0  0
  -86.6099   28.0058    1.2034 C   0  0  0  0  0  0  0  0  0  0  0  0
  -87.6300   27.9125    2.1643 C   0  0  0  0  0  0  0  0  0  0  0  0
  -88.8994   27.5710    1.7583 C   0  0  0  0  0  0  0  0  0  0  0  0
  -89.1966   27.3185    0.4376 C   0  0  0  0  0  0  0  0  0  0  0  0
  -90.4692   26.9735    0.0120 O   0  0  0  0  0  0  0  0  0  0  0  0
  -90.7176   26.3535   -1.2349 C   0  0  0  0  0  0  0  0  0  0  0  0
  -92.1169   26.7174   -1.7193 C   0  0  0  0  0  0  0  0  0  0  0  0
  -90.5585   24.8668   -1.0949 C   0  0  0  0  0  0  0  0  0  0  0  0
  -89.7681   26.8076   -2.2896 C   0  0  0  0  0  0  0  0  0  0  0  0
  -90.1309   26.8710   -3.5017 O   0  0  0  0  0  0  0  0  0  0  0  0
  -88.4576   27.1594   -1.8723 N   0  0  0  0  0  0  0  0  0  0  0  0
  -88.1754   27.4160   -0.4960 C   0  0  0  0  0  0  0  0  0  0  0  0
  -86.9477   27.7512   -0.0683 N   0  0  0  0  0  0  0  0  0  0  0  0
  -87.7015   27.2301   -2.5737 H   0  0  0  0  0  0  0  0  0  0  0  0
 16 17  1  0  0  0
 17 10  1  0  0  0
 10 11  2  0  0  0
 11 12  1  0  0  0
 12  8  1  0  0  0
  8  1  1  0  0  0
  1  2  2  0  0  0
  2  3  1  0  0  0
  3  4  2  0  0  0
  4  5  1  0  0  0
  4  6  1  0  0  0
  6 22  1  0  0  0
 22 24  1  0  0  0
 24 25  2  0  0  0
 25 26  1  0  0  0
 26 27  2  0  0  0
 27 28  1  0  0  0
 28 29  1  0  0  0
 29 30  1  0  0  0
 29 31  1  0  0  0
 29 32  1  0  0  0
 32 33  2  0  0  0
 32 34  1  0  0  0
 34 35  1  0  0  0
 35 36  2  0  0  0
  6  7  2  0  0  0
 12 13  2  0  0  0
 13 14  1  0  0  0
 14 18  1  0  0  0
 18 19  1  0  0  0
 14 15  2  0  0  0
 15 20  1  0  0  0
 20 21  1  0  0  0
 15 10  1  0  0  0
  7  1  1  0  0  0
 36 24  1  0  0  0
 35 27  1  0  0  0
  8  9  1  0  0  0
 22 23  1  0  0  0
 34 37  1  0  0  0
M  END
> <minimizedAffinity>
-8.62101

> <CNNscore>
0.4176988900

> <CNNaffinity>
7.3701276779

> <CNN_VS>
3.0784940720

> <CNNaffinity_variance>
0.3423144519

$$$$
[H]c1nc(N([H])c2c([H])c(OC([H])([H])[H])c(OC([H])([H])[H])c(OC([H])([H])[H])c2[H])nc(N([H])c2nc3c(c([H])c2[H])OC(C([H])([H])[H])(C([H])([H])[H])C(=O)N3[H])c1Cl


 37 40  0  0  0  0  0  0  0  0999 V2000
  -85.2637   29.3165    1.8188 C   0  0  0  0  0  0  0  0  0  0  0  0
  -84.0090   28.9339    1.9972 N   0  0  0  0  0  0  0  0  0  0  0  0
  -82.9088   29.6175    1.6600 C   0  0  0  0  0  0  0  0  0  0  0  0
  -83.0922   30.8438    1.0671 C   0  0  0  0  0  0  0  0  0  0  0  0
  -81.7662   31.8544    0.5703 Cl  0  0  0  0  0  0  0  0  0  0  0  0
  -84.3823   31.3166    0.8453 C   0  0  0  0  0  0  0  0  0  0  0  0
  -85.4028   30.5474    1.2234 N   0  0  0  0  0  0  0  0  0  0  0  0
  -86.4399   28.6202    2.1627 N   0  0  0  0  0  0  0  0  0  0  0  0
  -86.5854   28.4877    3.2163 H   0  0  0  0  0  0  0  0  0  0  0  0
  -88.4384   27.7806   -0.8921 C   0  0  0  0  0  0  0  0  0  0  0  0
  -87.4425   28.3159   -0.0561 C   0  0  0  0  0  0  0  0  0  0  0  0
  -87.3936   28.1038    1.2698 C   0  0  0  0  0  0  0  0  0  0  0  0
  -88.4030   27.3007    1.8219 C   0  0  0  0  0  0  0  0  0  0  0  0
  -89.3814   26.7705    1.0224 C   0  0  0  0  0  0  0  0  0  0  0  0
  -89.4229   26.9962   -0.3460 C   0  0  0  0  0  0  0  0  0  0  0  0
  -87.8300   29.2128   -2.7268 C   0  0  0  0  0  0  0  0  0  0  0  0
  -88.4435   28.0307   -2.2555 O   0  0  0  0  0  0  0  0  0  0  0  0
  -90.3729   25.9814    1.5661 O   0  0  0  0  0  0  0  0  0  0  0  0
  -90.0279   25.0534    2.5731 C   0  0  0  0  0  0  0  0  0  0  0  0
  -90.4150   26.4590   -1.1570 O   0  0  0  0  0  0  0  0  0  0  0  0
  -90.2152   25.1801   -1.7039 C   0  0  0  0  0  0  0  0  0  0  0  0
  -84.6202   32.5681    0.2404 N   0  0  0  0  0  0  0  0  0  0  0  0
  -83.9560   33.3604    0.3954 H   0  0  0  0  0  0  0  0  0  0  0  0
  -85.7614   32.7566   -0.5802 C   0  0  0  0  0  0  0  0  0  0  0  0
  -87.0217   32.3119   -0.1483 C   0  0  0  0  0  0  0  0  0  0  0  0
  -88.1129   32.5068   -0.9632 C   0  0  0  0  0  0  0  0  0  0  0  0
  -88.0033   33.1250   -2.1889 C   0  0  0  0  0  0  0  0  0  0  0  0
  -89.0917   33.3290   -3.0215 O   0  0  0  0  0  0  0  0  0  0  0  0
  -88.9582   33.6035   -4.4027 C   0  0  0  0  0  0  0  0  0  0  0  0
  -90.1489   34.4281   -4.8796 C   0  0  0  0  0  0  0  0  0  0  0  0
  -88.8505   32.3119   -5.1613 C   0  0  0  0  0  0  0  0  0  0  0  0
  -87.7368   34.4020   -4.7035 C   0  0  0  0  0  0  0  0  0  0  0  0
  -87.7216   35.2203   -5.6704 O   0  0  0  0  0  0  0  0  0  0  0  0
  -86.6096   34.2012   -3.8640 N   0  0  0  0  0  0  0  0  0  0  0  0
  -86.7501   33.5569   -2.5972 C   0  0  0  0  0  0  0  0  0  0  0  0
  -85.7052   33.3520   -1.7795 N   0  0  0  0  0  0  0  0  0  0  0  0
  -85.6787   34.5258   -4.1749 H   0  0  0  0  0  0  0  0  0  0  0  0
 16 17  1  0  0  0
 17 10  1  0  0  0
 10 11  2  0  0  0
 11 12  1  0  0  0
 12  8  1  0  0  0
  8  1  1  0  0  0
  1  2  2  0  0  0
  2  3  1  0  0  0
  3  4  2  0  0  0
  4  5  1  0  0  0
  4  6  1  0  0  0
  6 22  1  0  0  0
 22 24  1  0  0  0
 24 25  2  0  0  0
 25 26  1  0  0  0
 26 27  2  0  0  0
 27 28  1  0  0  0
 28 29  1  0  0  0
 29 30  1  0  0  0
 29 31  1  0  0  0
 29 32  1  0  0  0
 32 33  2  0  0  0
 32 34  1  0  0  0
 34 35  1  0  0  0
 35 36  2  0  0  0
  6  7  2  0  0  0
 12 13  2  0  0  0
 13 14  1  0  0  0
 14 18  1  0  0  0
 18 19  1  0  0  0
 14 15  2  0  0  0
 15 20  1  0  0  0
 20 21  1  0  0  0
 15 10  1  0  0  0
  7  1  1  0  0  0
 36 24  1  0  0  0
 35 27  1  0  0  0
  8  9  1  0  0  0
 22 23  1  0  0  0
 34 37  1  0  0  0
M  END
> <minimizedAffinity>
-8.61797

> <CNNscore>
0.3901859820

> <CNNaffinity>
7.3616499901

> <CNN_VS>
2.8724126816

> <CNNaffinity_variance>
0.2640222907

$$$$
[H]c1nc(N([H])c2c([H])c(OC([H])([H])[H])c(OC([H])([H])[H])c(OC([H])([H])[H])c2[H])nc(N([H])c2nc3c(c([H])c2[H])OC(C([H])([H])[H])(C([H])([H])[H])C(=O)N3[H])c1Cl


 37 40  0  0  0  0  0  0  0  0999 V2000
  -84.6540   32.5712   -0.0168 C   0  0  0  0  0  0  0  0  0  0  0  0
  -83.3347   32.4987    0.0655 N   0  0  0  0  0  0  0  0  0  0  0  0
  -82.6217   31.5204    0.6363 C   0  0  0  0  0  0  0  0  0  0  0  0
  -83.3240   30.4805    1.1970 C   0  0  0  0  0  0  0  0  0  0  0  0
  -82.5458   29.1339    1.9763 Cl  0  0  0  0  0  0  0  0  0  0  0  0
  -84.7150   30.4838    1.1512 C   0  0  0  0  0  0  0  0  0  0  0  0
  -85.3177   31.5126    0.5557 N   0  0  0  0  0  0  0  0  0  0  0  0
  -85.4314   33.5861   -0.6102 N   0  0  0  0  0  0  0  0  0  0  0  0
  -85.1095   34.5827   -0.3819 H   0  0  0  0  0  0  0  0  0  0  0  0
  -87.8235   33.5777   -3.4926 C   0  0  0  0  0  0  0  0  0  0  0  0
  -86.6638   33.7787   -2.7232 C   0  0  0  0  0  0  0  0  0  0  0  0
  -86.5507   33.4013   -1.4386 C   0  0  0  0  0  0  0  0  0  0  0  0
  -87.6653   32.7750   -0.8606 C   0  0  0  0  0  0  0  0  0  0  0  0
  -88.8038   32.5707   -1.5952 C   0  0  0  0  0  0  0  0  0  0  0  0
  -88.9102   32.9649   -2.9213 C   0  0  0  0  0  0  0  0  0  0  0  0
  -87.5901   35.3337   -5.1204 C   0  0  0  0  0  0  0  0  0  0  0  0
  -87.8887   33.9869   -4.8154 O   0  0  0  0  0  0  0  0  0  0  0  0
  -89.8984   31.9552   -1.0260 O   0  0  0  0  0  0  0  0  0  0  0  0
  -89.7721   30.6222   -0.5773 C   0  0  0  0  0  0  0  0  0  0  0  0
  -90.0645   32.7582   -3.6666 O   0  0  0  0  0  0  0  0  0  0  0  0
  -90.2025   31.5486   -4.3684 C   0  0  0  0  0  0  0  0  0  0  0  0
  -85.4785   29.4394    1.7125 N   0  0  0  0  0  0  0  0  0  0  0  0
  -85.4396   29.2554    2.7409 H   0  0  0  0  0  0  0  0  0  0  0  0
  -86.3017   28.6349    0.8841 C   0  0  0  0  0  0  0  0  0  0  0  0
  -86.3431   28.8611   -0.5014 C   0  0  0  0  0  0  0  0  0  0  0  0
  -87.1499   28.0666   -1.2830 C   0  0  0  0  0  0  0  0  0  0  0  0
  -87.9167   27.0573   -0.7446 C   0  0  0  0  0  0  0  0  0  0  0  0
  -88.7343   26.2485   -1.5172 O   0  0  0  0  0  0  0  0  0  0  0  0
  -89.7903   25.4824   -0.9704 C   0  0  0  0  0  0  0  0  0  0  0  0
  -90.0304   24.2490   -1.8343 C   0  0  0  0  0  0  0  0  0  0  0  0
  -91.0262   26.3302   -0.8752 C   0  0  0  0  0  0  0  0  0  0  0  0
  -89.4788   24.9902    0.4009 C   0  0  0  0  0  0  0  0  0  0  0  0
  -89.9441   23.8862    0.8125 O   0  0  0  0  0  0  0  0  0  0  0  0
  -88.6471   25.8094    1.2089 N   0  0  0  0  0  0  0  0  0  0  0  0
  -87.8618   26.8500    0.6257 C   0  0  0  0  0  0  0  0  0  0  0  0
  -87.0650   27.6419    1.3609 N   0  0  0  0  0  0  0  0  0  0  0  0
  -88.6112   25.6491    2.2295 H   0  0  0  0  0  0  0  0  0  0  0  0
 16 17  1  0  0  0
 17 10  1  0  0  0
 10 11  2  0  0  0
 11 12  1  0  0  0
 12  8  1  0  0  0
  8  1  1  0  0  0
  1  2  2  0  0  0
  2  3  1  0  0  0
  3  4  2  0  0  0
  4  5  1  0  0  0
  4  6  1  0  0  0
  6 22  1  0  0  0
 22 24  1  0  0  0
 24 25  2  0  0  0
 25 26  1  0  0  0
 26 27  2  0  0  0
 27 28  1  0  0  0
 28 29  1  0  0  0
 29 30  1  0  0  0
 29 31  1  0  0  0
 29 32  1  0  0  0
 32 33  2  0  0  0
 32 34  1  0  0  0
 34 35  1  0  0  0
 35 36  2  0  0  0
  6  7  2  0  0  0
 12 13  2  0  0  0
 13 14  1  0  0  0
 14 18  1  0  0  0
 18 19  1  0  0  0
 14 15  2  0  0  0
 15 20  1  0  0  0
 20 21  1  0  0  0
 15 10  1  0  0  0
  7  1  1  0  0  0
 36 24  1  0  0  0
 35 27  1  0  0  0
  8  9  1  0  0  0
 22 23  1  0  0  0
 34 37  1  0  0  0
M  END
> <minimizedAffinity>
-9.29438

> <CNNscore>
0.3441931605

> <CNNaffinity>
7.3590188026

> <CNN_VS>
2.5329239368

> <CNNaffinity_variance>
0.1904225647

$$$$
[H]c1nc(N([H])c2c([H])c(OC([H])([H])[H])c(OC([H])([H])[H])c(OC([H])([H])[H])c2[H])nc(N([H])c2nc3c(c([H])c2[H])OC(C([H])([H])[H])(C([H])([H])[H])C(=O)N3[H])c1Cl


 37 40  0  0  0  0  0  0  0  0999 V2000
  -84.6483   32.5430    0.0136 C   0  0  0  0  0  0  0  0  0  0  0  0
  -83.3285   32.4821    0.0976 N   0  0  0  0  0  0  0  0  0  0  0  0
  -82.6075   31.5083    0.6661 C   0  0  0  0  0  0  0  0  0  0  0  0
  -83.3013   30.4601    1.2221 C   0  0  0  0  0  0  0  0  0  0  0  0
  -82.5121   29.1179    1.9978 Cl  0  0  0  0  0  0  0  0  0  0  0  0
  -84.6922   30.4511    1.1742 C   0  0  0  0  0  0  0  0  0  0  0  0
  -85.3033   31.4764    0.5814 N   0  0  0  0  0  0  0  0  0  0  0  0
  -85.4340   33.5530   -0.5774 N   0  0  0  0  0  0  0  0  0  0  0  0
  -85.0636   34.5477   -0.4285 H   0  0  0  0  0  0  0  0  0  0  0  0
  -88.8801   32.5823   -1.6786 C   0  0  0  0  0  0  0  0  0  0  0  0
  -87.7327   32.7513   -0.8834 C   0  0  0  0  0  0  0  0  0  0  0  0
  -86.6171   33.3658   -1.3112 C   0  0  0  0  0  0  0  0  0  0  0  0
  -86.6266   33.8556   -2.6261 C   0  0  0  0  0  0  0  0  0  0  0  0
  -87.7359   33.7001   -3.4153 C   0  0  0  0  0  0  0  0  0  0  0  0
  -88.8829   33.0633   -2.9636 C   0  0  0  0  0  0  0  0  0  0  0  0
  -89.9323   30.5528   -0.9291 C   0  0  0  0  0  0  0  0  0  0  0  0
  -90.0062   31.9396   -1.1886 O   0  0  0  0  0  0  0  0  0  0  0  0
  -87.7440   34.1819   -4.7072 O   0  0  0  0  0  0  0  0  0  0  0  0
  -87.3834   35.5284   -4.9332 C   0  0  0  0  0  0  0  0  0  0  0  0
  -90.0079   32.9053   -3.7637 O   0  0  0  0  0  0  0  0  0  0  0  0
  -90.1071   31.7532   -4.5620 C   0  0  0  0  0  0  0  0  0  0  0  0
  -85.4471   29.3979    1.7307 N   0  0  0  0  0  0  0  0  0  0  0  0
  -85.3972   29.2018    2.7564 H   0  0  0  0  0  0  0  0  0  0  0  0
  -86.2764   28.6009    0.9012 C   0  0  0  0  0  0  0  0  0  0  0  0
  -86.3107   28.8247   -0.4849 C   0  0  0  0  0  0  0  0  0  0  0  0
  -87.1237   28.0377   -1.2676 C   0  0  0  0  0  0  0  0  0  0  0  0
  -87.9034   27.0381   -0.7298 C   0  0  0  0  0  0  0  0  0  0  0  0
  -88.7274   26.2368   -1.5035 O   0  0  0  0  0  0  0  0  0  0  0  0
  -89.7937   25.4836   -0.9588 C   0  0  0  0  0  0  0  0  0  0  0  0
  -90.0445   24.2512   -1.8211 C   0  0  0  0  0  0  0  0  0  0  0  0
  -91.0203   26.3453   -0.8693 C   0  0  0  0  0  0  0  0  0  0  0  0
  -89.4921   24.9907    0.4145 C   0  0  0  0  0  0  0  0  0  0  0  0
  -89.9711   23.8928    0.8267 O   0  0  0  0  0  0  0  0  0  0  0  0
  -88.6541   25.8023    1.2236 N   0  0  0  0  0  0  0  0  0  0  0  0
  -87.8553   26.8329    0.6411 C   0  0  0  0  0  0  0  0  0  0  0  0
  -87.0522   27.6174    1.3774 N   0  0  0  0  0  0  0  0  0  0  0  0
  -88.6234   25.6436    2.2447 H   0  0  0  0  0  0  0  0  0  0  0  0
 16 17  1  0  0  0
 17 10  1  0  0  0
 10 11  2  0  0  0
 11 12  1  0  0  0
 12  8  1  0  0  0
  8  1  1  0  0  0
  1  2  2  0  0  0
  2  3  1  0  0  0
  3  4  2  0  0  0
  4  5  1  0  0  0
  4  6  1  0  0  0
  6 22  1  0  0  0
 22 24  1  0  0  0
 24 25  2  0  0  0
 25 26  1  0  0  0
 26 27  2  0  0  0
 27 28  1  0  0  0
 28 29  1  0  0  0
 29 30  1  0  0  0
 29 31  1  0  0  0
 29 32  1  0  0  0
 32 33  2  0  0  0
 32 34  1  0  0  0
 34 35  1  0  0  0
 35 36  2  0  0  0
  6  7  2  0  0  0
 12 13  2  0  0  0
 13 14  1  0  0  0
 14 18  1  0  0  0
 18 19  1  0  0  0
 14 15  2  0  0  0
 15 20  1  0  0  0
 20 21  1  0  0  0
 15 10  1  0  0  0
  7  1  1  0  0  0
 36 24  1  0  0  0
 35 27  1  0  0  0
  8  9  1  0  0  0
 22 23  1  0  0  0
 34 37  1  0  0  0
M  END
> <minimizedAffinity>
-9.24236

> <CNNscore>
0.3309947252

> <CNNaffinity>
7.3655891418

> <CNN_VS>
2.4379711151

> <CNNaffinity_variance>
0.1777847707

$$$$
[H]c1nc(N([H])c2c([H])c(OC([H])([H])[H])c(OC([H])([H])[H])c(OC([H])([H])[H])c2[H])nc(N([H])c2nc3c(c([H])c2[H])OC(C([H])([H])[H])(C([H])([H])[H])C(=O)N3[H])c1Cl


 37 40  0  0  0  0  0  0  0  0999 V2000
  -85.3289   29.1737    2.0981 C   0  0  0  0  0  0  0  0  0  0  0  0
  -84.0065   29.1544    2.1544 N   0  0  0  0  0  0  0  0  0  0  0  0
  -83.1667   29.9746    1.5115 C   0  0  0  0  0  0  0  0  0  0  0  0
  -83.7271   30.9388    0.7082 C   0  0  0  0  0  0  0  0  0  0  0  0
  -82.7734   32.0806   -0.1934 Cl  0  0  0  0  0  0  0  0  0  0  0  0
  -85.1118   31.0238    0.5964 C   0  0  0  0  0  0  0  0  0  0  0  0
  -85.8485   30.1520    1.2845 N   0  0  0  0  0  0  0  0  0  0  0  0
  -86.2378   28.3252    2.7621 N   0  0  0  0  0  0  0  0  0  0  0  0
  -85.9645   28.0840    3.7701 H   0  0  0  0  0  0  0  0  0  0  0  0
  -88.8164   26.8247    0.4973 C   0  0  0  0  0  0  0  0  0  0  0  0
  -87.5958   27.3338    0.9751 C   0  0  0  0  0  0  0  0  0  0  0  0
  -87.4210   27.7898    2.2268 C   0  0  0  0  0  0  0  0  0  0  0  0
  -88.5333   27.7424    3.0808 C   0  0  0  0  0  0  0  0  0  0  0  0
  -89.7305   27.2493    2.6325 C   0  0  0  0  0  0  0  0  0  0  0  0
  -89.9004   26.7813    1.3374 C   0  0  0  0  0  0  0  0  0  0  0  0
  -87.7717   26.0448   -1.5246 C   0  0  0  0  0  0  0  0  0  0  0  0
  -88.9440   26.3667   -0.8048 O   0  0  0  0  0  0  0  0  0  0  0  0
  -90.8228   27.2032    3.4727 O   0  0  0  0  0  0  0  0  0  0  0  0
  -90.7052   26.5225    4.7043 C   0  0  0  0  0  0  0  0  0  0  0  0
  -91.1143   26.2814    0.8822 O   0  0  0  0  0  0  0  0  0  0  0  0
  -91.3287   24.8935    0.9297 C   0  0  0  0  0  0  0  0  0  0  0  0
  -85.7325   31.9959   -0.2151 N   0  0  0  0  0  0  0  0  0  0  0  0
  -85.2274   32.8793   -0.4547 H   0  0  0  0  0  0  0  0  0  0  0  0
  -87.0439   31.7786   -0.7091 C   0  0  0  0  0  0  0  0  0  0  0  0
  -87.9961   32.8098   -0.6590 C   0  0  0  0  0  0  0  0  0  0  0  0
  -89.2614   32.5733   -1.1448 C   0  0  0  0  0  0  0  0  0  0  0  0
  -89.6191   31.3551   -1.6780 C   0  0  0  0  0  0  0  0  0  0  0  0
  -90.8885   31.1004   -2.1713 O   0  0  0  0  0  0  0  0  0  0  0  0
  -91.3858   29.7905   -2.3654 C   0  0  0  0  0  0  0  0  0  0  0  0
  -92.4158   29.7938   -3.4898 C   0  0  0  0  0  0  0  0  0  0  0  0
  -91.9810   29.2860   -1.0823 C   0  0  0  0  0  0  0  0  0  0  0  0
  -90.3159   28.8349   -2.7682 C   0  0  0  0  0  0  0  0  0  0  0  0
  -90.5774   27.8539   -3.5258 O   0  0  0  0  0  0  0  0  0  0  0  0
  -89.0100   29.0771   -2.2669 N   0  0  0  0  0  0  0  0  0  0  0  0
  -88.6644   30.3498   -1.7185 C   0  0  0  0  0  0  0  0  0  0  0  0
  -87.4390   30.6117   -1.2366 N   0  0  0  0  0  0  0  0  0  0  0  0
  -88.3036   28.3231   -2.3004 H   0  0  0  0  0  0  0  0  0  0  0  0
 16 17  1  0  0  0
 17 10  1  0  0  0
 10 11  2  0  0  0
 11 12  1  0  0  0
 12  8  1  0  0  0
  8  1  1  0  0  0
  1  2  2  0  0  0
  2  3  1  0  0  0
  3  4  2  0  0  0
  4  5  1  0  0  0
  4  6  1  0  0  0
  6 22  1  0  0  0
 22 24  1  0  0  0
 24 25  2  0  0  0
 25 26  1  0  0  0
 26 27  2  0  0  0
 27 28  1  0  0  0
 28 29  1  0  0  0
 29 30  1  0  0  0
 29 31  1  0  0  0
 29 32  1  0  0  0
 32 33  2  0  0  0
 32 34  1  0  0  0
 34 35  1  0  0  0
 35 36  2  0  0  0
  6  7  2  0  0  0
 12 13  2  0  0  0
 13 14  1  0  0  0
 14 18  1  0  0  0
 18 19  1  0  0  0
 14 15  2  0  0  0
 15 20  1  0  0  0
 20 21  1  0  0  0
 15 10  1  0  0  0
  7  1  1  0  0  0
 36 24  1  0  0  0
 35 27  1  0  0  0
  8  9  1  0  0  0
 22 23  1  0  0  0
 34 37  1  0  0  0
M  END
> <minimizedAffinity>
-7.79721

> <CNNscore>
0.3132224977

> <CNNaffinity>
6.9089713097

> <CNN_VS>
2.1640453339

> <CNNaffinity_variance>
0.2598337531

$$$$
[H]c1nc(N([H])c2c([H])c(OC([H])([H])[H])c(OC([H])([H])[H])c(OC([H])([H])[H])c2[H])nc(N([H])c2nc3c(c([H])c2[H])OC(C([H])([H])[H])(C([H])([H])[H])C(=O)N3[H])c1Cl


 37 40  0  0  0  0  0  0  0  0999 V2000
  -86.4452   28.7756    1.2575 C   0  0  0  0  0  0  0  0  0  0  0  0
  -85.3434   28.2441    1.7635 N   0  0  0  0  0  0  0  0  0  0  0  0
  -84.1293   28.8062    1.8025 C   0  0  0  0  0  0  0  0  0  0  0  0
  -84.0055   30.0645    1.2637 C   0  0  0  0  0  0  0  0  0  0  0  0
  -82.4969   30.9302    1.2366 Cl  0  0  0  0  0  0  0  0  0  0  0  0
  -85.1191   30.6911    0.7120 C   0  0  0  0  0  0  0  0  0  0  0  0
  -86.2782   30.0334    0.7294 N   0  0  0  0  0  0  0  0  0  0  0  0
  -87.7348   28.2095    1.2022 N   0  0  0  0  0  0  0  0  0  0  0  0
  -88.2219   28.1210    2.1529 H   0  0  0  0  0  0  0  0  0  0  0  0
  -89.5985   26.1726   -1.3292 C   0  0  0  0  0  0  0  0  0  0  0  0
  -88.9591   26.5583   -0.1377 C   0  0  0  0  0  0  0  0  0  0  0  0
  -88.4014   27.7666    0.0478 C   0  0  0  0  0  0  0  0  0  0  0  0
  -88.4770   28.6716   -1.0219 C   0  0  0  0  0  0  0  0  0  0  0  0
  -89.0964   28.3130   -2.1904 C   0  0  0  0  0  0  0  0  0  0  0  0
  -89.6688   27.0621   -2.3716 C   0  0  0  0  0  0  0  0  0  0  0  0
  -89.8689   23.9333   -0.4926 C   0  0  0  0  0  0  0  0  0  0  0  0
  -90.1580   24.9122   -1.4694 O   0  0  0  0  0  0  0  0  0  0  0  0
  -89.1700   29.2031   -3.2408 O   0  0  0  0  0  0  0  0  0  0  0  0
  -88.0287   29.9694   -3.5640 C   0  0  0  0  0  0  0  0  0  0  0  0
  -90.2968   26.6980   -3.5563 O   0  0  0  0  0  0  0  0  0  0  0  0
  -91.6808   26.9098   -3.6749 C   0  0  0  0  0  0  0  0  0  0  0  0
  -85.0412   31.9812    0.1478 N   0  0  0  0  0  0  0  0  0  0  0  0
  -84.1979   32.5762    0.3139 H   0  0  0  0  0  0  0  0  0  0  0  0
  -86.1065   32.4761   -0.6468 C   0  0  0  0  0  0  0  0  0  0  0  0
  -87.4379   32.2555   -0.2577 C   0  0  0  0  0  0  0  0  0  0  0  0
  -88.4531   32.7460   -1.0461 C   0  0  0  0  0  0  0  0  0  0  0  0
  -88.1998   33.4462   -2.2045 C   0  0  0  0  0  0  0  0  0  0  0  0
  -89.2101   33.9468   -3.0097 O   0  0  0  0  0  0  0  0  0  0  0  0
  -89.0000   34.3225   -4.3571 C   0  0  0  0  0  0  0  0  0  0  0  0
  -89.9915   35.4136   -4.7464 C   0  0  0  0  0  0  0  0  0  0  0  0
  -89.1418   33.1165   -5.2407 C   0  0  0  0  0  0  0  0  0  0  0  0
  -87.6376   34.8829   -4.5805 C   0  0  0  0  0  0  0  0  0  0  0  0
  -87.4410   35.7718   -5.4613 O   0  0  0  0  0  0  0  0  0  0  0  0
  -86.5889   34.3770   -3.7683 N   0  0  0  0  0  0  0  0  0  0  0  0
  -86.8784   33.6535   -2.5715 C   0  0  0  0  0  0  0  0  0  0  0  0
  -85.9106   33.1623   -1.7811 N   0  0  0  0  0  0  0  0  0  0  0  0
  -85.6064   34.5353   -4.0480 H   0  0  0  0  0  0  0  0  0  0  0  0
 16 17  1  0  0  0
 17 10  1  0  0  0
 10 11  2  0  0  0
 11 12  1  0  0  0
 12  8  1  0  0  0
  8  1  1  0  0  0
  1  2  2  0  0  0
  2  3  1  0  0  0
  3  4  2  0  0  0
  4  5  1  0  0  0
  4  6  1  0  0  0
  6 22  1  0  0  0
 22 24  1  0  0  0
 24 25  2  0  0  0
 25 26  1  0  0  0
 26 27  2  0  0  0
 27 28  1  0  0  0
 28 29  1  0  0  0
 29 30  1  0  0  0
 29 31  1  0  0  0
 29 32  1  0  0  0
 32 33  2  0  0  0
 32 34  1  0  0  0
 34 35  1  0  0  0
 35 36  2  0  0  0
  6  7  2  0  0  0
 12 13  2  0  0  0
 13 14  1  0  0  0
 14 18  1  0  0  0
 18 19  1  0  0  0
 14 15  2  0  0  0
 15 20  1  0  0  0
 20 21  1  0  0  0
 15 10  1  0  0  0
  7  1  1  0  0  0
 36 24  1  0  0  0
 35 27  1  0  0  0
  8  9  1  0  0  0
 22 23  1  0  0  0
 34 37  1  0  0  0
M  END
> <minimizedAffinity>
-8.80037

> <CNNscore>
0.2212149650

> <CNNaffinity>
7.1198921204

> <CNN_VS>
1.5750266314

> <CNNaffinity_variance>
0.2410716265

$$$$
[H]c1nc(N([H])c2c([H])c(OC([H])([H])[H])c(OC([H])([H])[H])c(OC([H])([H])[H])c2[H])nc(N([H])c2nc3c(c([H])c2[H])OC(C([H])([H])[H])(C([H])([H])[H])C(=O)N3[H])c1Cl


 37 40  0  0  0  0  0  0  0  0999 V2000
  -89.1652   32.9035   -4.9438 C   0  0  0  0  0  0  0  0  0  0  0  0
  -89.6460   34.0344   -5.4361 N   0  0  0  0  0  0  0  0  0  0  0  0
  -89.2051   35.2711   -5.1761 C   0  0  0  0  0  0  0  0  0  0  0  0
  -88.1442   35.3872   -4.3100 C   0  0  0  0  0  0  0  0  0  0  0  0
  -87.4548   36.9226   -3.8701 Cl  0  0  0  0  0  0  0  0  0  0  0  0
  -87.5827   34.2435   -3.7501 C   0  0  0  0  0  0  0  0  0  0  0  0
  -88.1061   33.0638   -4.0828 N   0  0  0  0  0  0  0  0  0  0  0  0
  -89.6074   31.5895   -5.1983 N   0  0  0  0  0  0  0  0  0  0  0  0
  -89.2705   31.1805   -6.1301 H   0  0  0  0  0  0  0  0  0  0  0  0
  -90.9281   29.4439   -2.4266 C   0  0  0  0  0  0  0  0  0  0  0  0
  -90.0615   30.2295   -3.2072 C   0  0  0  0  0  0  0  0  0  0  0  0
  -90.4246   30.8092   -4.3638 C   0  0  0  0  0  0  0  0  0  0  0  0
  -91.7453   30.6027   -4.7902 C   0  0  0  0  0  0  0  0  0  0  0  0
  -92.6037   29.8403   -4.0423 C   0  0  0  0  0  0  0  0  0  0  0  0
  -92.2184   29.2456   -2.8493 C   0  0  0  0  0  0  0  0  0  0  0  0
  -90.3845   29.6874   -0.0958 C   0  0  0  0  0  0  0  0  0  0  0  0
  -90.5030   28.8672   -1.2400 O   0  0  0  0  0  0  0  0  0  0  0  0
  -93.9013   29.6382   -4.4624 O   0  0  0  0  0  0  0  0  0  0  0  0
  -94.8603   30.6453   -4.2169 C   0  0  0  0  0  0  0  0  0  0  0  0
  -93.0884   28.4723   -2.0907 O   0  0  0  0  0  0  0  0  0  0  0  0
  -93.1778   27.0972   -2.3659 C   0  0  0  0  0  0  0  0  0  0  0  0
  -86.4937   34.3124   -2.8567 N   0  0  0  0  0  0  0  0  0  0  0  0
  -85.7857   35.0759   -2.9507 H   0  0  0  0  0  0  0  0  0  0  0  0
  -86.3550   33.3465   -1.8277 C   0  0  0  0  0  0  0  0  0  0  0  0
  -87.4848   32.6717   -1.3371 C   0  0  0  0  0  0  0  0  0  0  0  0
  -87.3232   31.7392   -0.3385 C   0  0  0  0  0  0  0  0  0  0  0  0
  -86.0858   31.4500    0.1923 C   0  0  0  0  0  0  0  0  0  0  0  0
  -85.9057   30.5141    1.1980 O   0  0  0  0  0  0  0  0  0  0  0  0
  -84.7447   30.4714    2.0049 C   0  0  0  0  0  0  0  0  0  0  0  0
  -84.5051   29.0439    2.4844 C   0  0  0  0  0  0  0  0  0  0  0  0
  -84.9045   31.4155    3.1618 C   0  0  0  0  0  0  0  0  0  0  0  0
  -83.5230   30.8825    1.2577 C   0  0  0  0  0  0  0  0  0  0  0  0
  -82.3934   30.3845    1.5420 O   0  0  0  0  0  0  0  0  0  0  0  0
  -83.6881   31.8453    0.2276 N   0  0  0  0  0  0  0  0  0  0  0  0
  -84.9826   32.1272   -0.3057 C   0  0  0  0  0  0  0  0  0  0  0  0
  -85.1732   33.0311   -1.2800 N   0  0  0  0  0  0  0  0  0  0  0  0
  -82.8612   32.3462   -0.1388 H   0  0  0  0  0  0  0  0  0  0  0  0
 16 17  1  0  0  0
 17 10  1  0  0  0
 10 11  2  0  0  0
 11 12  1  0  0  0
 12  8  1  0  0  0
  8  1  1  0  0  0
  1  2  2  0  0  0
  2  3  1  0  0  0
  3  4  2  0  0  0
  4  5  1  0  0  0
  4  6  1  0  0  0
  6 22  1  0  0  0
 22 24  1  0  0  0
 24 25  2  0  0  0
 25 26  1  0  0  0
 26 27  2  0  0  0
 27 28  1  0  0  0
 28 29  1  0  0  0
 29 30  1  0  0  0
 29 31  1  0  0  0
 29 32  1  0  0  0
 32 33  2  0  0  0
 32 34  1  0  0  0
 34 35  1  0  0  0
 35 36  2  0  0  0
  6  7  2  0  0  0
 12 13  2  0  0  0
 13 14  1  0  0  0
 14 18  1  0  0  0
 18 19  1  0  0  0
 14 15  2  0  0  0
 15 20  1  0  0  0
 20 21  1  0  0  0
 15 10  1  0  0  0
  7  1  1  0  0  0
 36 24  1  0  0  0
 35 27  1  0  0  0
  8  9  1  0  0  0
 22 23  1  0  0  0
 34 37  1  0  0  0
M  END
> <minimizedAffinity>
-8.02733

> <CNNscore>
0.2100283504

> <CNNaffinity>
6.7845869064

> <CNN_VS>
1.4249556065

> <CNNaffinity_variance>
0.1110321507

$$$$
[H]OC([H])([H])[C@@]1(O[H])C([H])([H])[C@@]2([H])O[C@]1(C([H])([H])[H])n1c3c([H])c([H])c([H])c([H])c3c3c4c(c5c6c([H])c([H])c([H])c([H])c6n2c5c31)C(=O)N([H])C4=O


 37 44  0  0  0  0  0  0  0  0999 V2000
  -90.7871   28.3826    0.1879 C   0  0  0  0  0  0  0  0  0  0  0  0
  -89.8198   29.1087   -0.7302 C   0  0  0  0  0  0  0  0  0  0  0  0
  -90.3510   30.4252   -0.6886 O   0  0  0  0  0  0  0  0  0  0  0  0
  -90.1326   31.0192   -1.9036 C   0  0  0  0  0  0  0  0  0  0  0  0
  -90.0868   29.9633   -2.9384 C   0  0  0  0  0  0  0  0  0  0  0  0
  -89.8936   28.6893   -2.1498 C   0  0  0  0  0  0  0  0  0  0  0  0
  -88.7264   28.0841   -2.6129 O   0  0  0  0  0  0  0  0  0  0  0  0
  -88.8678   31.7887   -1.7924 N   0  0  0  0  0  0  0  0  0  0  0  0
  -88.6046   32.9701   -2.3312 C   0  0  0  0  0  0  0  0  0  0  0  0
  -89.3706   33.7845   -3.1259 C   0  0  0  0  0  0  0  0  0  0  0  0
  -88.8701   34.9785   -3.5660 C   0  0  0  0  0  0  0  0  0  0  0  0
  -87.5999   35.3775   -3.2203 C   0  0  0  0  0  0  0  0  0  0  0  0
  -86.8075   34.5592   -2.4118 C   0  0  0  0  0  0  0  0  0  0  0  0
  -87.3110   33.3751   -1.9785 C   0  0  0  0  0  0  0  0  0  0  0  0
  -86.7960   32.3538   -1.1824 C   0  0  0  0  0  0  0  0  0  0  0  0
  -85.5783   32.1390   -0.5408 C   0  0  0  0  0  0  0  0  0  0  0  0
  -84.3791   32.9562   -0.4555 C   0  0  0  0  0  0  0  0  0  0  0  0
  -84.0771   34.0798   -0.9261 O   0  0  0  0  0  0  0  0  0  0  0  0
  -83.4456   32.2196    0.3470 N   0  0  0  0  0  0  0  0  0  0  0  0
  -84.0419   30.9691    0.7575 C   0  0  0  0  0  0  0  0  0  0  0  0
  -83.4053   30.1541    1.4733 O   0  0  0  0  0  0  0  0  0  0  0  0
  -85.3688   30.9559    0.1852 C   0  0  0  0  0  0  0  0  0  0  0  0
  -86.3906   30.0233    0.2447 C   0  0  0  0  0  0  0  0  0  0  0  0
  -86.5251   28.7638    0.8192 C   0  0  0  0  0  0  0  0  0  0  0  0
  -85.6580   28.0000    1.5525 C   0  0  0  0  0  0  0  0  0  0  0  0
  -86.0789   26.7325    1.9757 C   0  0  0  0  0  0  0  0  0  0  0  0
  -87.3157   26.2631    1.6703 C   0  0  0  0  0  0  0  0  0  0  0  0
  -88.2027   27.0301    0.9265 C   0  0  0  0  0  0  0  0  0  0  0  0
  -87.7943   28.2799    0.5089 C   0  0  0  0  0  0  0  0  0  0  0  0
  -88.4548   29.1929   -0.2306 N   0  0  0  0  0  0  0  0  0  0  0  0
  -87.5889   30.2516   -0.3919 C   0  0  0  0  0  0  0  0  0  0  0  0
  -87.7918   31.4122   -1.1038 C   0  0  0  0  0  0  0  0  0  0  0  0
  -88.6965   28.2623   -3.6051 H   0  0  0  0  0  0  0  0  0  0  0  0
  -82.4724   32.5289    0.6058 H   0  0  0  0  0  0  0  0  0  0  0  0
  -91.0376   27.7667   -2.4711 C   0  0  0  0  0  0  0  0  0  0  0  0
  -90.6707   27.0117   -3.6078 O   0  0  0  0  0  0  0  0  0  0  0  0
  -91.5308   26.6278   -3.9542 H   0  0  0  0  0  0  0  0  0  0  0  0
  2  1  1  0  0  0
  2  3  1  0  0  0
  3  4  1  0  0  0
  4  5  1  0  0  0
  5  6  1  0  0  0
  6  7  1  0  0  0
  6 35  1  0  0  0
 35 36  1  0  0  0
  4  8  1  0  0  0
  8  9  1  0  0  0
  9 10  2  0  0  0
 10 11  1  0  0  0
 11 12  2  0  0  0
 12 13  1  0  0  0
 13 14  2  0  0  0
 14 15  1  0  0  0
 15 16  2  0  0  0
 16 17  1  0  0  0
 17 18  2  0  0  0
 17 19  1  0  0  0
 19 20  1  0  0  0
 20 21  2  0  0  0
 20 22  1  0  0  0
 22 23  2  0  0  0
 23 24  1  0  0  0
 24 25  2  0  0  0
 25 26  1  0  0  0
 26 27  2  0  0  0
 27 28  1  0  0  0
 28 29  2  0  0  0
 29 30  1  0  0  0
 30 31  1  0  0  0
 31 32  2  0  0  0
  6  2  1  0  0  0
 32  8  1  0  0  0
 30  2  1  0  0  0
 14  9  1  0  0  0
 32 15  1  0  0  0
 22 16  1  0  0  0
 31 23  1  0  0  0
 29 24  1  0  0  0
  7 33  1  0  0  0
 36 37  1  0  0  0
 19 34  1  0  0  0
M  END
> <minimizedAffinity>
-11.91859

> <CNNscore>
0.7469834089

> <CNNaffinity>
6.7531404495

> <CNN_VS>
5.0444836617

> <CNNaffinity_variance>
0.0719061047

$$$$
[H]OC([H])([H])[C@@]1(O[H])C([H])([H])[C@@]2([H])O[C@]1(C([H])([H])[H])n1c3c([H])c([H])c([H])c([H])c3c3c4c(c5c6c([H])c([H])c([H])c([H])c6n2c5c31)C(=O)N([H])C4=O


 37 44  0  0  0  0  0  0  0  0999 V2000
  -89.0218   27.5938    1.6953 C   0  0  0  0  0  0  0  0  0  0  0  0
  -88.7942   28.1086    0.2850 C   0  0  0  0  0  0  0  0  0  0  0  0
  -90.0434   28.7322    0.0246 O   0  0  0  0  0  0  0  0  0  0  0  0
  -90.3193   28.6086   -1.3115 C   0  0  0  0  0  0  0  0  0  0  0  0
  -89.6595   27.3837   -1.8136 C   0  0  0  0  0  0  0  0  0  0  0  0
  -88.6540   27.0453   -0.7381 C   0  0  0  0  0  0  0  0  0  0  0  0
  -87.3959   27.0121   -1.3376 O   0  0  0  0  0  0  0  0  0  0  0  0
  -89.8394   29.8481   -1.9730 N   0  0  0  0  0  0  0  0  0  0  0  0
  -90.4235   30.4957   -2.9704 C   0  0  0  0  0  0  0  0  0  0  0  0
  -91.5727   30.2215   -3.6672 C   0  0  0  0  0  0  0  0  0  0  0  0
  -91.9783   31.0541   -4.6732 C   0  0  0  0  0  0  0  0  0  0  0  0
  -91.2446   32.1712   -4.9987 C   0  0  0  0  0  0  0  0  0  0  0  0
  -90.0719   32.4639   -4.2984 C   0  0  0  0  0  0  0  0  0  0  0  0
  -89.6754   31.6328   -3.3008 C   0  0  0  0  0  0  0  0  0  0  0  0
  -88.5854   31.6370   -2.4326 C   0  0  0  0  0  0  0  0  0  0  0  0
  -87.4828   32.4704   -2.2574 C   0  0  0  0  0  0  0  0  0  0  0  0
  -87.0852   33.6937   -2.9344 C   0  0  0  0  0  0  0  0  0  0  0  0
  -87.5989   34.3587   -3.8666 O   0  0  0  0  0  0  0  0  0  0  0  0
  -85.8572   34.1123   -2.3221 N   0  0  0  0  0  0  0  0  0  0  0  0
  -85.4902   33.1760   -1.2847 C   0  0  0  0  0  0  0  0  0  0  0  0
  -84.4436   33.3402   -0.6069 O   0  0  0  0  0  0  0  0  0  0  0  0
  -86.5264   32.1687   -1.2752 C   0  0  0  0  0  0  0  0  0  0  0  0
  -86.7070   31.0373   -0.4975 C   0  0  0  0  0  0  0  0  0  0  0  0
  -85.9724   30.4239    0.5118 C   0  0  0  0  0  0  0  0  0  0  0  0
  -84.7814   30.7531    1.1000 C   0  0  0  0  0  0  0  0  0  0  0  0
  -84.2686   29.9043    2.0897 C   0  0  0  0  0  0  0  0  0  0  0  0
  -84.9296   28.7788    2.4634 C   0  0  0  0  0  0  0  0  0  0  0  0
  -86.1384   28.4358    1.8724 C   0  0  0  0  0  0  0  0  0  0  0  0
  -86.6491   29.2691    0.8987 C   0  0  0  0  0  0  0  0  0  0  0  0
  -87.7781   29.1454    0.1730 N   0  0  0  0  0  0  0  0  0  0  0  0
  -87.8030   30.2258   -0.6807 C   0  0  0  0  0  0  0  0  0  0  0  0
  -88.7392   30.5232   -1.6449 C   0  0  0  0  0  0  0  0  0  0  0  0
  -87.5380   26.6275   -2.2591 H   0  0  0  0  0  0  0  0  0  0  0  0
  -85.2977   34.9675   -2.5780 H   0  0  0  0  0  0  0  0  0  0  0  0
  -88.9539   25.6568   -0.2427 C   0  0  0  0  0  0  0  0  0  0  0  0
  -87.7227   25.0449    0.0834 O   0  0  0  0  0  0  0  0  0  0  0  0
  -87.9253   24.0634    0.1356 H   0  0  0  0  0  0  0  0  0  0  0  0
  2  1  1  0  0  0
  2  3  1  0  0  0
  3  4  1  0  0  0
  4  5  1  0  0  0
  5  6  1  0  0  0
  6  7  1  0  0  0
  6 35  1  0  0  0
 35 36  1  0  0  0
  4  8  1  0  0  0
  8  9  1  0  0  0
  9 10  2  0  0  0
 10 11  1  0  0  0
 11 12  2  0  0  0
 12 13  1  0  0  0
 13 14  2  0  0  0
 14 15  1  0  0  0
 15 16  2  0  0  0
 16 17  1  0  0  0
 17 18  2  0  0  0
 17 19  1  0  0  0
 19 20  1  0  0  0
 20 21  2  0  0  0
 20 22  1  0  0  0
 22 23  2  0  0  0
 23 24  1  0  0  0
 24 25  2  0  0  0
 25 26  1  0  0  0
 26 27  2  0  0  0
 27 28  1  0  0  0
 28 29  2  0  0  0
 29 30  1  0  0  0
 30 31  1  0  0  0
 31 32  2  0  0  0
  6  2  1  0  0  0
 32  8  1  0  0  0
 30  2  1  0  0  0
 14  9  1  0  0  0
 32 15  1  0  0  0
 22 16  1  0  0  0
 31 23  1  0  0  0
 29 24  1  0  0  0
  7 33  1  0  0  0
 36 37  1  0  0  0
 19 34  1  0  0  0
M  END
> <minimizedAffinity>
-11.46478

> <CNNscore>
0.5030351877

> <CNNaffinity>
6.5048789978

> <CNN_VS>
3.2721829414

> <CNNaffinity_variance>
0.1980220526

$$$$
[H]OC([H])([H])[C@@]1(O[H])C([H])([H])[C@@]2([H])O[C@]1(C([H])([H])[H])n1c3c([H])c([H])c([H])c([H])c3c3c4c(c5c6c([H])c([H])c([H])c([H])c6n2c5c31)C(=O)N([H])C4=O


 37 44  0  0  0  0  0  0  0  0999 V2000
  -90.7952   31.4247   -2.1344 C   0  0  0  0  0  0  0  0  0  0  0  0
  -89.3272   31.0374   -2.1066 C   0  0  0  0  0  0  0  0  0  0  0  0
  -88.7687   32.1595   -1.4386 O   0  0  0  0  0  0  0  0  0  0  0  0
  -87.5062   32.3703   -1.9270 C   0  0  0  0  0  0  0  0  0  0  0  0
  -87.4553   31.8753   -3.3199 C   0  0  0  0  0  0  0  0  0  0  0  0
  -88.6802   30.9992   -3.4396 C   0  0  0  0  0  0  0  0  0  0  0  0
  -88.2494   29.7271   -3.8129 O   0  0  0  0  0  0  0  0  0  0  0  0
  -86.5640   31.6689   -1.0191 N   0  0  0  0  0  0  0  0  0  0  0  0
  -85.3661   32.0870   -0.6372 C   0  0  0  0  0  0  0  0  0  0  0  0
  -84.6658   33.2207   -0.9624 C   0  0  0  0  0  0  0  0  0  0  0  0
  -83.4240   33.4340   -0.4311 C   0  0  0  0  0  0  0  0  0  0  0  0
  -82.8631   32.5210    0.4313 C   0  0  0  0  0  0  0  0  0  0  0  0
  -83.5637   31.3616    0.7721 C   0  0  0  0  0  0  0  0  0  0  0  0
  -84.7961   31.1564    0.2408 C   0  0  0  0  0  0  0  0  0  0  0  0
  -85.7325   30.1325    0.3709 C   0  0  0  0  0  0  0  0  0  0  0  0
  -85.7684   28.9287    1.0712 C   0  0  0  0  0  0  0  0  0  0  0  0
  -84.8077   28.3100    1.9696 C   0  0  0  0  0  0  0  0  0  0  0  0
  -83.6740   28.6600    2.3788 O   0  0  0  0  0  0  0  0  0  0  0  0
  -85.3935   27.0716    2.3954 N   0  0  0  0  0  0  0  0  0  0  0  0
  -86.6916   26.9140    1.7806 C   0  0  0  0  0  0  0  0  0  0  0  0
  -87.3956   25.8971    2.0093 O   0  0  0  0  0  0  0  0  0  0  0  0
  -86.8889   28.0898    0.9640 C   0  0  0  0  0  0  0  0  0  0  0  0
  -87.9408   28.4865    0.1555 C   0  0  0  0  0  0  0  0  0  0  0  0
  -89.1554   27.9155   -0.2095 C   0  0  0  0  0  0  0  0  0  0  0  0
  -89.7407   26.7257    0.1292 C   0  0  0  0  0  0  0  0  0  0  0  0
  -90.9827   26.4081   -0.4358 C   0  0  0  0  0  0  0  0  0  0  0  0
  -91.5994   27.2535   -1.3009 C   0  0  0  0  0  0  0  0  0  0  0  0
  -91.0137   28.4628   -1.6513 C   0  0  0  0  0  0  0  0  0  0  0  0
  -89.7916   28.7817   -1.0962 C   0  0  0  0  0  0  0  0  0  0  0  0
  -89.0218   29.8708   -1.2907 N   0  0  0  0  0  0  0  0  0  0  0  0
  -87.8914   29.6800   -0.5274 C   0  0  0  0  0  0  0  0  0  0  0  0
  -86.7914   30.5007   -0.4214 C   0  0  0  0  0  0  0  0  0  0  0  0
  -87.4713   29.8704   -4.4384 H   0  0  0  0  0  0  0  0  0  0  0  0
  -84.9576   26.3744    3.0539 H   0  0  0  0  0  0  0  0  0  0  0  0
  -89.5267   31.5356   -4.5616 C   0  0  0  0  0  0  0  0  0  0  0  0
  -88.8565   31.2550   -5.7735 O   0  0  0  0  0  0  0  0  0  0  0  0
  -89.2873   31.8536   -6.4541 H   0  0  0  0  0  0  0  0  0  0  0  0
  2  1  1  0  0  0
  2  3  1  0  0  0
  3  4  1  0  0  0
  4  5  1  0  0  0
  5  6  1  0  0  0
  6  7  1  0  0  0
  6 35  1  0  0  0
 35 36  1  0  0  0
  4  8  1  0  0  0
  8  9  1  0  0  0
  9 10  2  0  0  0
 10 11  1  0  0  0
 11 12  2  0  0  0
 12 13  1  0  0  0
 13 14  2  0  0  0
 14 15  1  0  0  0
 15 16  2  0  0  0
 16 17  1  0  0  0
 17 18  2  0  0  0
 17 19  1  0  0  0
 19 20  1  0  0  0
 20 21  2  0  0  0
 20 22  1  0  0  0
 22 23  2  0  0  0
 23 24  1  0  0  0
 24 25  2  0  0  0
 25 26  1  0  0  0
 26 27  2  0  0  0
 27 28  1  0  0  0
 28 29  2  0  0  0
 29 30  1  0  0  0
 30 31  1  0  0  0
 31 32  2  0  0  0
  6  2  1  0  0  0
 32  8  1  0  0  0
 30  2  1  0  0  0
 14  9  1  0  0  0
 32 15  1  0  0  0
 22 16  1  0  0  0
 31 23  1  0  0  0
 29 24  1  0  0  0
  7 33  1  0  0  0
 36 37  1  0  0  0
 19 34  1  0  0  0
M  END
> <minimizedAffinity>
-11.72246

> <CNNscore>
0.4542010128

> <CNNaffinity>
6.4975557327

> <CNN_VS>
2.9511964321

> <CNNaffinity_variance>
0.3578301370

$$$$
[H]OC([H])([H])[C@@]1(O[H])C([H])([H])[C@@]2([H])O[C@]1(C([H])([H])[H])n1c3c([H])c([H])c([H])c([H])c3c3c4c(c5c6c([H])c([H])c([H])c([H])c6n2c5c31)C(=O)N([H])C4=O


 37 44  0  0  0  0  0  0  0  0999 V2000
  -89.4639   33.4425   -1.8782 C   0  0  0  0  0  0  0  0  0  0  0  0
  -88.3347   32.4286   -1.8274 C   0  0  0  0  0  0  0  0  0  0  0  0
  -87.5289   32.9795   -0.7956 O   0  0  0  0  0  0  0  0  0  0  0  0
  -86.2178   32.6922   -1.0697 C   0  0  0  0  0  0  0  0  0  0  0  0
  -86.0635   32.5659   -2.5353 C   0  0  0  0  0  0  0  0  0  0  0  0
  -87.4793   32.4059   -3.0376 C   0  0  0  0  0  0  0  0  0  0  0  0
  -87.5403   31.2032   -3.7398 O   0  0  0  0  0  0  0  0  0  0  0  0
  -85.8804   31.4478   -0.3336 N   0  0  0  0  0  0  0  0  0  0  0  0
  -84.7368   31.1669    0.2734 C   0  0  0  0  0  0  0  0  0  0  0  0
  -83.5774   31.8917    0.3825 C   0  0  0  0  0  0  0  0  0  0  0  0
  -82.5131   31.3807    1.0724 C   0  0  0  0  0  0  0  0  0  0  0  0
  -82.5894   30.1408    1.6630 C   0  0  0  0  0  0  0  0  0  0  0  0
  -83.7632   29.3904    1.5608 C   0  0  0  0  0  0  0  0  0  0  0  0
  -84.8158   29.9042    0.8743 C   0  0  0  0  0  0  0  0  0  0  0  0
  -86.0942   29.4271    0.5912 C   0  0  0  0  0  0  0  0  0  0  0  0
  -86.7807   28.2500    0.8805 C   0  0  0  0  0  0  0  0  0  0  0  0
  -86.3907   27.0701    1.6347 C   0  0  0  0  0  0  0  0  0  0  0  0
  -85.3380   26.7541    2.2405 O   0  0  0  0  0  0  0  0  0  0  0  0
  -87.5150   26.1796    1.5999 N   0  0  0  0  0  0  0  0  0  0  0  0
  -88.5871   26.7836    0.8426 C   0  0  0  0  0  0  0  0  0  0  0  0
  -89.6798   26.1829    0.6777 O   0  0  0  0  0  0  0  0  0  0  0  0
  -88.0918   28.0710    0.4117 C   0  0  0  0  0  0  0  0  0  0  0  0
  -88.6741   29.0816   -0.3346 C   0  0  0  0  0  0  0  0  0  0  0  0
  -89.8995   29.2352   -0.9744 C   0  0  0  0  0  0  0  0  0  0  0  0
  -90.9837   28.4062   -1.0766 C   0  0  0  0  0  0  0  0  0  0  0  0
  -92.0836   28.8358   -1.8306 C   0  0  0  0  0  0  0  0  0  0  0  0
  -92.0838   30.0440   -2.4499 C   0  0  0  0  0  0  0  0  0  0  0  0
  -90.9887   30.8922   -2.3526 C   0  0  0  0  0  0  0  0  0  0  0  0
  -89.9036   30.4752   -1.6097 C   0  0  0  0  0  0  0  0  0  0  0  0
  -88.7307   31.0996   -1.3838 N   0  0  0  0  0  0  0  0  0  0  0  0
  -87.9839   30.2398   -0.6093 C   0  0  0  0  0  0  0  0  0  0  0  0
  -86.6982   30.4129   -0.1492 C   0  0  0  0  0  0  0  0  0  0  0  0
  -86.6536   31.1125   -4.2118 H   0  0  0  0  0  0  0  0  0  0  0  0
  -87.5665   25.2293    2.0516 H   0  0  0  0  0  0  0  0  0  0  0  0
  -87.7521   33.5143   -4.0176 C   0  0  0  0  0  0  0  0  0  0  0  0
  -86.6573   34.4063   -3.9684 O   0  0  0  0  0  0  0  0  0  0  0  0
  -86.9877   35.2483   -4.4032 H   0  0  0  0  0  0  0  0  0  0  0  0
  2  1  1  0  0  0
  2  3  1  0  0  0
  3  4  1  0  0  0
  4  5  1  0  0  0
  5  6  1  0  0  0
  6  7  1  0  0  0
  6 35  1  0  0  0
 35 36  1  0  0  0
  4  8  1  0  0  0
  8  9  1  0  0  0
  9 10  2  0  0  0
 10 11  1  0  0  0
 11 12  2  0  0  0
 12 13  1  0  0  0
 13 14  2  0  0  0
 14 15  1  0  0  0
 15 16  2  0  0  0
 16 17  1  0  0  0
 17 18  2  0  0  0
 17 19  1  0  0  0
 19 20  1  0  0  0
 20 21  2  0  0  0
 20 22  1  0  0  0
 22 23  2  0  0  0
 23 24  1  0  0  0
 24 25  2  0  0  0
 25 26  1  0  0  0
 26 27  2  0  0  0
 27 28  1  0  0  0
 28 29  2  0  0  0
 29 30  1  0  0  0
 30 31  1  0  0  0
 31 32  2  0  0  0
  6  2  1  0  0  0
 32  8  1  0  0  0
 30  2  1  0  0  0
 14  9  1  0  0  0
 32 15  1  0  0  0
 22 16  1  0  0  0
 31 23  1  0  0  0
 29 24  1  0  0  0
  7 33  1  0  0  0
 36 37  1  0  0  0
 19 34  1  0  0  0
M  END
> <minimizedAffinity>
-12.11621

> <CNNscore>
0.4477143586

> <CNNaffinity>
6.6469316483

> <CNN_VS>
2.9759266376

> <CNNaffinity_variance>
0.1988883913

$$$$
[H]OC([H])([H])[C@@]1(O[H])C([H])([H])[C@@]2([H])O[C@]1(C([H])([H])[H])n1c3c([H])c([H])c([H])c([H])c3c3c4c(c5c6c([H])c([H])c([H])c([H])c6n2c5c31)C(=O)N([H])C4=O


 37 44  0  0  0  0  0  0  0  0999 V2000
  -88.5785   27.0869    1.7496 C   0  0  0  0  0  0  0  0  0  0  0  0
  -88.3677   27.8095    0.4308 C   0  0  0  0  0  0  0  0  0  0  0  0
  -89.5548   28.5860    0.3602 O   0  0  0  0  0  0  0  0  0  0  0  0
  -89.9083   28.7185   -0.9567 C   0  0  0  0  0  0  0  0  0  0  0  0
  -89.4082   27.5389   -1.6958 C   0  0  0  0  0  0  0  0  0  0  0  0
  -88.3923   26.9271   -0.7599 C   0  0  0  0  0  0  0  0  0  0  0  0
  -87.1761   26.8751   -1.4393 O   0  0  0  0  0  0  0  0  0  0  0  0
  -89.3327   30.0002   -1.4364 N   0  0  0  0  0  0  0  0  0  0  0  0
  -89.8933   30.8612   -2.2728 C   0  0  0  0  0  0  0  0  0  0  0  0
  -91.0984   30.8217   -2.9269 C   0  0  0  0  0  0  0  0  0  0  0  0
  -91.4625   31.8484   -3.7533 C   0  0  0  0  0  0  0  0  0  0  0  0
  -90.6313   32.9284   -3.9394 C   0  0  0  0  0  0  0  0  0  0  0  0
  -89.4009   32.9834   -3.2804 C   0  0  0  0  0  0  0  0  0  0  0  0
  -89.0459   31.9604   -2.4614 C   0  0  0  0  0  0  0  0  0  0  0  0
  -87.9199   31.7117   -1.6789 C   0  0  0  0  0  0  0  0  0  0  0  0
  -86.7277   32.3928   -1.4434 C   0  0  0  0  0  0  0  0  0  0  0  0
  -86.2363   33.6693   -1.9356 C   0  0  0  0  0  0  0  0  0  0  0  0
  -86.7220   34.5295   -2.7096 O   0  0  0  0  0  0  0  0  0  0  0  0
  -84.9419   33.8572   -1.3462 N   0  0  0  0  0  0  0  0  0  0  0  0
  -84.6256   32.7271   -0.5032 C   0  0  0  0  0  0  0  0  0  0  0  0
  -83.5350   32.6720    0.1210 O   0  0  0  0  0  0  0  0  0  0  0  0
  -85.7612   31.8376   -0.5900 C   0  0  0  0  0  0  0  0  0  0  0  0
  -86.0223   30.6133    0.0019 C   0  0  0  0  0  0  0  0  0  0  0  0
  -85.3079   29.7693    0.8456 C   0  0  0  0  0  0  0  0  0  0  0  0
  -84.0610   29.8772    1.3990 C   0  0  0  0  0  0  0  0  0  0  0  0
  -83.5929   28.8270    2.1996 C   0  0  0  0  0  0  0  0  0  0  0  0
  -84.3504   27.7235    2.4268 C   0  0  0  0  0  0  0  0  0  0  0  0
  -85.6167   27.6042    1.8696 C   0  0  0  0  0  0  0  0  0  0  0  0
  -86.0836   28.6362    1.0821 C   0  0  0  0  0  0  0  0  0  0  0  0
  -87.2540   28.7473    0.4229 N   0  0  0  0  0  0  0  0  0  0  0  0
  -87.2061   29.9544   -0.2385 C   0  0  0  0  0  0  0  0  0  0  0  0
  -88.1521   30.5004   -1.0761 C   0  0  0  0  0  0  0  0  0  0  0  0
  -87.4038   26.6683   -2.3998 H   0  0  0  0  0  0  0  0  0  0  0  0
  -84.3080   34.6854   -1.4951 H   0  0  0  0  0  0  0  0  0  0  0  0
  -88.8131   25.5102   -0.4801 C   0  0  0  0  0  0  0  0  0  0  0  0
  -88.8505   24.8244   -1.7150 O   0  0  0  0  0  0  0  0  0  0  0  0
  -89.3893   23.9967   -1.5371 H   0  0  0  0  0  0  0  0  0  0  0  0
  2  1  1  0  0  0
  2  3  1  0  0  0
  3  4  1  0  0  0
  4  5  1  0  0  0
  5  6  1  0  0  0
  6  7  1  0  0  0
  6 35  1  0  0  0
 35 36  1  0  0  0
  4  8  1  0  0  0
  8  9  1  0  0  0
  9 10  2  0  0  0
 10 11  1  0  0  0
 11 12  2  0  0  0
 12 13  1  0  0  0
 13 14  2  0  0  0
 14 15  1  0  0  0
 15 16  2  0  0  0
 16 17  1  0  0  0
 17 18  2  0  0  0
 17 19  1  0  0  0
 19 20  1  0  0  0
 20 21  2  0  0  0
 20 22  1  0  0  0
 22 23  2  0  0  0
 23 24  1  0  0  0
 24 25  2  0  0  0
 25 26  1  0  0  0
 26 27  2  0  0  0
 27 28  1  0  0  0
 28 29  2  0  0  0
 29 30  1  0  0  0
 30 31  1  0  0  0
 31 32  2  0  0  0
  6  2  1  0  0  0
 32  8  1  0  0  0
 30  2  1  0  0  0
 14  9  1  0  0  0
 32 15  1  0  0  0
 22 16  1  0  0  0
 31 23  1  0  0  0
 29 24  1  0  0  0
  7 33  1  0  0  0
 36 37  1  0  0  0
 19 34  1  0  0  0
M  END
> <minimizedAffinity>
-12.26902

> <CNNscore>
0.4039483368

> <CNNaffinity>
6.4210753441

> <CNN_VS>
2.5937826633

> <CNNaffinity_variance>
0.2949569821

$$$$
[H]OC([H])([H])[C@@]1(O[H])C([H])([H])[C@@]2([H])O[C@]1(C([H])([H])[H])n1c3c([H])c([H])c([H])c([H])c3c3c4c(c5c6c([H])c([H])c([H])c([H])c6n2c5c31)C(=O)N([H])C4=O


 37 44  0  0  0  0  0  0  0  0999 V2000
  -90.1632   30.6660   -4.6823 C   0  0  0  0  0  0  0  0  0  0  0  0
  -89.9467   30.5382   -3.1848 C   0  0  0  0  0  0  0  0  0  0  0  0
  -89.5693   29.1725   -3.0863 O   0  0  0  0  0  0  0  0  0  0  0  0
  -90.0207   28.6835   -1.8888 C   0  0  0  0  0  0  0  0  0  0  0  0
  -91.2263   29.4458   -1.4974 C   0  0  0  0  0  0  0  0  0  0  0  0
  -91.1809   30.6743   -2.3754 C   0  0  0  0  0  0  0  0  0  0  0  0
  -91.1765   31.7877   -1.5366 O   0  0  0  0  0  0  0  0  0  0  0  0
  -88.9049   28.8088   -0.9175 N   0  0  0  0  0  0  0  0  0  0  0  0
  -88.5778   27.9478    0.0349 C   0  0  0  0  0  0  0  0  0  0  0  0
  -89.1507   26.7572    0.4033 C   0  0  0  0  0  0  0  0  0  0  0  0
  -88.6228   26.0347    1.4373 C   0  0  0  0  0  0  0  0  0  0  0  0
  -87.5171   26.4884    2.1182 C   0  0  0  0  0  0  0  0  0  0  0  0
  -86.9223   27.6990    1.7550 C   0  0  0  0  0  0  0  0  0  0  0  0
  -87.4519   28.4110    0.7274 C   0  0  0  0  0  0  0  0  0  0  0  0
  -87.1099   29.6230    0.1308 C   0  0  0  0  0  0  0  0  0  0  0  0
  -86.1182   30.5748    0.3578 C   0  0  0  0  0  0  0  0  0  0  0  0
  -85.0325   30.6205    1.3233 C   0  0  0  0  0  0  0  0  0  0  0  0
  -84.6647   29.8364    2.2315 O   0  0  0  0  0  0  0  0  0  0  0  0
  -84.3281   31.8465    1.0800 N   0  0  0  0  0  0  0  0  0  0  0  0
  -84.9545   32.5556   -0.0121 C   0  0  0  0  0  0  0  0  0  0  0  0
  -84.5057   33.6628   -0.4052 O   0  0  0  0  0  0  0  0  0  0  0  0
  -86.0645   31.7324   -0.4345 C   0  0  0  0  0  0  0  0  0  0  0  0
  -87.0101   31.8988   -1.4323 C   0  0  0  0  0  0  0  0  0  0  0  0
  -87.2813   32.9015   -2.3573 C   0  0  0  0  0  0  0  0  0  0  0  0
  -86.6736   34.1030   -2.6024 C   0  0  0  0  0  0  0  0  0  0  0  0
  -87.2063   34.9291   -3.6007 C   0  0  0  0  0  0  0  0  0  0  0  0
  -88.2999   34.5561   -4.3137 C   0  0  0  0  0  0  0  0  0  0  0  0
  -88.9239   33.3393   -4.0724 C   0  0  0  0  0  0  0  0  0  0  0  0
  -88.4023   32.5209   -3.0919 C   0  0  0  0  0  0  0  0  0  0  0  0
  -88.8335   31.3181   -2.6629 N   0  0  0  0  0  0  0  0  0  0  0  0
  -87.9815   30.9480   -1.6460 C   0  0  0  0  0  0  0  0  0  0  0  0
  -88.0326   29.8140   -0.8675 C   0  0  0  0  0  0  0  0  0  0  0  0
  -91.7705   31.5498   -0.7570 H   0  0  0  0  0  0  0  0  0  0  0  0
  -83.4834   32.1904    1.6072 H   0  0  0  0  0  0  0  0  0  0  0  0
  -92.4532   30.7191   -3.1770 C   0  0  0  0  0  0  0  0  0  0  0  0
  -92.9803   32.0255   -3.0682 O   0  0  0  0  0  0  0  0  0  0  0  0
  -93.9361   31.9463   -3.3640 H   0  0  0  0  0  0  0  0  0  0  0  0
  2  1  1  0  0  0
  2  3  1  0  0  0
  3  4  1  0  0  0
  4  5  1  0  0  0
  5  6  1  0  0  0
  6  7  1  0  0  0
  6 35  1  0  0  0
 35 36  1  0  0  0
  4  8  1  0  0  0
  8  9  1  0  0  0
  9 10  2  0  0  0
 10 11  1  0  0  0
 11 12  2  0  0  0
 12 13  1  0  0  0
 13 14  2  0  0  0
 14 15  1  0  0  0
 15 16  2  0  0  0
 16 17  1  0  0  0
 17 18  2  0  0  0
 17 19  1  0  0  0
 19 20  1  0  0  0
 20 21  2  0  0  0
 20 22  1  0  0  0
 22 23  2  0  0  0
 23 24  1  0  0  0
 24 25  2  0  0  0
 25 26  1  0  0  0
 26 27  2  0  0  0
 27 28  1  0  0  0
 28 29  2  0  0  0
 29 30  1  0  0  0
 30 31  1  0  0  0
 31 32  2  0  0  0
  6  2  1  0  0  0
 32  8  1  0  0  0
 30  2  1  0  0  0
 14  9  1  0  0  0
 32 15  1  0  0  0
 22 16  1  0  0  0
 31 23  1  0  0  0
 29 24  1  0  0  0
  7 33  1  0  0  0
 36 37  1  0  0  0
 19 34  1  0  0  0
M  END
> <minimizedAffinity>
-10.47766

> <CNNscore>
0.3774169087

> <CNNaffinity>
6.4103555679

> <CNN_VS>
2.4193766117

> <CNNaffinity_variance>
0.0903008580

$$$$
[H]OC([H])([H])[C@@]1(O[H])C([H])([H])[C@@]2([H])O[C@]1(C([H])([H])[H])n1c3c([H])c([H])c([H])c([H])c3c3c4c(c5c6c([H])c([H])c([H])c([H])c6n2c5c31)C(=O)N([H])C4=O


 37 44  0  0  0  0  0  0  0  0999 V2000
  -90.1767   27.3855   -1.7915 C   0  0  0  0  0  0  0  0  0  0  0  0
  -89.3593   28.1452   -0.7617 C   0  0  0  0  0  0  0  0  0  0  0  0
  -88.1809   27.3534   -0.7208 O   0  0  0  0  0  0  0  0  0  0  0  0
  -87.6732   27.3974    0.5509 C   0  0  0  0  0  0  0  0  0  0  0  0
  -88.7911   27.6230    1.4928 C   0  0  0  0  0  0  0  0  0  0  0  0
  -89.9180   28.1068    0.6106 C   0  0  0  0  0  0  0  0  0  0  0  0
  -90.3137   29.3563    1.0856 O   0  0  0  0  0  0  0  0  0  0  0  0
  -86.6550   28.4775    0.5774 N   0  0  0  0  0  0  0  0  0  0  0  0
  -85.5014   28.4684    1.2290 C   0  0  0  0  0  0  0  0  0  0  0  0
  -84.9397   27.5203    2.0457 C   0  0  0  0  0  0  0  0  0  0  0  0
  -83.7161   27.7442    2.6135 C   0  0  0  0  0  0  0  0  0  0  0  0
  -83.0355   28.9155    2.3755 C   0  0  0  0  0  0  0  0  0  0  0  0
  -83.5942   29.8908    1.5461 C   0  0  0  0  0  0  0  0  0  0  0  0
  -84.8094   29.6617    0.9858 C   0  0  0  0  0  0  0  0  0  0  0  0
  -85.6237   30.4076    0.1358 C   0  0  0  0  0  0  0  0  0  0  0  0
  -85.5237   31.6667   -0.4519 C   0  0  0  0  0  0  0  0  0  0  0  0
  -84.4748   32.6717   -0.3993 C   0  0  0  0  0  0  0  0  0  0  0  0
  -83.3632   32.7152    0.1817 O   0  0  0  0  0  0  0  0  0  0  0  0
  -84.9258   33.7678   -1.2077 N   0  0  0  0  0  0  0  0  0  0  0  0
  -86.2267   33.4609   -1.7564 C   0  0  0  0  0  0  0  0  0  0  0  0
  -86.8230   34.2797   -2.5019 O   0  0  0  0  0  0  0  0  0  0  0  0
  -86.5647   32.1452   -1.2632 C   0  0  0  0  0  0  0  0  0  0  0  0
  -87.6760   31.3429   -1.4597 C   0  0  0  0  0  0  0  0  0  0  0  0
  -88.8761   31.4955   -2.1462 C   0  0  0  0  0  0  0  0  0  0  0  0
  -89.3737   32.5296   -2.8918 C   0  0  0  0  0  0  0  0  0  0  0  0
  -90.6542   32.3981   -3.4446 C   0  0  0  0  0  0  0  0  0  0  0  0
  -91.3929   31.2755   -3.2507 C   0  0  0  0  0  0  0  0  0  0  0  0
  -90.8972   30.2209   -2.4955 C   0  0  0  0  0  0  0  0  0  0  0  0
  -89.6359   30.3440   -1.9505 C   0  0  0  0  0  0  0  0  0  0  0  0
  -88.9513   29.4805   -1.1743 N   0  0  0  0  0  0  0  0  0  0  0  0
  -87.7585   30.1003   -0.8746 C   0  0  0  0  0  0  0  0  0  0  0  0
  -86.7369   29.6334   -0.0790 C   0  0  0  0  0  0  0  0  0  0  0  0
  -90.2283   29.3110    2.0895 H   0  0  0  0  0  0  0  0  0  0  0  0
  -84.4013   34.6642   -1.3838 H   0  0  0  0  0  0  0  0  0  0  0  0
  -91.0808   27.1688    0.7868 C   0  0  0  0  0  0  0  0  0  0  0  0
  -90.7422   26.2572    1.8120 O   0  0  0  0  0  0  0  0  0  0  0  0
  -91.3924   25.4994    1.7120 H   0  0  0  0  0  0  0  0  0  0  0  0
  2  1  1  0  0  0
  2  3  1  0  0  0
  3  4  1  0  0  0
  4  5  1  0  0  0
  5  6  1  0  0  0
  6  7  1  0  0  0
  6 35  1  0  0  0
 35 36  1  0  0  0
  4  8  1  0  0  0
  8  9  1  0  0  0
  9 10  2  0  0  0
 10 11  1  0  0  0
 11 12  2  0  0  0
 12 13  1  0  0  0
 13 14  2  0  0  0
 14 15  1  0  0  0
 15 16  2  0  0  0
 16 17  1  0  0  0
 17 18  2  0  0  0
 17 19  1  0  0  0
 19 20  1  0  0  0
 20 21  2  0  0  0
 20 22  1  0  0  0
 22 23  2  0  0  0
 23 24  1  0  0  0
 24 25  2  0  0  0
 25 26  1  0  0  0
 26 27  2  0  0  0
 27 28  1  0  0  0
 28 29  2  0  0  0
 29 30  1  0  0  0
 30 31  1  0  0  0
 31 32  2  0  0  0
  6  2  1  0  0  0
 32  8  1  0  0  0
 30  2  1  0  0  0
 14  9  1  0  0  0
 32 15  1  0  0  0
 22 16  1  0  0  0
 31 23  1  0  0  0
 29 24  1  0  0  0
  7 33  1  0  0  0
 36 37  1  0  0  0
 19 34  1  0  0  0
M  END
> <minimizedAffinity>
-12.07026

> <CNNscore>
0.2821603119

> <CNNaffinity>
6.3397498131

> <CNN_VS>
1.7888257504

> <CNNaffinity_variance>
0.2431353629

$$$$
[H]OC([H])([H])[C@@]1(O[H])C([H])([H])[C@@]2([H])O[C@]1(C([H])([H])[H])n1c3c([H])c([H])c([H])c([H])c3c3c4c(c5c6c([H])c([H])c([H])c([H])c6n2c5c31)C(=O)N([H])C4=O


 37 44  0  0  0  0  0  0  0  0999 V2000
  -86.9008   32.5747   -3.0876 C   0  0  0  0  0  0  0  0  0  0  0  0
  -87.9688   31.7558   -2.3843 C   0  0  0  0  0  0  0  0  0  0  0  0
  -88.3739   30.8893   -3.4342 O   0  0  0  0  0  0  0  0  0  0  0  0
  -89.7069   30.6143   -3.2790 C   0  0  0  0  0  0  0  0  0  0  0  0
  -90.3428   31.7578   -2.5893 C   0  0  0  0  0  0  0  0  0  0  0  0
  -89.1785   32.5247   -2.0074 C   0  0  0  0  0  0  0  0  0  0  0  0
  -89.3789   32.6074   -0.6303 O   0  0  0  0  0  0  0  0  0  0  0  0
  -89.8048   29.3419   -2.5203 N   0  0  0  0  0  0  0  0  0  0  0  0
  -90.6865   28.3704   -2.7052 C   0  0  0  0  0  0  0  0  0  0  0  0
  -91.7287   28.2612   -3.5903 C   0  0  0  0  0  0  0  0  0  0  0  0
  -92.5126   27.1408   -3.5898 C   0  0  0  0  0  0  0  0  0  0  0  0
  -92.2688   26.1140   -2.7076 C   0  0  0  0  0  0  0  0  0  0  0  0
  -91.2113   26.2102   -1.8001 C   0  0  0  0  0  0  0  0  0  0  0  0
  -90.4372   27.3256   -1.8064 C   0  0  0  0  0  0  0  0  0  0  0  0
  -89.3359   27.7265   -1.0525 C   0  0  0  0  0  0  0  0  0  0  0  0
  -88.6159   27.1603   -0.0028 C   0  0  0  0  0  0  0  0  0  0  0  0
  -88.7560   25.8857    0.6819 C   0  0  0  0  0  0  0  0  0  0  0  0
  -89.5531   24.9262    0.5439 O   0  0  0  0  0  0  0  0  0  0  0  0
  -87.7255   25.8485    1.6792 N   0  0  0  0  0  0  0  0  0  0  0  0
  -86.9548   27.0695    1.6242 C   0  0  0  0  0  0  0  0  0  0  0  0
  -85.9917   27.2614    2.4100 O   0  0  0  0  0  0  0  0  0  0  0  0
  -87.5396   27.8600    0.5652 C   0  0  0  0  0  0  0  0  0  0  0  0
  -87.2188   29.1089    0.0606 C   0  0  0  0  0  0  0  0  0  0  0  0
  -86.2734   30.0757    0.3866 C   0  0  0  0  0  0  0  0  0  0  0  0
  -85.3020   30.1113    1.3499 C   0  0  0  0  0  0  0  0  0  0  0  0
  -84.5075   31.2604    1.4545 C   0  0  0  0  0  0  0  0  0  0  0  0
  -84.6893   32.3199    0.6251 C   0  0  0  0  0  0  0  0  0  0  0  0
  -85.6724   32.2938   -0.3552 C   0  0  0  0  0  0  0  0  0  0  0  0
  -86.4563   31.1639   -0.4642 C   0  0  0  0  0  0  0  0  0  0  0  0
  -87.4743   30.9073   -1.3094 N   0  0  0  0  0  0  0  0  0  0  0  0
  -87.9378   29.6533   -0.9786 C   0  0  0  0  0  0  0  0  0  0  0  0
  -88.9932   28.9657   -1.5337 C   0  0  0  0  0  0  0  0  0  0  0  0
  -90.3737   32.7105   -0.5006 H   0  0  0  0  0  0  0  0  0  0  0  0
  -87.5456   25.0603    2.3547 H   0  0  0  0  0  0  0  0  0  0  0  0
  -89.2255   33.9253   -2.5544 C   0  0  0  0  0  0  0  0  0  0  0  0
  -90.3264   34.0021   -3.4369 O   0  0  0  0  0  0  0  0  0  0  0  0
  -90.1663   34.8295   -3.9818 H   0  0  0  0  0  0  0  0  0  0  0  0
  2  1  1  0  0  0
  2  3  1  0  0  0
  3  4  1  0  0  0
  4  5  1  0  0  0
  5  6  1  0  0  0
  6  7  1  0  0  0
  6 35  1  0  0  0
 35 36  1  0  0  0
  4  8  1  0  0  0
  8  9  1  0  0  0
  9 10  2  0  0  0
 10 11  1  0  0  0
 11 12  2  0  0  0
 12 13  1  0  0  0
 13 14  2  0  0  0
 14 15  1  0  0  0
 15 16  2  0  0  0
 16 17  1  0  0  0
 17 18  2  0  0  0
 17 19  1  0  0  0
 19 20  1  0  0  0
 20 21  2  0  0  0
 20 22  1  0  0  0
 22 23  2  0  0  0
 23 24  1  0  0  0
 24 25  2  0  0  0
 25 26  1  0  0  0
 26 27  2  0  0  0
 27 28  1  0  0  0
 28 29  2  0  0  0
 29 30  1  0  0  0
 30 31  1  0  0  0
 31 32  2  0  0  0
  6  2  1  0  0  0
 32  8  1  0  0  0
 30  2  1  0  0  0
 14  9  1  0  0  0
 32 15  1  0  0  0
 22 16  1  0  0  0
 31 23  1  0  0  0
 29 24  1  0  0  0
  7 33  1  0  0  0
 36 37  1  0  0  0
 19 34  1  0  0  0
M  END
> <minimizedAffinity>
-10.86108

> <CNNscore>
0.2475480139

> <CNNaffinity>
6.1953730583

> <CNN_VS>
1.5336523056

> <CNNaffinity_variance>
0.1921712458

$$$$
[H]OC([H])([H])[C@@]1(O[H])C([H])([H])[C@@]2([H])O[C@]1(C([H])([H])[H])n1c3c([H])c([H])c([H])c([H])c3c3c4c(c5c6c([H])c([H])c([H])c([H])c6n2c5c31)C(=O)N([H])C4=O


 37 44  0  0  0  0  0  0  0  0999 V2000
  -89.9044   25.9163   -0.7095 C   0  0  0  0  0  0  0  0  0  0  0  0
  -89.1601   26.9304    0.1411 C   0  0  0  0  0  0  0  0  0  0  0  0
  -87.8227   26.4790   -0.0163 O   0  0  0  0  0  0  0  0  0  0  0  0
  -87.1385   26.7392    1.1418 C   0  0  0  0  0  0  0  0  0  0  0  0
  -88.1002   26.7269    2.2655 C   0  0  0  0  0  0  0  0  0  0  0  0
  -89.4479   26.8390    1.5921 C   0  0  0  0  0  0  0  0  0  0  0  0
  -90.0795   27.9702    2.1067 O   0  0  0  0  0  0  0  0  0  0  0  0
  -86.4596   28.0473    0.9633 N   0  0  0  0  0  0  0  0  0  0  0  0
  -85.2534   28.3839    1.3960 C   0  0  0  0  0  0  0  0  0  0  0  0
  -84.3276   27.6725    2.1159 C   0  0  0  0  0  0  0  0  0  0  0  0
  -83.1319   28.2462    2.4492 C   0  0  0  0  0  0  0  0  0  0  0  0
  -82.8422   29.5362    2.0697 C   0  0  0  0  0  0  0  0  0  0  0  0
  -83.7747   30.2736    1.3363 C   0  0  0  0  0  0  0  0  0  0  0  0
  -84.9597   29.6977    1.0090 C   0  0  0  0  0  0  0  0  0  0  0  0
  -86.0762   30.1461    0.3059 C   0  0  0  0  0  0  0  0  0  0  0  0
  -86.4197   31.3453   -0.3143 C   0  0  0  0  0  0  0  0  0  0  0  0
  -85.6870   32.5909   -0.4712 C   0  0  0  0  0  0  0  0  0  0  0  0
  -84.5467   32.9624   -0.1014 O   0  0  0  0  0  0  0  0  0  0  0  0
  -86.5462   33.4742   -1.2058 N   0  0  0  0  0  0  0  0  0  0  0  0
  -87.7897   32.8017   -1.5046 C   0  0  0  0  0  0  0  0  0  0  0  0
  -88.7014   33.3843   -2.1458 O   0  0  0  0  0  0  0  0  0  0  0  0
  -87.6725   31.4795   -0.9333 C   0  0  0  0  0  0  0  0  0  0  0  0
  -88.5433   30.4031   -0.9106 C   0  0  0  0  0  0  0  0  0  0  0  0
  -89.8381   30.1901   -1.3720 C   0  0  0  0  0  0  0  0  0  0  0  0
  -90.7142   31.0058   -2.0352 C   0  0  0  0  0  0  0  0  0  0  0  0
  -91.9863   30.5073   -2.3451 C   0  0  0  0  0  0  0  0  0  0  0  0
  -92.3515   29.2461   -1.9995 C   0  0  0  0  0  0  0  0  0  0  0  0
  -91.4700   28.4108   -1.3262 C   0  0  0  0  0  0  0  0  0  0  0  0
  -90.2153   28.8958   -1.0202 C   0  0  0  0  0  0  0  0  0  0  0  0
  -89.2027   28.2953   -0.3640 N   0  0  0  0  0  0  0  0  0  0  0  0
  -88.1880   29.2241   -0.2965 C   0  0  0  0  0  0  0  0  0  0  0  0
  -86.9593   29.0951    0.3105 C   0  0  0  0  0  0  0  0  0  0  0  0
  -89.8169   28.0160    3.0794 H   0  0  0  0  0  0  0  0  0  0  0  0
  -86.3201   34.4629   -1.4908 H   0  0  0  0  0  0  0  0  0  0  0  0
  -90.2680   25.6433    1.9934 C   0  0  0  0  0  0  0  0  0  0  0  0
  -89.4408   24.7987    2.7673 O   0  0  0  0  0  0  0  0  0  0  0  0
  -89.9105   23.9118    2.7770 H   0  0  0  0  0  0  0  0  0  0  0  0
  2  1  1  0  0  0
  2  3  1  0  0  0
  3  4  1  0  0  0
  4  5  1  0  0  0
  5  6  1  0  0  0
  6  7  1  0  0  0
  6 35  1  0  0  0
 35 36  1  0  0  0
  4  8  1  0  0  0
  8  9  1  0  0  0
  9 10  2  0  0  0
 10 11  1  0  0  0
 11 12  2  0  0  0
 12 13  1  0  0  0
 13 14  2  0  0  0
 14 15  1  0  0  0
 15 16  2  0  0  0
 16 17  1  0  0  0
 17 18  2  0  0  0
 17 19  1  0  0  0
 19 20  1  0  0  0
 20 21  2  0  0  0
 20 22  1  0  0  0
 22 23  2  0  0  0
 23 24  1  0  0  0
 24 25  2  0  0  0
 25 26  1  0  0  0
 26 27  2  0  0  0
 27 28  1  0  0  0
 28 29  2  0  0  0
 29 30  1  0  0  0
 30 31  1  0  0  0
 31 32  2  0  0  0
  6  2  1  0  0  0
 32  8  1  0  0  0
 30  2  1  0  0  0
 14  9  1  0  0  0
 32 15  1  0  0  0
 22 16  1  0  0  0
 31 23  1  0  0  0
 29 24  1  0  0  0
  7 33  1  0  0  0
 36 37  1  0  0  0
 19 34  1  0  0  0
M  END
> <minimizedAffinity>
-12.50452

> <CNNscore>
0.2303935885

> <CNNaffinity>
6.3139643669

> <CNN_VS>
1.4546968937

> <CNNaffinity_variance>
0.2140589654

$$$$
[H]OC([H])([H])[C@@]1(O[H])C([H])([H])[C@@]2([H])O[C@]1(C([H])([H])[H])n1c3c([H])c([H])c([H])c([H])c3c3c4c(c5c6c([H])c([H])c([H])c([H])c6n2c5c31)C([H])([H])N([H])C4=O


 36 43  0  0  0  0  0  0  0  0999 V2000
  -89.9185   30.4825   -3.5913 C   0  0  0  0  0  0  0  0  0  0  0  0
  -89.3770   30.4693   -2.1649 C   0  0  0  0  0  0  0  0  0  0  0  0
  -88.8427   29.1471   -2.1087 O   0  0  0  0  0  0  0  0  0  0  0  0
  -88.8687   28.6974   -0.8366 C   0  0  0  0  0  0  0  0  0  0  0  0
  -89.9028   29.4705   -0.0648 C   0  0  0  0  0  0  0  0  0  0  0  0
  -90.4185   30.4335   -1.1201 C   0  0  0  0  0  0  0  0  0  0  0  0
  -90.6141   31.6448   -0.4608 O   0  0  0  0  0  0  0  0  0  0  0  0
  -87.5600   28.9801   -0.2449 N   0  0  0  0  0  0  0  0  0  0  0  0
  -86.8401   28.2338    0.5705 C   0  0  0  0  0  0  0  0  0  0  0  0
  -87.0813   26.9822    1.0895 C   0  0  0  0  0  0  0  0  0  0  0  0
  -86.1393   26.4115    1.9422 C   0  0  0  0  0  0  0  0  0  0  0  0
  -84.9627   27.0881    2.2745 C   0  0  0  0  0  0  0  0  0  0  0  0
  -84.7148   28.3420    1.7584 C   0  0  0  0  0  0  0  0  0  0  0  0
  -85.6587   28.8858    0.9185 C   0  0  0  0  0  0  0  0  0  0  0  0
  -85.6975   30.0727    0.2699 C   0  0  0  0  0  0  0  0  0  0  0  0
  -84.8510   31.1779    0.2119 C   0  0  0  0  0  0  0  0  0  0  0  0
  -83.5576   31.3871    0.8674 C   0  0  0  0  0  0  0  0  0  0  0  0
  -83.0957   32.6821    0.4815 N   0  0  0  0  0  0  0  0  0  0  0  0
  -84.0856   33.2654   -0.3913 C   0  0  0  0  0  0  0  0  0  0  0  0
  -83.8926   34.4015   -0.8508 O   0  0  0  0  0  0  0  0  0  0  0  0
  -85.1544   32.2996   -0.5302 C   0  0  0  0  0  0  0  0  0  0  0  0
  -86.3507   32.3424   -1.2559 C   0  0  0  0  0  0  0  0  0  0  0  0
  -86.9719   33.2469   -2.0570 C   0  0  0  0  0  0  0  0  0  0  0  0
  -86.6230   34.5158   -2.4553 C   0  0  0  0  0  0  0  0  0  0  0  0
  -87.4859   35.2434   -3.2853 C   0  0  0  0  0  0  0  0  0  0  0  0
  -88.6596   34.6720   -3.6806 C   0  0  0  0  0  0  0  0  0  0  0  0
  -89.0023   33.3776   -3.2665 C   0  0  0  0  0  0  0  0  0  0  0  0
  -88.1674   32.6638   -2.4609 C   0  0  0  0  0  0  0  0  0  0  0  0
  -88.3095   31.4288   -1.9433 N   0  0  0  0  0  0  0  0  0  0  0  0
  -87.1805   31.2376   -1.1911 C   0  0  0  0  0  0  0  0  0  0  0  0
  -86.8611   30.1315   -0.4446 C   0  0  0  0  0  0  0  0  0  0  0  0
  -91.4855   32.0062   -0.7866 H   0  0  0  0  0  0  0  0  0  0  0  0
  -82.1818   33.1504    0.7778 H   0  0  0  0  0  0  0  0  0  0  0  0
  -91.7146   29.8476   -1.6215 C   0  0  0  0  0  0  0  0  0  0  0  0
  -92.3046   29.1818   -0.5201 O   0  0  0  0  0  0  0  0  0  0  0  0
  -93.2378   28.9020   -0.7873 H   0  0  0  0  0  0  0  0  0  0  0  0
  2  1  1  0  0  0
  2  3  1  0  0  0
  3  4  1  0  0  0
  4  5  1  0  0  0
  5  6  1  0  0  0
  6  7  1  0  0  0
  6 34  1  0  0  0
 34 35  1  0  0  0
  4  8  1  0  0  0
  8  9  1  0  0  0
  9 10  2  0  0  0
 10 11  1  0  0  0
 11 12  2  0  0  0
 12 13  1  0  0  0
 13 14  2  0  0  0
 14 15  1  0  0  0
 15 16  2  0  0  0
 16 17  1  0  0  0
 17 18  1  0  0  0
 18 19  1  0  0  0
 19 20  2  0  0  0
 19 21  1  0  0  0
 21 22  2  0  0  0
 22 23  1  0  0  0
 23 24  2  0  0  0
 24 25  1  0  0  0
 25 26  2  0  0  0
 26 27  1  0  0  0
 27 28  2  0  0  0
 28 29  1  0  0  0
 29 30  1  0  0  0
 30 31  2  0  0  0
  6  2  1  0  0  0
 31  8  1  0  0  0
 29  2  1  0  0  0
 14  9  1  0  0  0
 31 15  1  0  0  0
 21 16  1  0  0  0
 30 22  1  0  0  0
 28 23  1  0  0  0
  7 32  1  0  0  0
 35 36  1  0  0  0
 18 33  1  0  0  0
M  END
> <minimizedAffinity>
-10.39699

> <CNNscore>
0.4769384563

> <CNNaffinity>
6.3957967758

> <CNN_VS>
3.0504014492

> <CNNaffinity_variance>
0.3223753870

$$$$
[H]OC([H])([H])[C@@]1(O[H])C([H])([H])[C@@]2([H])O[C@]1(C([H])([H])[H])n1c3c([H])c([H])c([H])c([H])c3c3c4c(c5c6c([H])c([H])c([H])c([H])c6n2c5c31)C([H])([H])N([H])C4=O


 36 43  0  0  0  0  0  0  0  0999 V2000
  -88.1800   27.2789    2.3726 C   0  0  0  0  0  0  0  0  0  0  0  0
  -88.0323   27.8437    0.9629 C   0  0  0  0  0  0  0  0  0  0  0  0
  -89.2337   28.6086    0.8690 O   0  0  0  0  0  0  0  0  0  0  0  0
  -89.6236   28.6906   -0.4203 C   0  0  0  0  0  0  0  0  0  0  0  0
  -89.0146   27.5506   -1.1898 C   0  0  0  0  0  0  0  0  0  0  0  0
  -88.2075   26.8478   -0.1120 C   0  0  0  0  0  0  0  0  0  0  0  0
  -87.0227   26.4511   -0.7275 O   0  0  0  0  0  0  0  0  0  0  0  0
  -89.0850   29.9392   -0.9625 N   0  0  0  0  0  0  0  0  0  0  0  0
  -89.6532   30.7987   -1.7862 C   0  0  0  0  0  0  0  0  0  0  0  0
  -90.9033   30.7978   -2.3616 C   0  0  0  0  0  0  0  0  0  0  0  0
  -91.2575   31.8449   -3.2091 C   0  0  0  0  0  0  0  0  0  0  0  0
  -90.3671   32.8871   -3.4802 C   0  0  0  0  0  0  0  0  0  0  0  0
  -89.1133   32.8941   -2.9074 C   0  0  0  0  0  0  0  0  0  0  0  0
  -88.7853   31.8503   -2.0738 C   0  0  0  0  0  0  0  0  0  0  0  0
  -87.6546   31.5847   -1.3795 C   0  0  0  0  0  0  0  0  0  0  0  0
  -86.4194   32.2168   -1.2530 C   0  0  0  0  0  0  0  0  0  0  0  0
  -85.9529   33.4649   -1.8623 C   0  0  0  0  0  0  0  0  0  0  0  0
  -84.6147   33.6776   -1.4118 N   0  0  0  0  0  0  0  0  0  0  0  0
  -84.2575   32.5808   -0.5450 C   0  0  0  0  0  0  0  0  0  0  0  0
  -83.1269   32.5563   -0.0350 O   0  0  0  0  0  0  0  0  0  0  0  0
  -85.4043   31.7008   -0.4756 C   0  0  0  0  0  0  0  0  0  0  0  0
  -85.6089   30.5014    0.2167 C   0  0  0  0  0  0  0  0  0  0  0  0
  -84.8670   29.7107    1.0353 C   0  0  0  0  0  0  0  0  0  0  0  0
  -83.5751   29.8169    1.4940 C   0  0  0  0  0  0  0  0  0  0  0  0
  -83.0515   28.8198    2.3274 C   0  0  0  0  0  0  0  0  0  0  0  0
  -83.8409   27.7603    2.6656 C   0  0  0  0  0  0  0  0  0  0  0  0
  -85.1560   27.6651    2.1904 C   0  0  0  0  0  0  0  0  0  0  0  0
  -85.6721   28.6316    1.3810 C   0  0  0  0  0  0  0  0  0  0  0  0
  -86.8883   28.7253    0.8106 N   0  0  0  0  0  0  0  0  0  0  0  0
  -86.8404   29.8857    0.0839 C   0  0  0  0  0  0  0  0  0  0  0  0
  -87.8371   30.4148   -0.6969 C   0  0  0  0  0  0  0  0  0  0  0  0
  -86.8381   25.5222   -0.4126 H   0  0  0  0  0  0  0  0  0  0  0  0
  -83.9775   34.4983   -1.6627 H   0  0  0  0  0  0  0  0  0  0  0  0
  -89.0378   25.6683    0.3282 C   0  0  0  0  0  0  0  0  0  0  0  0
  -88.2829   24.5110    0.0198 O   0  0  0  0  0  0  0  0  0  0  0  0
  -88.7493   23.7147    0.4310 H   0  0  0  0  0  0  0  0  0  0  0  0
  2  1  1  0  0  0
  2  3  1  0  0  0
  3  4  1  0  0  0
  4  5  1  0  0  0
  5  6  1  0  0  0
  6  7  1  0  0  0
  6 34  1  0  0  0
 34 35  1  0  0  0
  4  8  1  0  0  0
  8  9  1  0  0  0
  9 10  2  0  0  0
 10 11  1  0  0  0
 11 12  2  0  0  0
 12 13  1  0  0  0
 13 14  2  0  0  0
 14 15  1  0  0  0
 15 16  2  0  0  0
 16 17  1  0  0  0
 17 18  1  0  0  0
 18 19  1  0  0  0
 19 20  2  0  0  0
 19 21  1  0  0  0
 21 22  2  0  0  0
 22 23  1  0  0  0
 23 24  2  0  0  0
 24 25  1  0  0  0
 25 26  2  0  0  0
 26 27  1  0  0  0
 27 28  2  0  0  0
 28 29  1  0  0  0
 29 30  1  0  0  0
 30 31  2  0  0  0
  6  2  1  0  0  0
 31  8  1  0  0  0
 29  2  1  0  0  0
 14  9  1  0  0  0
 31 15  1  0  0  0
 21 16  1  0  0  0
 30 22  1  0  0  0
 28 23  1  0  0  0
  7 32  1  0  0  0
 35 36  1  0  0  0
 18 33  1  0  0  0
M  END
> <minimizedAffinity>
-12.30619

> <CNNscore>
0.4575030208

> <CNNaffinity>
6.4438972473

> <CNN_VS>
2.9481024742

> <CNNaffinity_variance>
0.2728044391

$$$$
[H]OC([H])([H])[C@@]1(O[H])C([H])([H])[C@@]2([H])O[C@]1(C([H])([H])[H])n1c3c([H])c([H])c([H])c([H])c3c3c4c(c5c6c([H])c([H])c([H])c([H])c6n2c5c31)C([H])([H])N([H])C4=O


 36 43  0  0  0  0  0  0  0  0999 V2000
  -88.9165   27.8230    1.2458 C   0  0  0  0  0  0  0  0  0  0  0  0
  -88.3122   28.5832    0.0690 C   0  0  0  0  0  0  0  0  0  0  0  0
  -89.2428   29.6595   -0.0423 O   0  0  0  0  0  0  0  0  0  0  0  0
  -89.2874   30.0948   -1.3189 C   0  0  0  0  0  0  0  0  0  0  0  0
  -88.8003   28.9994   -2.2274 C   0  0  0  0  0  0  0  0  0  0  0  0
  -88.4586   27.9036   -1.2327 C   0  0  0  0  0  0  0  0  0  0  0  0
  -87.2898   27.3143   -1.7088 O   0  0  0  0  0  0  0  0  0  0  0  0
  -88.3580   31.2202   -1.4310 N   0  0  0  0  0  0  0  0  0  0  0  0
  -88.4974   32.3470   -2.1026 C   0  0  0  0  0  0  0  0  0  0  0  0
  -89.5408   32.8102   -2.8711 C   0  0  0  0  0  0  0  0  0  0  0  0
  -89.4287   34.0573   -3.4812 C   0  0  0  0  0  0  0  0  0  0  0  0
  -88.2798   34.8371   -3.3243 C   0  0  0  0  0  0  0  0  0  0  0  0
  -87.2310   34.3792   -2.5560 C   0  0  0  0  0  0  0  0  0  0  0  0
  -87.3637   33.1452   -1.9630 C   0  0  0  0  0  0  0  0  0  0  0  0
  -86.5237   32.4425   -1.1683 C   0  0  0  0  0  0  0  0  0  0  0  0
  -85.2399   32.6630   -0.6736 C   0  0  0  0  0  0  0  0  0  0  0  0
  -84.3628   33.8212   -0.8624 C   0  0  0  0  0  0  0  0  0  0  0  0
  -83.1570   33.5562   -0.1448 N   0  0  0  0  0  0  0  0  0  0  0  0
  -83.2826   32.2579    0.4718 C   0  0  0  0  0  0  0  0  0  0  0  0
  -82.3424   31.8171    1.1507 O   0  0  0  0  0  0  0  0  0  0  0  0
  -84.5874   31.7417    0.1178 C   0  0  0  0  0  0  0  0  0  0  0  0
  -85.2258   30.5392    0.4439 C   0  0  0  0  0  0  0  0  0  0  0  0
  -84.9051   29.4290    1.1583 C   0  0  0  0  0  0  0  0  0  0  0  0
  -83.7700   29.0754    1.8491 C   0  0  0  0  0  0  0  0  0  0  0  0
  -83.7074   27.8301    2.4880 C   0  0  0  0  0  0  0  0  0  0  0  0
  -84.7808   26.9925    2.4085 C   0  0  0  0  0  0  0  0  0  0  0  0
  -85.9313   27.3662    1.7006 C   0  0  0  0  0  0  0  0  0  0  0  0
  -85.9998   28.5760    1.0783 C   0  0  0  0  0  0  0  0  0  0  0  0
  -86.9901   29.1175    0.3439 N   0  0  0  0  0  0  0  0  0  0  0  0
  -86.5006   30.3343   -0.0521 C   0  0  0  0  0  0  0  0  0  0  0  0
  -87.1319   31.2633   -0.8403 C   0  0  0  0  0  0  0  0  0  0  0  0
  -87.4086   26.3285   -1.6067 H   0  0  0  0  0  0  0  0  0  0  0  0
  -82.3039   34.1956   -0.0682 H   0  0  0  0  0  0  0  0  0  0  0  0
  -89.6229   26.9451   -1.2521 C   0  0  0  0  0  0  0  0  0  0  0  0
  -89.2397   25.8679   -2.0870 O   0  0  0  0  0  0  0  0  0  0  0  0
  -89.9407   25.1448   -2.0060 H   0  0  0  0  0  0  0  0  0  0  0  0
  2  1  1  0  0  0
  2  3  1  0  0  0
  3  4  1  0  0  0
  4  5  1  0  0  0
  5  6  1  0  0  0
  6  7  1  0  0  0
  6 34  1  0  0  0
 34 35  1  0  0  0
  4  8  1  0  0  0
  8  9  1  0  0  0
  9 10  2  0  0  0
 10 11  1  0  0  0
 11 12  2  0  0  0
 12 13  1  0  0  0
 13 14  2  0  0  0
 14 15  1  0  0  0
 15 16  2  0  0  0
 16 17  1  0  0  0
 17 18  1  0  0  0
 18 19  1  0  0  0
 19 20  2  0  0  0
 19 21  1  0  0  0
 21 22  2  0  0  0
 22 23  1  0  0  0
 23 24  2  0  0  0
 24 25  1  0  0  0
 25 26  2  0  0  0
 26 27  1  0  0  0
 27 28  2  0  0  0
 28 29  1  0  0  0
 29 30  1  0  0  0
 30 31  2  0  0  0
  6  2  1  0  0  0
 31  8  1  0  0  0
 29  2  1  0  0  0
 14  9  1  0  0  0
 31 15  1  0  0  0
 21 16  1  0  0  0
 30 22  1  0  0  0
 28 23  1  0  0  0
  7 32  1  0  0  0
 35 36  1  0  0  0
 18 33  1  0  0  0
M  END
> <minimizedAffinity>
-12.49274

> <CNNscore>
0.4038070142

> <CNNaffinity>
6.4757728577

> <CNN_VS>
2.6149625778

> <CNNaffinity_variance>
0.3484996259

$$$$
[H]OC([H])([H])[C@@]1(O[H])C([H])([H])[C@@]2([H])O[C@]1(C([H])([H])[H])n1c3c([H])c([H])c([H])c([H])c3c3c4c(c5c6c([H])c([H])c([H])c([H])c6n2c5c31)C([H])([H])N([H])C4=O


 36 43  0  0  0  0  0  0  0  0999 V2000
  -84.9228   28.5785    0.5337 C   0  0  0  0  0  0  0  0  0  0  0  0
  -85.8704   29.7743    0.5391 C   0  0  0  0  0  0  0  0  0  0  0  0
  -85.1741   30.6537   -0.3434 O   0  0  0  0  0  0  0  0  0  0  0  0
  -85.4615   31.9350   -0.0324 C   0  0  0  0  0  0  0  0  0  0  0  0
  -85.9328   31.9989    1.3947 C   0  0  0  0  0  0  0  0  0  0  0  0
  -85.8791   30.5369    1.8025 C   0  0  0  0  0  0  0  0  0  0  0  0
  -87.0051   30.3254    2.5945 O   0  0  0  0  0  0  0  0  0  0  0  0
  -86.5686   32.3570   -0.8922 N   0  0  0  0  0  0  0  0  0  0  0  0
  -86.7574   33.5168   -1.4914 C   0  0  0  0  0  0  0  0  0  0  0  0
  -85.9829   34.6542   -1.5091 C   0  0  0  0  0  0  0  0  0  0  0  0
  -86.4221   35.7593   -2.2343 C   0  0  0  0  0  0  0  0  0  0  0  0
  -87.6290   35.7279   -2.9379 C   0  0  0  0  0  0  0  0  0  0  0  0
  -88.4097   34.5920   -2.9243 C   0  0  0  0  0  0  0  0  0  0  0  0
  -87.9563   33.5129   -2.2019 C   0  0  0  0  0  0  0  0  0  0  0  0
  -88.4894   32.2853   -2.0026 C   0  0  0  0  0  0  0  0  0  0  0  0
  -89.6650   31.6575   -2.4088 C   0  0  0  0  0  0  0  0  0  0  0  0
  -90.7426   32.1727   -3.2573 C   0  0  0  0  0  0  0  0  0  0  0  0
  -91.7172   31.1356   -3.3745 N   0  0  0  0  0  0  0  0  0  0  0  0
  -91.2551   30.0026   -2.6099 C   0  0  0  0  0  0  0  0  0  0  0  0
  -91.9519   28.9770   -2.5670 O   0  0  0  0  0  0  0  0  0  0  0  0
  -89.9814   30.3702   -2.0295 C   0  0  0  0  0  0  0  0  0  0  0  0
  -89.0992   29.6578   -1.2086 C   0  0  0  0  0  0  0  0  0  0  0  0
  -89.0793   28.4241   -0.6400 C   0  0  0  0  0  0  0  0  0  0  0  0
  -89.9763   27.3824   -0.6704 C   0  0  0  0  0  0  0  0  0  0  0  0
  -89.7002   26.2092    0.0439 C   0  0  0  0  0  0  0  0  0  0  0  0
  -88.5408   26.1280    0.7576 C   0  0  0  0  0  0  0  0  0  0  0  0
  -87.6359   27.1980    0.7797 C   0  0  0  0  0  0  0  0  0  0  0  0
  -87.8970   28.3411    0.0863 C   0  0  0  0  0  0  0  0  0  0  0  0
  -87.1799   29.4764   -0.0139 N   0  0  0  0  0  0  0  0  0  0  0  0
  -87.9349   30.2922   -0.8147 C   0  0  0  0  0  0  0  0  0  0  0  0
  -87.6397   31.5752   -1.2015 C   0  0  0  0  0  0  0  0  0  0  0  0
  -86.7057   29.7721    3.3693 H   0  0  0  0  0  0  0  0  0  0  0  0
  -92.6315   31.1756   -3.9267 H   0  0  0  0  0  0  0  0  0  0  0  0
  -84.5997   30.3686    2.5832 C   0  0  0  0  0  0  0  0  0  0  0  0
  -84.0349   31.6608    2.7080 O   0  0  0  0  0  0  0  0  0  0  0  0
  -83.2536   31.6003    3.3457 H   0  0  0  0  0  0  0  0  0  0  0  0
  2  1  1  0  0  0
  2  3  1  0  0  0
  3  4  1  0  0  0
  4  5  1  0  0  0
  5  6  1  0  0  0
  6  7  1  0  0  0
  6 34  1  0  0  0
 34 35  1  0  0  0
  4  8  1  0  0  0
  8  9  1  0  0  0
  9 10  2  0  0  0
 10 11  1  0  0  0
 11 12  2  0  0  0
 12 13  1  0  0  0
 13 14  2  0  0  0
 14 15  1  0  0  0
 15 16  2  0  0  0
 16 17  1  0  0  0
 17 18  1  0  0  0
 18 19  1  0  0  0
 19 20  2  0  0  0
 19 21  1  0  0  0
 21 22  2  0  0  0
 22 23  1  0  0  0
 23 24  2  0  0  0
 24 25  1  0  0  0
 25 26  2  0  0  0
 26 27  1  0  0  0
 27 28  2  0  0  0
 28 29  1  0  0  0
 29 30  1  0  0  0
 30 31  2  0  0  0
  6  2  1  0  0  0
 31  8  1  0  0  0
 29  2  1  0  0  0
 14  9  1  0  0  0
 31 15  1  0  0  0
 21 16  1  0  0  0
 30 22  1  0  0  0
 28 23  1  0  0  0
  7 32  1  0  0  0
 35 36  1  0  0  0
 18 33  1  0  0  0
M  END
> <minimizedAffinity>
-1.57550

> <CNNscore>
0.3505344391

> <CNNaffinity>
6.2014322281

> <CNN_VS>
2.1738154888

> <CNNaffinity_variance>
0.8330610991

$$$$
[H]OC([H])([H])[C@@]1(O[H])C([H])([H])[C@@]2([H])O[C@]1(C([H])([H])[H])n1c3c([H])c([H])c([H])c([H])c3c3c4c(c5c6c([H])c([H])c([H])c([H])c6n2c5c31)C([H])([H])N([H])C4=O


 36 43  0  0  0  0  0  0  0  0999 V2000
  -90.0970   25.8437    3.7396 C   0  0  0  0  0  0  0  0  0  0  0  0
  -90.2976   25.0211    2.4703 C   0  0  0  0  0  0  0  0  0  0  0  0
  -91.6464   24.5931    2.6561 O   0  0  0  0  0  0  0  0  0  0  0  0
  -91.8428   23.4153    2.0273 C   0  0  0  0  0  0  0  0  0  0  0  0
  -90.5158   22.7314    1.8427 C   0  0  0  0  0  0  0  0  0  0  0  0
  -89.5605   23.7428    2.4520 C   0  0  0  0  0  0  0  0  0  0  0  0
  -88.4351   23.7392    1.6315 O   0  0  0  0  0  0  0  0  0  0  0  0
  -92.3856   23.7119    0.7006 N   0  0  0  0  0  0  0  0  0  0  0  0
  -93.3276   23.0775    0.0294 C   0  0  0  0  0  0  0  0  0  0  0  0
  -94.0857   21.9798    0.3674 C   0  0  0  0  0  0  0  0  0  0  0  0
  -95.0280   21.5040   -0.5413 C   0  0  0  0  0  0  0  0  0  0  0  0
  -95.2116   22.1219   -1.7811 C   0  0  0  0  0  0  0  0  0  0  0  0
  -94.4556   23.2217   -2.1261 C   0  0  0  0  0  0  0  0  0  0  0  0
  -93.5314   23.6741   -1.2133 C   0  0  0  0  0  0  0  0  0  0  0  0
  -92.6607   24.7087   -1.2637 C   0  0  0  0  0  0  0  0  0  0  0  0
  -92.3474   25.6710   -2.2213 C   0  0  0  0  0  0  0  0  0  0  0  0
  -92.9306   25.8777   -3.5494 C   0  0  0  0  0  0  0  0  0  0  0  0
  -92.2637   26.9985   -4.1311 N   0  0  0  0  0  0  0  0  0  0  0  0
  -91.2837   27.4733   -3.1846 C   0  0  0  0  0  0  0  0  0  0  0  0
  -90.5780   28.4491   -3.4827 O   0  0  0  0  0  0  0  0  0  0  0  0
  -91.3704   26.6222   -2.0173 C   0  0  0  0  0  0  0  0  0  0  0  0
  -90.6616   26.6333   -0.8101 C   0  0  0  0  0  0  0  0  0  0  0  0
  -89.6584   27.3782   -0.2768 C   0  0  0  0  0  0  0  0  0  0  0  0
  -88.9419   28.4437   -0.7687 C   0  0  0  0  0  0  0  0  0  0  0  0
  -87.9260   29.0140    0.0095 C   0  0  0  0  0  0  0  0  0  0  0  0
  -87.6699   28.4948    1.2445 C   0  0  0  0  0  0  0  0  0  0  0  0
  -88.4082   27.4082    1.7328 C   0  0  0  0  0  0  0  0  0  0  0  0
  -89.3984   26.8497    0.9824 C   0  0  0  0  0  0  0  0  0  0  0  0
  -90.2062   25.8067    1.2522 N   0  0  0  0  0  0  0  0  0  0  0  0
  -90.9843   25.6738    0.1325 C   0  0  0  0  0  0  0  0  0  0  0  0
  -91.9588   24.7341   -0.0912 C   0  0  0  0  0  0  0  0  0  0  0  0
  -87.6429   23.7537    2.2386 H   0  0  0  0  0  0  0  0  0  0  0  0
  -92.4464   27.4226   -5.0950 H   0  0  0  0  0  0  0  0  0  0  0  0
  -89.2498   23.2395    3.8393 C   0  0  0  0  0  0  0  0  0  0  0  0
  -89.7590   21.9204    3.9092 O   0  0  0  0  0  0  0  0  0  0  0  0
  -89.4415   21.5081    4.7751 H   0  0  0  0  0  0  0  0  0  0  0  0
  2  1  1  0  0  0
  2  3  1  0  0  0
  3  4  1  0  0  0
  4  5  1  0  0  0
  5  6  1  0  0  0
  6  7  1  0  0  0
  6 34  1  0  0  0
 34 35  1  0  0  0
  4  8  1  0  0  0
  8  9  1  0  0  0
  9 10  2  0  0  0
 10 11  1  0  0  0
 11 12  2  0  0  0
 12 13  1  0  0  0
 13 14  2  0  0  0
 14 15  1  0  0  0
 15 16  2  0  0  0
 16 17  1  0  0  0
 17 18  1  0  0  0
 18 19  1  0  0  0
 19 20  2  0  0  0
 19 21  1  0  0  0
 21 22  2  0  0  0
 22 23  1  0  0  0
 23 24  2  0  0  0
 24 25  1  0  0  0
 25 26  2  0  0  0
 26 27  1  0  0  0
 27 28  2  0  0  0
 28 29  1  0  0  0
 29 30  1  0  0  0
 30 31  2  0  0  0
  6  2  1  0  0  0
 31  8  1  0  0  0
 29  2  1  0  0  0
 14  9  1  0  0  0
 31 15  1  0  0  0
 21 16  1  0  0  0
 30 22  1  0  0  0
 28 23  1  0  0  0
  7 32  1  0  0  0
 35 36  1  0  0  0
 18 33  1  0  0  0
M  END
> <minimizedAffinity>
-3.08141

> <CNNscore>
0.2876886725

> <CNNaffinity>
5.4309887886

> <CNN_VS>
1.5624339581

> <CNNaffinity_variance>
0.4391471744

$$$$
[H]OC([H])([H])[C@@]1(O[H])C([H])([H])[C@@]2([H])O[C@]1(C([H])([H])[H])n1c3c([H])c([H])c([H])c([H])c3c3c4c(c5c6c([H])c([H])c([H])c([H])c6n2c5c31)C([H])([H])N([H])C4=O


 36 43  0  0  0  0  0  0  0  0999 V2000
  -90.6068   32.1176   -2.3642 C   0  0  0  0  0  0  0  0  0  0  0  0
  -89.1895   31.5527   -2.3631 C   0  0  0  0  0  0  0  0  0  0  0  0
  -88.5153   32.5607   -1.6106 O   0  0  0  0  0  0  0  0  0  0  0  0
  -87.2185   32.6161   -1.9798 C   0  0  0  0  0  0  0  0  0  0  0  0
  -87.0762   32.0309   -3.3582 C   0  0  0  0  0  0  0  0  0  0  0  0
  -88.5061   31.6240   -3.6692 C   0  0  0  0  0  0  0  0  0  0  0  0
  -88.4138   30.4055   -4.3375 O   0  0  0  0  0  0  0  0  0  0  0  0
  -86.4622   31.7735   -1.0520 N   0  0  0  0  0  0  0  0  0  0  0  0
  -85.2750   31.9868   -0.5179 C   0  0  0  0  0  0  0  0  0  0  0  0
  -84.4099   33.0489   -0.6491 C   0  0  0  0  0  0  0  0  0  0  0  0
  -83.1979   33.0217    0.0368 C   0  0  0  0  0  0  0  0  0  0  0  0
  -82.8525   31.9387    0.8495 C   0  0  0  0  0  0  0  0  0  0  0  0
  -83.7143   30.8715    0.9853 C   0  0  0  0  0  0  0  0  0  0  0  0
  -84.9053   30.9200    0.2989 C   0  0  0  0  0  0  0  0  0  0  0  0
  -85.9335   30.0427    0.2335 C   0  0  0  0  0  0  0  0  0  0  0  0
  -86.1790   28.7884    0.7883 C   0  0  0  0  0  0  0  0  0  0  0  0
  -85.3424   27.9991    1.6958 C   0  0  0  0  0  0  0  0  0  0  0  0
  -86.0487   26.7893    1.9728 N   0  0  0  0  0  0  0  0  0  0  0  0
  -87.2954   26.8262    1.2474 C   0  0  0  0  0  0  0  0  0  0  0  0
  -88.0770   25.8671    1.3387 O   0  0  0  0  0  0  0  0  0  0  0  0
  -87.3338   28.0814    0.5281 C   0  0  0  0  0  0  0  0  0  0  0  0
  -88.3016   28.6317   -0.3206 C   0  0  0  0  0  0  0  0  0  0  0  0
  -89.5094   28.2397   -0.8036 C   0  0  0  0  0  0  0  0  0  0  0  0
  -90.2458   27.0932   -0.6198 C   0  0  0  0  0  0  0  0  0  0  0  0
  -91.4754   26.9468   -1.2753 C   0  0  0  0  0  0  0  0  0  0  0  0
  -91.9152   27.9516   -2.0860 C   0  0  0  0  0  0  0  0  0  0  0  0
  -91.1537   29.1147   -2.2641 C   0  0  0  0  0  0  0  0  0  0  0  0
  -89.9581   29.2645   -1.6287 C   0  0  0  0  0  0  0  0  0  0  0  0
  -89.0752   30.2802   -1.6725 N   0  0  0  0  0  0  0  0  0  0  0  0
  -88.0459   29.8783   -0.8626 C   0  0  0  0  0  0  0  0  0  0  0  0
  -86.8889   30.5648   -0.5927 C   0  0  0  0  0  0  0  0  0  0  0  0
  -89.0594   30.4504   -5.0973 H   0  0  0  0  0  0  0  0  0  0  0  0
  -85.7252   25.9890    2.6030 H   0  0  0  0  0  0  0  0  0  0  0  0
  -89.0665   32.7111   -4.5516 C   0  0  0  0  0  0  0  0  0  0  0  0
  -89.4672   32.0821   -5.7549 O   0  0  0  0  0  0  0  0  0  0  0  0
  -89.9748   32.7587   -6.3074 H   0  0  0  0  0  0  0  0  0  0  0  0
  2  1  1  0  0  0
  2  3  1  0  0  0
  3  4  1  0  0  0
  4  5  1  0  0  0
  5  6  1  0  0  0
  6  7  1  0  0  0
  6 34  1  0  0  0
 34 35  1  0  0  0
  4  8  1  0  0  0
  8  9  1  0  0  0
  9 10  2  0  0  0
 10 11  1  0  0  0
 11 12  2  0  0  0
 12 13  1  0  0  0
 13 14  2  0  0  0
 14 15  1  0  0  0
 15 16  2  0  0  0
 16 17  1  0  0  0
 17 18  1  0  0  0
 18 19  1  0  0  0
 19 20  2  0  0  0
 19 21  1  0  0  0
 21 22  2  0  0  0
 22 23  1  0  0  0
 23 24  2  0  0  0
 24 25  1  0  0  0
 25 26  2  0  0  0
 26 27  1  0  0  0
 27 28  2  0  0  0
 28 29  1  0  0  0
 29 30  1  0  0  0
 30 31  2  0  0  0
  6  2  1  0  0  0
 31  8  1  0  0  0
 29  2  1  0  0  0
 14  9  1  0  0  0
 31 15  1  0  0  0
 21 16  1  0  0  0
 30 22  1  0  0  0
 28 23  1  0  0  0
  7 32  1  0  0  0
 35 36  1  0  0  0
 18 33  1  0  0  0
M  END
> <minimizedAffinity>
-10.71338

> <CNNscore>
0.2327124476

> <CNNaffinity>
6.1959943771

> <CNN_VS>
1.4418849945

> <CNNaffinity_variance>
0.2915059626

$$$$
[H]OC([H])([H])[C@@]1(O[H])C([H])([H])[C@@]2([H])O[C@]1(C([H])([H])[H])n1c3c([H])c([H])c([H])c([H])c3c3c4c(c5c6c([H])c([H])c([H])c([H])c6n2c5c31)C([H])([H])N([H])C4=O


 36 43  0  0  0  0  0  0  0  0999 V2000
  -85.9059   33.1469   -2.7445 C   0  0  0  0  0  0  0  0  0  0  0  0
  -87.0736   32.3982   -2.1088 C   0  0  0  0  0  0  0  0  0  0  0  0
  -87.6659   31.8185   -3.2707 O   0  0  0  0  0  0  0  0  0  0  0  0
  -88.9881   31.6395   -3.0687 C   0  0  0  0  0  0  0  0  0  0  0  0
  -89.4481   32.5715   -1.9813 C   0  0  0  0  0  0  0  0  0  0  0  0
  -88.1528   33.2702   -1.6061 C   0  0  0  0  0  0  0  0  0  0  0  0
  -88.1854   33.4047   -0.2202 O   0  0  0  0  0  0  0  0  0  0  0  0
  -89.1774   30.2670   -2.5962 N   0  0  0  0  0  0  0  0  0  0  0  0
  -90.1320   29.4093   -2.9015 C   0  0  0  0  0  0  0  0  0  0  0  0
  -91.2078   29.5292   -3.7513 C   0  0  0  0  0  0  0  0  0  0  0  0
  -92.0796   28.4522   -3.8935 C   0  0  0  0  0  0  0  0  0  0  0  0
  -91.8774   27.2620   -3.1899 C   0  0  0  0  0  0  0  0  0  0  0  0
  -90.8020   27.1352   -2.3370 C   0  0  0  0  0  0  0  0  0  0  0  0
  -89.9543   28.2112   -2.2124 C   0  0  0  0  0  0  0  0  0  0  0  0
  -88.8374   28.3853   -1.4687 C   0  0  0  0  0  0  0  0  0  0  0  0
  -88.1425   27.5937   -0.5567 C   0  0  0  0  0  0  0  0  0  0  0  0
  -88.4242   26.2243   -0.1184 C   0  0  0  0  0  0  0  0  0  0  0  0
  -87.4113   25.8680    0.8231 N   0  0  0  0  0  0  0  0  0  0  0  0
  -86.5231   26.9957    0.9689 C   0  0  0  0  0  0  0  0  0  0  0  0
  -85.5605   26.9108    1.7469 O   0  0  0  0  0  0  0  0  0  0  0  0
  -87.0138   28.0411    0.0967 C   0  0  0  0  0  0  0  0  0  0  0  0
  -86.5383   29.3332   -0.1565 C   0  0  0  0  0  0  0  0  0  0  0  0
  -85.5071   30.0963    0.2908 C   0  0  0  0  0  0  0  0  0  0  0  0
  -84.5123   29.8526    1.2082 C   0  0  0  0  0  0  0  0  0  0  0  0
  -83.5749   30.8532    1.4960 C   0  0  0  0  0  0  0  0  0  0  0  0
  -83.6724   32.0534    0.8555 C   0  0  0  0  0  0  0  0  0  0  0  0
  -84.6919   32.2878   -0.0771 C   0  0  0  0  0  0  0  0  0  0  0  0
  -85.6059   31.3190   -0.3631 C   0  0  0  0  0  0  0  0  0  0  0  0
  -86.6580   31.3416   -1.2032 N   0  0  0  0  0  0  0  0  0  0  0  0
  -87.2364   30.1073   -1.0657 C   0  0  0  0  0  0  0  0  0  0  0  0
  -88.3592   29.6439   -1.7038 C   0  0  0  0  0  0  0  0  0  0  0  0
  -87.8602   34.3264   -0.0181 H   0  0  0  0  0  0  0  0  0  0  0  0
  -87.3144   24.9359    1.3370 H   0  0  0  0  0  0  0  0  0  0  0  0
  -88.1828   34.6068   -2.3042 C   0  0  0  0  0  0  0  0  0  0  0  0
  -89.4345   34.6866   -2.9609 O   0  0  0  0  0  0  0  0  0  0  0  0
  -89.5411   35.6257   -3.3178 H   0  0  0  0  0  0  0  0  0  0  0  0
  2  1  1  0  0  0
  2  3  1  0  0  0
  3  4  1  0  0  0
  4  5  1  0  0  0
  5  6  1  0  0  0
  6  7  1  0  0  0
  6 34  1  0  0  0
 34 35  1  0  0  0
  4  8  1  0  0  0
  8  9  1  0  0  0
  9 10  2  0  0  0
 10 11  1  0  0  0
 11 12  2  0  0  0
 12 13  1  0  0  0
 13 14  2  0  0  0
 14 15  1  0  0  0
 15 16  2  0  0  0
 16 17  1  0  0  0
 17 18  1  0  0  0
 18 19  1  0  0  0
 19 20  2  0  0  0
 19 21  1  0  0  0
 21 22  2  0  0  0
 22 23  1  0  0  0
 23 24  2  0  0  0
 24 25  1  0  0  0
 25 26  2  0  0  0
 26 27  1  0  0  0
 27 28  2  0  0  0
 28 29  1  0  0  0
 29 30  1  0  0  0
 30 31  2  0  0  0
  6  2  1  0  0  0
 31  8  1  0  0  0
 29  2  1  0  0  0
 14  9  1  0  0  0
 31 15  1  0  0  0
 21 16  1  0  0  0
 30 22  1  0  0  0
 28 23  1  0  0  0
  7 32  1  0  0  0
 35 36  1  0  0  0
 18 33  1  0  0  0
M  END
> <minimizedAffinity>
-9.37393

> <CNNscore>
0.2183256596

> <CNNaffinity>
6.2206435204

> <CNN_VS>
1.3581260443

> <CNNaffinity_variance>
0.2637578249

$$$$
[H]OC([H])([H])[C@@]1(O[H])C([H])([H])[C@@]2([H])O[C@]1(C([H])([H])[H])n1c3c([H])c([H])c([H])c([H])c3c3c4c(c5c6c([H])c([H])c([H])c([H])c6n2c5c31)C([H])([H])N([H])C4=O


 36 43  0  0  0  0  0  0  0  0999 V2000
  -89.4156   33.9666   -2.2775 C   0  0  0  0  0  0  0  0  0  0  0  0
  -88.2711   32.9576   -2.2645 C   0  0  0  0  0  0  0  0  0  0  0  0
  -87.6850   33.2552   -0.9977 O   0  0  0  0  0  0  0  0  0  0  0  0
  -86.3691   32.9573   -1.0217 C   0  0  0  0  0  0  0  0  0  0  0  0
  -85.8940   32.9519   -2.4489 C   0  0  0  0  0  0  0  0  0  0  0  0
  -87.1744   33.2710   -3.2009 C   0  0  0  0  0  0  0  0  0  0  0  0
  -87.1481   32.4748   -4.3435 O   0  0  0  0  0  0  0  0  0  0  0  0
  -86.2167   31.6018   -0.4906 N   0  0  0  0  0  0  0  0  0  0  0  0
  -85.2812   31.1243    0.3076 C   0  0  0  0  0  0  0  0  0  0  0  0
  -84.1970   31.7412    0.8887 C   0  0  0  0  0  0  0  0  0  0  0  0
  -83.3508   30.9930    1.7037 C   0  0  0  0  0  0  0  0  0  0  0  0
  -83.5870   29.6356    1.9367 C   0  0  0  0  0  0  0  0  0  0  0  0
  -84.6711   29.0114    1.3577 C   0  0  0  0  0  0  0  0  0  0  0  0
  -85.4930   29.7697    0.5568 C   0  0  0  0  0  0  0  0  0  0  0  0
  -86.6106   29.4464   -0.1342 C   0  0  0  0  0  0  0  0  0  0  0  0
  -87.3310   28.2689   -0.3235 C   0  0  0  0  0  0  0  0  0  0  0  0
  -87.0860   26.9358    0.2326 C   0  0  0  0  0  0  0  0  0  0  0  0
  -88.1138   26.0780   -0.2645 N   0  0  0  0  0  0  0  0  0  0  0  0
  -88.9751   26.8628   -1.1154 C   0  0  0  0  0  0  0  0  0  0  0  0
  -89.9450   26.3166   -1.6632 O   0  0  0  0  0  0  0  0  0  0  0  0
  -88.4529   28.2125   -1.1229 C   0  0  0  0  0  0  0  0  0  0  0  0
  -88.8949   29.3714   -1.7720 C   0  0  0  0  0  0  0  0  0  0  0  0
  -89.9102   29.6867   -2.6179 C   0  0  0  0  0  0  0  0  0  0  0  0
  -90.9170   28.9299   -3.1694 C   0  0  0  0  0  0  0  0  0  0  0  0
  -91.8317   29.5271   -4.0466 C   0  0  0  0  0  0  0  0  0  0  0  0
  -91.7003   30.8536   -4.3351 C   0  0  0  0  0  0  0  0  0  0  0  0
  -90.6689   31.6126   -3.7658 C   0  0  0  0  0  0  0  0  0  0  0  0
  -89.7769   31.0390   -2.9108 C   0  0  0  0  0  0  0  0  0  0  0  0
  -88.7187   31.5760   -2.2744 N   0  0  0  0  0  0  0  0  0  0  0  0
  -88.1717   30.5337   -1.5735 C   0  0  0  0  0  0  0  0  0  0  0  0
  -87.0561   30.5682   -0.7754 C   0  0  0  0  0  0  0  0  0  0  0  0
  -87.4521   33.0533   -5.0979 H   0  0  0  0  0  0  0  0  0  0  0  0
  -88.2372   25.0376   -0.0532 H   0  0  0  0  0  0  0  0  0  0  0  0
  -87.1068   34.7402   -3.5347 C   0  0  0  0  0  0  0  0  0  0  0  0
  -86.7881   34.8229   -4.9116 O   0  0  0  0  0  0  0  0  0  0  0  0
  -86.8757   35.7886   -5.1953 H   0  0  0  0  0  0  0  0  0  0  0  0
  2  1  1  0  0  0
  2  3  1  0  0  0
  3  4  1  0  0  0
  4  5  1  0  0  0
  5  6  1  0  0  0
  6  7  1  0  0  0
  6 34  1  0  0  0
 34 35  1  0  0  0
  4  8  1  0  0  0
  8  9  1  0  0  0
  9 10  2  0  0  0
 10 11  1  0  0  0
 11 12  2  0  0  0
 12 13  1  0  0  0
 13 14  2  0  0  0
 14 15  1  0  0  0
 15 16  2  0  0  0
 16 17  1  0  0  0
 17 18  1  0  0  0
 18 19  1  0  0  0
 19 20  2  0  0  0
 19 21  1  0  0  0
 21 22  2  0  0  0
 22 23  1  0  0  0
 23 24  2  0  0  0
 24 25  1  0  0  0
 25 26  2  0  0  0
 26 27  1  0  0  0
 27 28  2  0  0  0
 28 29  1  0  0  0
 29 30  1  0  0  0
 30 31  2  0  0  0
  6  2  1  0  0  0
 31  8  1  0  0  0
 29  2  1  0  0  0
 14  9  1  0  0  0
 31 15  1  0  0  0
 21 16  1  0  0  0
 30 22  1  0  0  0
 28 23  1  0  0  0
  7 32  1  0  0  0
 35 36  1  0  0  0
 18 33  1  0  0  0
M  END
> <minimizedAffinity>
-10.97928

> <CNNscore>
0.1945397556

> <CNNaffinity>
5.8826060295

> <CNN_VS>
1.1444007158

> <CNNaffinity_variance>
0.6170107722

$$$$
[H]OC([H])([H])[C@@]1(O[H])C([H])([H])[C@@]2([H])O[C@]1(C([H])([H])[H])n1c3c([H])c([H])c([H])c([H])c3c3c4c(c5c6c([H])c([H])c([H])c([H])c6n2c5c31)C([H])([H])N([H])C4=O


 36 43  0  0  0  0  0  0  0  0999 V2000
  -87.4213   32.1866   -3.6941 C   0  0  0  0  0  0  0  0  0  0  0  0
  -88.4170   31.4062   -2.8411 C   0  0  0  0  0  0  0  0  0  0  0  0
  -88.8031   30.3910   -3.7670 O   0  0  0  0  0  0  0  0  0  0  0  0
  -90.0578   29.9763   -3.4934 C   0  0  0  0  0  0  0  0  0  0  0  0
  -90.7716   31.0516   -2.7207 C   0  0  0  0  0  0  0  0  0  0  0  0
  -89.6903   32.1108   -2.5962 C   0  0  0  0  0  0  0  0  0  0  0  0
  -89.8212   32.6330   -1.3116 O   0  0  0  0  0  0  0  0  0  0  0  0
  -89.9517   28.7972   -2.6323 N   0  0  0  0  0  0  0  0  0  0  0  0
  -90.6689   27.6903   -2.6502 C   0  0  0  0  0  0  0  0  0  0  0  0
  -91.7003   27.3027   -3.4748 C   0  0  0  0  0  0  0  0  0  0  0  0
  -92.2950   26.0593   -3.2738 C   0  0  0  0  0  0  0  0  0  0  0  0
  -91.8613   25.2079   -2.2542 C   0  0  0  0  0  0  0  0  0  0  0  0
  -90.8288   25.5899   -1.4246 C   0  0  0  0  0  0  0  0  0  0  0  0
  -90.2565   26.8217   -1.6416 C   0  0  0  0  0  0  0  0  0  0  0  0
  -89.2470   27.4605   -1.0062 C   0  0  0  0  0  0  0  0  0  0  0  0
  -88.4355   27.1545    0.0843 C   0  0  0  0  0  0  0  0  0  0  0  0
  -88.4183   25.9469    0.9137 C   0  0  0  0  0  0  0  0  0  0  0  0
  -87.3985   26.1273    1.8970 N   0  0  0  0  0  0  0  0  0  0  0  0
  -86.7997   27.4226    1.6842 C   0  0  0  0  0  0  0  0  0  0  0  0
  -85.8827   27.7953    2.4321 O   0  0  0  0  0  0  0  0  0  0  0  0
  -87.4725   28.0231    0.5523 C   0  0  0  0  0  0  0  0  0  0  0  0
  -87.2928   29.2583   -0.0815 C   0  0  0  0  0  0  0  0  0  0  0  0
  -86.4866   30.3370    0.0984 C   0  0  0  0  0  0  0  0  0  0  0  0
  -85.5089   30.6105    1.0258 C   0  0  0  0  0  0  0  0  0  0  0  0
  -84.8402   31.8409    0.9852 C   0  0  0  0  0  0  0  0  0  0  0  0
  -85.1775   32.7443    0.0207 C   0  0  0  0  0  0  0  0  0  0  0  0
  -86.1763   32.4519   -0.9180 C   0  0  0  0  0  0  0  0  0  0  0  0
  -86.8296   31.2570   -0.8855 C   0  0  0  0  0  0  0  0  0  0  0  0
  -87.8163   30.7876   -1.6725 N   0  0  0  0  0  0  0  0  0  0  0  0
  -88.1035   29.5482   -1.1640 C   0  0  0  0  0  0  0  0  0  0  0  0
  -89.0579   28.6706   -1.6129 C   0  0  0  0  0  0  0  0  0  0  0  0
  -89.7254   33.6228   -1.3979 H   0  0  0  0  0  0  0  0  0  0  0  0
  -87.1167   25.4354    2.6614 H   0  0  0  0  0  0  0  0  0  0  0  0
  -89.9903   33.1396   -3.6574 C   0  0  0  0  0  0  0  0  0  0  0  0
  -89.9774   34.3980   -3.0089 O   0  0  0  0  0  0  0  0  0  0  0  0
  -90.0341   35.1157   -3.7178 H   0  0  0  0  0  0  0  0  0  0  0  0
  2  1  1  0  0  0
  2  3  1  0  0  0
  3  4  1  0  0  0
  4  5  1  0  0  0
  5  6  1  0  0  0
  6  7  1  0  0  0
  6 34  1  0  0  0
 34 35  1  0  0  0
  4  8  1  0  0  0
  8  9  1  0  0  0
  9 10  2  0  0  0
 10 11  1  0  0  0
 11 12  2  0  0  0
 12 13  1  0  0  0
 13 14  2  0  0  0
 14 15  1  0  0  0
 15 16  2  0  0  0
 16 17  1  0  0  0
 17 18  1  0  0  0
 18 19  1  0  0  0
 19 20  2  0  0  0
 19 21  1  0  0  0
 21 22  2  0  0  0
 22 23  1  0  0  0
 23 24  2  0  0  0
 24 25  1  0  0  0
 25 26  2  0  0  0
 26 27  1  0  0  0
 27 28  2  0  0  0
 28 29  1  0  0  0
 29 30  1  0  0  0
 30 31  2  0  0  0
  6  2  1  0  0  0
 31  8  1  0  0  0
 29  2  1  0  0  0
 14  9  1  0  0  0
 31 15  1  0  0  0
 21 16  1  0  0  0
 30 22  1  0  0  0
 28 23  1  0  0  0
  7 32  1  0  0  0
 35 36  1  0  0  0
 18 33  1  0  0  0
M  END
> <minimizedAffinity>
-10.91535

> <CNNscore>
0.1933273673

> <CNNaffinity>
6.0577301979

> <CNN_VS>
1.1711250544

> <CNNaffinity_variance>
0.2050744593

$$$$
[H]C1=C([H])C([H])(F)C([H])([H])C([H])=C1N([H])C(=O)C1(C(=O)N([H])c2c([H])c([H])c(Oc3c([H])c([H])nc4c([H])c(OC([H])([H])C([H])([H])C([H])([H])N5C([H])([H])C([H])([H])C([H])([H])C([H])([H])C5([H])[H])c(OC([H])([H])[H])c([H])c34)c(F)c2[H])C([H])([H])C1([H])[H]


 48 53  0  0  0  0  0  0  0  0999 V2000
  -86.2291   28.8573    1.3835 C   0  0  0  0  0  0  0  0  0  0  0  0
  -87.3174   28.8875    0.5376 C   0  0  0  0  0  0  0  0  0  0  0  0
  -87.9074   27.6999    0.1027 C   0  0  0  0  0  0  0  0  0  0  0  0
  -87.4534   26.4746    0.4794 C   0  0  0  0  0  0  0  0  0  0  0  0
  -86.3597   26.4464    1.3292 C   0  0  0  0  0  0  0  0  0  0  0  0
  -85.7690   27.6131    1.7644 C   0  0  0  0  0  0  0  0  0  0  0  0
  -84.6727   27.5058    2.5832 F   0  0  0  0  0  0  0  0  0  0  0  0
  -87.9892   25.2296    0.0436 N   0  0  0  0  0  0  0  0  0  0  0  0
  -89.3475   24.9344    0.0671 C   0  0  0  0  0  0  0  0  0  0  0  0
  -90.1125   25.8906    0.4845 O   0  0  0  0  0  0  0  0  0  0  0  0
  -87.2472   24.5731   -0.3284 H   0  0  0  0  0  0  0  0  0  0  0  0
  -90.0661   23.6985   -0.3183 C   0  0  0  0  0  0  0  0  0  0  0  0
  -91.1688   23.8737   -1.3193 C   0  0  0  0  0  0  0  0  0  0  0  0
  -89.8607   23.3726   -1.7793 C   0  0  0  0  0  0  0  0  0  0  0  0
  -90.2975   22.5671    0.5935 C   0  0  0  0  0  0  0  0  0  0  0  0
  -91.2802   22.7785    1.4316 O   0  0  0  0  0  0  0  0  0  0  0  0
  -89.6289   21.3543    0.6804 N   0  0  0  0  0  0  0  0  0  0  0  0
  -88.8092   21.1401    0.0871 H   0  0  0  0  0  0  0  0  0  0  0  0
  -89.9951   20.3419    1.6311 C   0  0  0  0  0  0  0  0  0  0  0  0
  -90.9652   19.4837    1.3862 C   0  0  0  0  0  0  0  0  0  0  0  0
  -91.3542   18.4366    2.3558 C   0  0  0  0  0  0  0  0  0  0  0  0
  -90.5776   18.3586    3.6032 C   0  0  0  0  0  0  0  0  0  0  0  0
  -90.0292   17.0655    3.6969 F   0  0  0  0  0  0  0  0  0  0  0  0
  -89.5249   19.3614    3.7733 C   0  0  0  0  0  0  0  0  0  0  0  0
  -89.2567   20.2710    2.8697 C   0  0  0  0  0  0  0  0  0  0  0  0
  -85.6249   30.0215    1.8275 O   0  0  0  0  0  0  0  0  0  0  0  0
  -87.1607   32.8426   -0.7663 C   0  0  0  0  0  0  0  0  0  0  0  0
  -86.6512   31.9004    0.1007 C   0  0  0  0  0  0  0  0  0  0  0  0
  -85.2876   31.7241    0.2363 C   0  0  0  0  0  0  0  0  0  0  0  0
  -84.7433   30.7739    1.1122 C   0  0  0  0  0  0  0  0  0  0  0  0
  -83.3817   30.6166    1.2331 C   0  0  0  0  0  0  0  0  0  0  0  0
  -82.5313   31.4063    0.4788 C   0  0  0  0  0  0  0  0  0  0  0  0
  -83.0567   32.3148   -0.3593 N   0  0  0  0  0  0  0  0  0  0  0  0
  -84.3913   32.4795   -0.4862 C   0  0  0  0  0  0  0  0  0  0  0  0
  -84.9192   33.4262   -1.3574 C   0  0  0  0  0  0  0  0  0  0  0  0
  -86.2895   33.6136   -1.5032 C   0  0  0  0  0  0  0  0  0  0  0  0
  -89.4306   31.9521   -0.6756 C   0  0  0  0  0  0  0  0  0  0  0  0
  -88.5314   33.0254   -0.9071 O   0  0  0  0  0  0  0  0  0  0  0  0
  -86.8210   34.5557   -2.3712 O   0  0  0  0  0  0  0  0  0  0  0  0
  -86.9840   34.1677   -3.7287 C   0  0  0  0  0  0  0  0  0  0  0  0
  -87.3279   35.4047   -4.5452 C   0  0  0  0  0  0  0  0  0  0  0  0
  -88.4455   35.0593   -5.4748 C   0  0  0  0  0  0  0  0  0  0  0  0
  -89.5081   34.4123   -4.7692 N   0  0  0  0  0  0  0  0  0  0  0  0
  -90.3947   35.4134   -4.1713 C   0  0  0  0  0  0  0  0  0  0  0  0
  -91.7006   35.5030   -4.8910 C   0  0  0  0  0  0  0  0  0  0  0  0
  -91.5842   35.3923   -6.3964 C   0  0  0  0  0  0  0  0  0  0  0  0
  -90.7949   34.2035   -6.8323 C   0  0  0  0  0  0  0  0  0  0  0  0
  -90.2609   33.5088   -5.6093 C   0  0  0  0  0  0  0  0  0  0  0  0
 37 38  1  0  0  0
 38 27  1  0  0  0
 27 28  2  0  0  0
 28 29  1  0  0  0
 29 30  2  0  0  0
 30 26  1  0  0  0
 26  1  1  0  0  0
  1  2  2  0  0  0
  2  3  1  0  0  0
  3  4  2  0  0  0
  4  8  1  0  0  0
  8  9  1  0  0  0
  9 10  2  0  0  0
  9 12  1  0  0  0
 12 13  1  0  0  0
 13 14  1  0  0  0
 12 15  1  0  0  0
 15 16  2  0  0  0
 15 17  1  0  0  0
 17 19  1  0  0  0
 19 20  2  0  0  0
 20 21  1  0  0  0
 21 22  1  0  0  0
 22 23  1  0  0  0
 22 24  1  0  0  0
 24 25  2  0  0  0
  4  5  1  0  0  0
  5  6  2  0  0  0
  6  7  1  0  0  0
 30 31  1  0  0  0
 31 32  2  0  0  0
 32 33  1  0  0  0
 33 34  2  0  0  0
 34 35  1  0  0  0
 35 36  2  0  0  0
 36 39  1  0  0  0
 39 40  1  0  0  0
 40 41  1  0  0  0
 41 42  1  0  0  0
 42 43  1  0  0  0
 43 44  1  0  0  0
 44 45  1  0  0  0
 45 46  1  0  0  0
 46 47  1  0  0  0
 47 48  1  0  0  0
 36 27  1  0  0  0
 48 43  1  0  0  0
 34 29  1  0  0  0
  6  1  1  0  0  0
 14 12  1  0  0  0
 25 19  1  0  0  0
  8 11  1  0  0  0
 17 18  1  0  0  0
M  END
> <minimizedAffinity>
-9.55087

> <CNNscore>
0.7003557682

> <CNNaffinity>
7.6816511154

> <CNN_VS>
5.3798885345

> <CNNaffinity_variance>
0.0812298059

$$$$
[H]C1=C([H])C([H])(F)C([H])([H])C([H])=C1N([H])C(=O)C1(C(=O)N([H])c2c([H])c([H])c(Oc3c([H])c([H])nc4c([H])c(OC([H])([H])C([H])([H])C([H])([H])N5C([H])([H])C([H])([H])C([H])([H])C([H])([H])C5([H])[H])c(OC([H])([H])[H])c([H])c34)c(F)c2[H])C([H])([H])C1([H])[H]


 48 53  0  0  0  0  0  0  0  0999 V2000
  -86.3081   28.8212    1.3603 C   0  0  0  0  0  0  0  0  0  0  0  0
  -87.4095   28.8649    0.5322 C   0  0  0  0  0  0  0  0  0  0  0  0
  -87.9724   27.6856    0.0424 C   0  0  0  0  0  0  0  0  0  0  0  0
  -87.4783   26.4556    0.3464 C   0  0  0  0  0  0  0  0  0  0  0  0
  -86.3714   26.4138    1.1784 C   0  0  0  0  0  0  0  0  0  0  0  0
  -85.8073   27.5723    1.6676 C   0  0  0  0  0  0  0  0  0  0  0  0
  -84.6961   27.4534    2.4644 F   0  0  0  0  0  0  0  0  0  0  0  0
  -87.9854   25.2206   -0.1482 N   0  0  0  0  0  0  0  0  0  0  0  0
  -89.3061   24.8188    0.0153 C   0  0  0  0  0  0  0  0  0  0  0  0
  -90.0691   25.6669    0.6256 O   0  0  0  0  0  0  0  0  0  0  0  0
  -87.2587   24.6636   -0.6789 H   0  0  0  0  0  0  0  0  0  0  0  0
  -89.9878   23.5736   -0.4055 C   0  0  0  0  0  0  0  0  0  0  0  0
  -91.2774   23.7582   -1.1482 C   0  0  0  0  0  0  0  0  0  0  0  0
  -90.0514   23.4601   -1.9109 C   0  0  0  0  0  0  0  0  0  0  0  0
  -89.9444   22.3171    0.3589 C   0  0  0  0  0  0  0  0  0  0  0  0
  -89.0250   21.4898   -0.0690 O   0  0  0  0  0  0  0  0  0  0  0  0
  -90.7274   21.9092    1.4294 N   0  0  0  0  0  0  0  0  0  0  0  0
  -91.5073   22.4877    1.7858 H   0  0  0  0  0  0  0  0  0  0  0  0
  -90.5428   20.6404    2.0765 C   0  0  0  0  0  0  0  0  0  0  0  0
  -89.8233   20.5241    3.1749 C   0  0  0  0  0  0  0  0  0  0  0  0
  -89.6233   19.2242    3.8518 C   0  0  0  0  0  0  0  0  0  0  0  0
  -90.3036   18.0560    3.2706 C   0  0  0  0  0  0  0  0  0  0  0  0
  -91.1338   17.4962    4.2601 F   0  0  0  0  0  0  0  0  0  0  0  0
  -91.0744   18.2977    2.0498 C   0  0  0  0  0  0  0  0  0  0  0  0
  -91.1850   19.4822    1.5016 C   0  0  0  0  0  0  0  0  0  0  0  0
  -85.7302   29.9771    1.8579 O   0  0  0  0  0  0  0  0  0  0  0  0
  -87.1744   32.8014   -0.7846 C   0  0  0  0  0  0  0  0  0  0  0  0
  -86.6955   31.8580    0.0984 C   0  0  0  0  0  0  0  0  0  0  0  0
  -85.3383   31.7030    0.3049 C   0  0  0  0  0  0  0  0  0  0  0  0
  -84.8250   30.7522    1.1987 C   0  0  0  0  0  0  0  0  0  0  0  0
  -83.4692   30.6164    1.3905 C   0  0  0  0  0  0  0  0  0  0  0  0
  -82.5937   31.4287    0.6910 C   0  0  0  0  0  0  0  0  0  0  0  0
  -83.0894   32.3377   -0.1644 N   0  0  0  0  0  0  0  0  0  0  0  0
  -84.4180   32.4816   -0.3608 C   0  0  0  0  0  0  0  0  0  0  0  0
  -84.9150   33.4291   -1.2490 C   0  0  0  0  0  0  0  0  0  0  0  0
  -86.2787   33.5952   -1.4658 C   0  0  0  0  0  0  0  0  0  0  0  0
  -89.4325   31.8771   -0.8056 C   0  0  0  0  0  0  0  0  0  0  0  0
  -88.5386   32.9627   -0.9965 O   0  0  0  0  0  0  0  0  0  0  0  0
  -86.7795   34.5380   -2.3511 O   0  0  0  0  0  0  0  0  0  0  0  0
  -86.9838   34.1219   -3.6946 C   0  0  0  0  0  0  0  0  0  0  0  0
  -87.8628   35.1514   -4.3893 C   0  0  0  0  0  0  0  0  0  0  0  0
  -87.0157   36.3295   -4.7460 C   0  0  0  0  0  0  0  0  0  0  0  0
  -87.8199   37.3908   -5.2677 N   0  0  0  0  0  0  0  0  0  0  0  0
  -89.0835   37.4705   -4.5311 C   0  0  0  0  0  0  0  0  0  0  0  0
  -89.1271   38.6572   -3.6250 C   0  0  0  0  0  0  0  0  0  0  0  0
  -87.8176   38.9452   -2.9220 C   0  0  0  0  0  0  0  0  0  0  0  0
  -86.6574   39.0087   -3.8582 C   0  0  0  0  0  0  0  0  0  0  0  0
  -87.1391   38.6655   -5.2415 C   0  0  0  0  0  0  0  0  0  0  0  0
 37 38  1  0  0  0
 38 27  1  0  0  0
 27 28  2  0  0  0
 28 29  1  0  0  0
 29 30  2  0  0  0
 30 26  1  0  0  0
 26  1  1  0  0  0
  1  2  2  0  0  0
  2  3  1  0  0  0
  3  4  2  0  0  0
  4  8  1  0  0  0
  8  9  1  0  0  0
  9 10  2  0  0  0
  9 12  1  0  0  0
 12 13  1  0  0  0
 13 14  1  0  0  0
 12 15  1  0  0  0
 15 16  2  0  0  0
 15 17  1  0  0  0
 17 19  1  0  0  0
 19 20  2  0  0  0
 20 21  1  0  0  0
 21 22  1  0  0  0
 22 23  1  0  0  0
 22 24  1  0  0  0
 24 25  2  0  0  0
  4  5  1  0  0  0
  5  6  2  0  0  0
  6  7  1  0  0  0
 30 31  1  0  0  0
 31 32  2  0  0  0
 32 33  1  0  0  0
 33 34  2  0  0  0
 34 35  1  0  0  0
 35 36  2  0  0  0
 36 39  1  0  0  0
 39 40  1  0  0  0
 40 41  1  0  0  0
 41 42  1  0  0  0
 42 43  1  0  0  0
 43 44  1  0  0  0
 44 45  1  0  0  0
 45 46  1  0  0  0
 46 47  1  0  0  0
 47 48  1  0  0  0
 36 27  1  0  0  0
 48 43  1  0  0  0
 34 29  1  0  0  0
  6  1  1  0  0  0
 14 12  1  0  0  0
 25 19  1  0  0  0
  8 11  1  0  0  0
 17 18  1  0  0  0
M  END
> <minimizedAffinity>
-9.70065

> <CNNscore>
0.6976961493

> <CNNaffinity>
7.7030715942

> <CNN_VS>
5.3744034767

> <CNNaffinity_variance>
0.0402162671

$$$$
[H]C1=C([H])C([H])(F)C([H])([H])C([H])=C1N([H])C(=O)C1(C(=O)N([H])c2c([H])c([H])c(Oc3c([H])c([H])nc4c([H])c(OC([H])([H])C([H])([H])C([H])([H])N5C([H])([H])C([H])([H])C([H])([H])C([H])([H])C5([H])[H])c(OC([H])([H])[H])c([H])c34)c(F)c2[H])C([H])([H])C1([H])[H]


 48 53  0  0  0  0  0  0  0  0999 V2000
  -88.9342   29.5874   -1.4966 C   0  0  0  0  0  0  0  0  0  0  0  0
  -89.9485   29.9708   -0.6451 C   0  0  0  0  0  0  0  0  0  0  0  0
  -90.4657   29.0711    0.2878 C   0  0  0  0  0  0  0  0  0  0  0  0
  -90.0099   27.7954    0.4074 C   0  0  0  0  0  0  0  0  0  0  0  0
  -88.9908   27.4121   -0.4492 C   0  0  0  0  0  0  0  0  0  0  0  0
  -88.4729   28.2923   -1.3746 C   0  0  0  0  0  0  0  0  0  0  0  0
  -87.4834   27.8329   -2.2075 F   0  0  0  0  0  0  0  0  0  0  0  0
  -90.5186   26.8220    1.3133 N   0  0  0  0  0  0  0  0  0  0  0  0
  -89.8778   26.4739    2.4968 C   0  0  0  0  0  0  0  0  0  0  0  0
  -88.7883   27.1255    2.7464 O   0  0  0  0  0  0  0  0  0  0  0  0
  -91.4480   26.4218    1.0036 H   0  0  0  0  0  0  0  0  0  0  0  0
  -90.2464   25.4781    3.5288 C   0  0  0  0  0  0  0  0  0  0  0  0
  -89.5316   25.6073    4.8407 C   0  0  0  0  0  0  0  0  0  0  0  0
  -90.9032   26.1346    4.7206 C   0  0  0  0  0  0  0  0  0  0  0  0
  -90.6396   24.0926    3.2272 C   0  0  0  0  0  0  0  0  0  0  0  0
  -91.7103   23.7122    3.8765 O   0  0  0  0  0  0  0  0  0  0  0  0
  -90.0402   23.1707    2.3809 N   0  0  0  0  0  0  0  0  0  0  0  0
  -89.1620   23.3835    1.8775 H   0  0  0  0  0  0  0  0  0  0  0  0
  -90.5668   21.8484    2.1892 C   0  0  0  0  0  0  0  0  0  0  0  0
  -91.3354   21.5541    1.1595 C   0  0  0  0  0  0  0  0  0  0  0  0
  -91.8859   20.1974    0.9495 C   0  0  0  0  0  0  0  0  0  0  0  0
  -91.5021   19.1620    1.9223 C   0  0  0  0  0  0  0  0  0  0  0  0
  -90.8816   18.1112    1.2207 F   0  0  0  0  0  0  0  0  0  0  0  0
  -90.6472   19.5984    3.0275 C   0  0  0  0  0  0  0  0  0  0  0  0
  -90.2175   20.8296    3.1508 C   0  0  0  0  0  0  0  0  0  0  0  0
  -88.4054   30.4608   -2.4321 O   0  0  0  0  0  0  0  0  0  0  0  0
  -88.7130   33.6958   -4.9788 C   0  0  0  0  0  0  0  0  0  0  0  0
  -88.6128   32.6144   -4.1304 C   0  0  0  0  0  0  0  0  0  0  0  0
  -87.7832   32.6526   -3.0263 C   0  0  0  0  0  0  0  0  0  0  0  0
  -87.6643   31.5672   -2.1466 C   0  0  0  0  0  0  0  0  0  0  0  0
  -86.8333   31.6278   -1.0515 C   0  0  0  0  0  0  0  0  0  0  0  0
  -86.0999   32.7766   -0.8110 C   0  0  0  0  0  0  0  0  0  0  0  0
  -86.2163   33.8138   -1.6563 N   0  0  0  0  0  0  0  0  0  0  0  0
  -87.0292   33.7671   -2.7340 C   0  0  0  0  0  0  0  0  0  0  0  0
  -87.1397   34.8507   -3.5986 C   0  0  0  0  0  0  0  0  0  0  0  0
  -87.9710   34.8250   -4.7132 C   0  0  0  0  0  0  0  0  0  0  0  0
  -90.9568   33.6837   -5.9374 C   0  0  0  0  0  0  0  0  0  0  0  0
  -89.5461   33.6639   -6.0910 O   0  0  0  0  0  0  0  0  0  0  0  0
  -88.0841   35.9025   -5.5790 O   0  0  0  0  0  0  0  0  0  0  0  0
  -87.0542   36.8809   -5.5347 C   0  0  0  0  0  0  0  0  0  0  0  0
  -86.9065   37.4879   -6.9221 C   0  0  0  0  0  0  0  0  0  0  0  0
  -88.2491   37.9643   -7.3728 C   0  0  0  0  0  0  0  0  0  0  0  0
  -88.1989   39.3463   -7.7373 N   0  0  0  0  0  0  0  0  0  0  0  0
  -86.8466   39.7000   -8.1753 C   0  0  0  0  0  0  0  0  0  0  0  0
  -86.7738   39.9021   -9.6535 C   0  0  0  0  0  0  0  0  0  0  0  0
  -87.5981   38.9151  -10.4524 C   0  0  0  0  0  0  0  0  0  0  0  0
  -89.0095   38.8186   -9.9779 C   0  0  0  0  0  0  0  0  0  0  0  0
  -89.1647   39.6851   -8.7578 C   0  0  0  0  0  0  0  0  0  0  0  0
 37 38  1  0  0  0
 38 27  1  0  0  0
 27 28  2  0  0  0
 28 29  1  0  0  0
 29 30  2  0  0  0
 30 26  1  0  0  0
 26  1  1  0  0  0
  1  2  2  0  0  0
  2  3  1  0  0  0
  3  4  2  0  0  0
  4  8  1  0  0  0
  8  9  1  0  0  0
  9 10  2  0  0  0
  9 12  1  0  0  0
 12 13  1  0  0  0
 13 14  1  0  0  0
 12 15  1  0  0  0
 15 16  2  0  0  0
 15 17  1  0  0  0
 17 19  1  0  0  0
 19 20  2  0  0  0
 20 21  1  0  0  0
 21 22  1  0  0  0
 22 23  1  0  0  0
 22 24  1  0  0  0
 24 25  2  0  0  0
  4  5  1  0  0  0
  5  6  2  0  0  0
  6  7  1  0  0  0
 30 31  1  0  0  0
 31 32  2  0  0  0
 32 33  1  0  0  0
 33 34  2  0  0  0
 34 35  1  0  0  0
 35 36  2  0  0  0
 36 39  1  0  0  0
 39 40  1  0  0  0
 40 41  1  0  0  0
 41 42  1  0  0  0
 42 43  1  0  0  0
 43 44  1  0  0  0
 44 45  1  0  0  0
 45 46  1  0  0  0
 46 47  1  0  0  0
 47 48  1  0  0  0
 36 27  1  0  0  0
 48 43  1  0  0  0
 34 29  1  0  0  0
  6  1  1  0  0  0
 14 12  1  0  0  0
 25 19  1  0  0  0
  8 11  1  0  0  0
 17 18  1  0  0  0
M  END
> <minimizedAffinity>
-8.49078

> <CNNscore>
0.1276341230

> <CNNaffinity>
6.5466980934

> <CNN_VS>
0.8355820775

> <CNNaffinity_variance>
0.1737403870

$$$$
[H]C1=C([H])C([H])(F)C([H])([H])C([H])=C1N([H])C(=O)C1(C(=O)N([H])c2c([H])c([H])c(Oc3c([H])c([H])nc4c([H])c(OC([H])([H])C([H])([H])C([H])([H])N5C([H])([H])C([H])([H])C([H])([H])C([H])([H])C5([H])[H])c(OC([H])([H])[H])c([H])c34)c(F)c2[H])C([H])([H])C1([H])[H]


 48 53  0  0  0  0  0  0  0  0999 V2000
  -88.9085   29.6692   -1.4032 C   0  0  0  0  0  0  0  0  0  0  0  0
  -89.8935   30.0292   -0.5082 C   0  0  0  0  0  0  0  0  0  0  0  0
  -90.3984   29.0970    0.3993 C   0  0  0  0  0  0  0  0  0  0  0  0
  -89.9585   27.8112    0.4511 C   0  0  0  0  0  0  0  0  0  0  0  0
  -88.9690   27.4514   -0.4492 C   0  0  0  0  0  0  0  0  0  0  0  0
  -88.4635   28.3639   -1.3500 C   0  0  0  0  0  0  0  0  0  0  0  0
  -87.5039   27.9275   -2.2290 F   0  0  0  0  0  0  0  0  0  0  0  0
  -90.4569   26.8064    1.3281 N   0  0  0  0  0  0  0  0  0  0  0  0
  -89.8036   26.4189    2.4925 C   0  0  0  0  0  0  0  0  0  0  0  0
  -88.7125   27.0632    2.7533 O   0  0  0  0  0  0  0  0  0  0  0  0
  -91.3889   26.4156    1.0143 H   0  0  0  0  0  0  0  0  0  0  0  0
  -90.1605   25.3876    3.4933 C   0  0  0  0  0  0  0  0  0  0  0  0
  -89.3812   25.4281    4.7738 C   0  0  0  0  0  0  0  0  0  0  0  0
  -90.7365   26.0080    4.7447 C   0  0  0  0  0  0  0  0  0  0  0  0
  -90.6182   24.0329    3.1464 C   0  0  0  0  0  0  0  0  0  0  0  0
  -91.8020   23.7538    3.6299 O   0  0  0  0  0  0  0  0  0  0  0  0
  -89.9780   23.0485    2.4072 N   0  0  0  0  0  0  0  0  0  0  0  0
  -89.0198   23.1791    2.0403 H   0  0  0  0  0  0  0  0  0  0  0  0
  -90.5784   21.7697    2.1485 C   0  0  0  0  0  0  0  0  0  0  0  0
  -91.3251   21.5608    1.0825 C   0  0  0  0  0  0  0  0  0  0  0  0
  -91.9507   20.2499    0.8034 C   0  0  0  0  0  0  0  0  0  0  0  0
  -91.6685   19.1591    1.7500 C   0  0  0  0  0  0  0  0  0  0  0  0
  -91.0889   18.0960    1.0321 F   0  0  0  0  0  0  0  0  0  0  0  0
  -90.8297   19.5016    2.8997 C   0  0  0  0  0  0  0  0  0  0  0  0
  -90.3291   20.6981    3.0834 C   0  0  0  0  0  0  0  0  0  0  0  0
  -88.3925   30.5751   -2.3147 O   0  0  0  0  0  0  0  0  0  0  0  0
  -88.7353   33.9423   -4.6789 C   0  0  0  0  0  0  0  0  0  0  0  0
  -88.6235   32.8170   -3.8914 C   0  0  0  0  0  0  0  0  0  0  0  0
  -87.7502   32.7830   -2.8214 C   0  0  0  0  0  0  0  0  0  0  0  0
  -87.6184   31.6516   -2.0036 C   0  0  0  0  0  0  0  0  0  0  0  0
  -86.7436   31.6404   -0.9415 C   0  0  0  0  0  0  0  0  0  0  0  0
  -85.9781   32.7618   -0.6728 C   0  0  0  0  0  0  0  0  0  0  0  0
  -86.1070   33.8432   -1.4589 N   0  0  0  0  0  0  0  0  0  0  0  0
  -86.9627   33.8670   -2.5037 C   0  0  0  0  0  0  0  0  0  0  0  0
  -87.0855   34.9956   -3.3068 C   0  0  0  0  0  0  0  0  0  0  0  0
  -87.9607   35.0427   -4.3866 C   0  0  0  0  0  0  0  0  0  0  0  0
  -90.8704   33.3297   -5.6888 C   0  0  0  0  0  0  0  0  0  0  0  0
  -89.6124   33.9831   -5.7565 O   0  0  0  0  0  0  0  0  0  0  0  0
  -88.0863   36.1653   -5.1911 O   0  0  0  0  0  0  0  0  0  0  0  0
  -87.4165   37.3451   -4.7673 C   0  0  0  0  0  0  0  0  0  0  0  0
  -88.4586   38.4218   -4.5027 C   0  0  0  0  0  0  0  0  0  0  0  0
  -89.6944   38.0793   -5.2694 C   0  0  0  0  0  0  0  0  0  0  0  0
  -90.7794   37.7996   -4.3806 N   0  0  0  0  0  0  0  0  0  0  0  0
  -91.3591   39.0515   -3.8884 C   0  0  0  0  0  0  0  0  0  0  0  0
  -92.6918   39.3290   -4.5033 C   0  0  0  0  0  0  0  0  0  0  0  0
  -92.7782   38.9772   -5.9732 C   0  0  0  0  0  0  0  0  0  0  0  0
  -92.3136   37.5900   -6.2669 C   0  0  0  0  0  0  0  0  0  0  0  0
  -91.7987   36.9778   -4.9928 C   0  0  0  0  0  0  0  0  0  0  0  0
 37 38  1  0  0  0
 38 27  1  0  0  0
 27 28  2  0  0  0
 28 29  1  0  0  0
 29 30  2  0  0  0
 30 26  1  0  0  0
 26  1  1  0  0  0
  1  2  2  0  0  0
  2  3  1  0  0  0
  3  4  2  0  0  0
  4  8  1  0  0  0
  8  9  1  0  0  0
  9 10  2  0  0  0
  9 12  1  0  0  0
 12 13  1  0  0  0
 13 14  1  0  0  0
 12 15  1  0  0  0
 15 16  2  0  0  0
 15 17  1  0  0  0
 17 19  1  0  0  0
 19 20  2  0  0  0
 20 21  1  0  0  0
 21 22  1  0  0  0
 22 23  1  0  0  0
 22 24  1  0  0  0
 24 25  2  0  0  0
  4  5  1  0  0  0
  5  6  2  0  0  0
  6  7  1  0  0  0
 30 31  1  0  0  0
 31 32  2  0  0  0
 32 33  1  0  0  0
 33 34  2  0  0  0
 34 35  1  0  0  0
 35 36  2  0  0  0
 36 39  1  0  0  0
 39 40  1  0  0  0
 40 41  1  0  0  0
 41 42  1  0  0  0
 42 43  1  0  0  0
 43 44  1  0  0  0
 44 45  1  0  0  0
 45 46  1  0  0  0
 46 47  1  0  0  0
 47 48  1  0  0  0
 36 27  1  0  0  0
 48 43  1  0  0  0
 34 29  1  0  0  0
  6  1  1  0  0  0
 14 12  1  0  0  0
 25 19  1  0  0  0
  8 11  1  0  0  0
 17 18  1  0  0  0
M  END
> <minimizedAffinity>
-8.00133

> <CNNscore>
0.1254260242

> <CNNaffinity>
6.6816544533

> <CNN_VS>
0.8380533457

> <CNNaffinity_variance>
0.2410529405

$$$$
[H]C1=C([H])C([H])(F)C([H])([H])C([H])=C1N([H])C(=O)C1(C(=O)N([H])c2c([H])c([H])c(Oc3c([H])c([H])nc4c([H])c(OC([H])([H])C([H])([H])C([H])([H])N5C([H])([H])C([H])([H])C([H])([H])C([H])([H])C5([H])[H])c(OC([H])([H])[H])c([H])c34)c(F)c2[H])C([H])([H])C1([H])[H]


 48 53  0  0  0  0  0  0  0  0999 V2000
  -86.5727   32.9813   -0.7914 C   0  0  0  0  0  0  0  0  0  0  0  0
  -87.9015   32.9601   -1.1584 C   0  0  0  0  0  0  0  0  0  0  0  0
  -88.2870   33.3569   -2.4396 C   0  0  0  0  0  0  0  0  0  0  0  0
  -87.3955   33.7772   -3.3765 C   0  0  0  0  0  0  0  0  0  0  0  0
  -86.0609   33.7980   -3.0058 C   0  0  0  0  0  0  0  0  0  0  0  0
  -85.6691   33.4087   -1.7430 C   0  0  0  0  0  0  0  0  0  0  0  0
  -84.3326   33.4818   -1.4392 F   0  0  0  0  0  0  0  0  0  0  0  0
  -87.7290   34.2264   -4.6858 N   0  0  0  0  0  0  0  0  0  0  0  0
  -88.1679   35.5166   -4.9600 C   0  0  0  0  0  0  0  0  0  0  0  0
  -88.2228   36.3092   -3.9390 O   0  0  0  0  0  0  0  0  0  0  0  0
  -87.5741   33.4844   -5.4243 H   0  0  0  0  0  0  0  0  0  0  0  0
  -88.5774   36.1374   -6.2404 C   0  0  0  0  0  0  0  0  0  0  0  0
  -88.3431   37.6144   -6.3503 C   0  0  0  0  0  0  0  0  0  0  0  0
  -87.3888   36.6912   -6.9911 C   0  0  0  0  0  0  0  0  0  0  0  0
  -89.7221   35.6798   -7.0438 C   0  0  0  0  0  0  0  0  0  0  0  0
  -90.4633   36.6641   -7.4849 O   0  0  0  0  0  0  0  0  0  0  0  0
  -90.1061   34.3882   -7.3751 N   0  0  0  0  0  0  0  0  0  0  0  0
  -89.5995   33.5604   -7.0175 H   0  0  0  0  0  0  0  0  0  0  0  0
  -91.2574   34.1142   -8.1887 C   0  0  0  0  0  0  0  0  0  0  0  0
  -91.1948   34.1423   -9.5052 C   0  0  0  0  0  0  0  0  0  0  0  0
  -92.3720   33.8634  -10.3561 C   0  0  0  0  0  0  0  0  0  0  0  0
  -93.6233   33.5046   -9.6698 C   0  0  0  0  0  0  0  0  0  0  0  0
  -94.0320   32.2413  -10.1375 F   0  0  0  0  0  0  0  0  0  0  0  0
  -93.5816   33.5061   -8.2065 C   0  0  0  0  0  0  0  0  0  0  0  0
  -92.4974   33.7851   -7.5264 C   0  0  0  0  0  0  0  0  0  0  0  0
  -86.1650   32.5944    0.4742 O   0  0  0  0  0  0  0  0  0  0  0  0
  -88.1743   29.0020    0.1535 C   0  0  0  0  0  0  0  0  0  0  0  0
  -87.5063   30.2027    0.2592 C   0  0  0  0  0  0  0  0  0  0  0  0
  -86.1828   30.2466    0.6531 C   0  0  0  0  0  0  0  0  0  0  0  0
  -85.4797   31.4545    0.7670 C   0  0  0  0  0  0  0  0  0  0  0  0
  -84.1609   31.4748    1.1592 C   0  0  0  0  0  0  0  0  0  0  0  0
  -83.5138   30.2859    1.4481 C   0  0  0  0  0  0  0  0  0  0  0  0
  -84.1910   29.1313    1.3383 N   0  0  0  0  0  0  0  0  0  0  0  0
  -85.4853   29.0979    0.9534 C   0  0  0  0  0  0  0  0  0  0  0  0
  -86.1717   27.8935    0.8429 C   0  0  0  0  0  0  0  0  0  0  0  0
  -87.5038   27.8356    0.4474 C   0  0  0  0  0  0  0  0  0  0  0  0
  -89.9732   29.7616   -1.3095 C   0  0  0  0  0  0  0  0  0  0  0  0
  -89.5056   28.9508   -0.2428 O   0  0  0  0  0  0  0  0  0  0  0  0
  -88.1930   26.6373    0.3365 O   0  0  0  0  0  0  0  0  0  0  0  0
  -88.5983   26.0080    1.5446 C   0  0  0  0  0  0  0  0  0  0  0  0
  -90.1186   25.9528    1.5725 C   0  0  0  0  0  0  0  0  0  0  0  0
  -90.5917   25.3603    0.2850 C   0  0  0  0  0  0  0  0  0  0  0  0
  -90.8386   23.9594    0.4338 N   0  0  0  0  0  0  0  0  0  0  0  0
  -92.2217   23.6524    0.0618 C   0  0  0  0  0  0  0  0  0  0  0  0
  -92.3020   22.9406   -1.2490 C   0  0  0  0  0  0  0  0  0  0  0  0
  -91.3305   23.4541   -2.2903 C   0  0  0  0  0  0  0  0  0  0  0  0
  -89.9272   23.5293   -1.7888 C   0  0  0  0  0  0  0  0  0  0  0  0
  -89.9183   23.1506   -0.3328 C   0  0  0  0  0  0  0  0  0  0  0  0
 37 38  1  0  0  0
 38 27  1  0  0  0
 27 28  2  0  0  0
 28 29  1  0  0  0
 29 30  2  0  0  0
 30 26  1  0  0  0
 26  1  1  0  0  0
  1  2  2  0  0  0
  2  3  1  0  0  0
  3  4  2  0  0  0
  4  8  1  0  0  0
  8  9  1  0  0  0
  9 10  2  0  0  0
  9 12  1  0  0  0
 12 13  1  0  0  0
 13 14  1  0  0  0
 12 15  1  0  0  0
 15 16  2  0  0  0
 15 17  1  0  0  0
 17 19  1  0  0  0
 19 20  2  0  0  0
 20 21  1  0  0  0
 21 22  1  0  0  0
 22 23  1  0  0  0
 22 24  1  0  0  0
 24 25  2  0  0  0
  4  5  1  0  0  0
  5  6  2  0  0  0
  6  7  1  0  0  0
 30 31  1  0  0  0
 31 32  2  0  0  0
 32 33  1  0  0  0
 33 34  2  0  0  0
 34 35  1  0  0  0
 35 36  2  0  0  0
 36 39  1  0  0  0
 39 40  1  0  0  0
 40 41  1  0  0  0
 41 42  1  0  0  0
 42 43  1  0  0  0
 43 44  1  0  0  0
 44 45  1  0  0  0
 45 46  1  0  0  0
 46 47  1  0  0  0
 47 48  1  0  0  0
 36 27  1  0  0  0
 48 43  1  0  0  0
 34 29  1  0  0  0
  6  1  1  0  0  0
 14 12  1  0  0  0
 25 19  1  0  0  0
  8 11  1  0  0  0
 17 18  1  0  0  0
M  END
> <minimizedAffinity>
-8.42594

> <CNNscore>
0.1104338691

> <CNNaffinity>
6.7716584206

> <CNN_VS>
0.7478204370

> <CNNaffinity_variance>
0.3078658283

$$$$
[H]C1=C([H])C([H])(F)C([H])([H])C([H])=C1N([H])C(=O)C1(C(=O)N([H])c2c([H])c([H])c(Oc3c([H])c([H])nc4c([H])c(OC([H])([H])C([H])([H])C([H])([H])N5C([H])([H])C([H])([H])C([H])([H])C([H])([H])C5([H])[H])c(OC([H])([H])[H])c([H])c34)c(F)c2[H])C([H])([H])C1([H])[H]


 48 53  0  0  0  0  0  0  0  0999 V2000
  -86.4907   32.0627   -1.2728 C   0  0  0  0  0  0  0  0  0  0  0  0
  -87.7909   31.6374   -1.4443 C   0  0  0  0  0  0  0  0  0  0  0  0
  -88.7515   32.4984   -1.9767 C   0  0  0  0  0  0  0  0  0  0  0  0
  -88.4668   33.7754   -2.3476 C   0  0  0  0  0  0  0  0  0  0  0  0
  -87.1599   34.2010   -2.1742 C   0  0  0  0  0  0  0  0  0  0  0  0
  -86.2033   33.3592   -1.6490 C   0  0  0  0  0  0  0  0  0  0  0  0
  -84.9362   33.8596   -1.4815 F   0  0  0  0  0  0  0  0  0  0  0  0
  -89.4080   34.7111   -2.8632 N   0  0  0  0  0  0  0  0  0  0  0  0
  -89.5751   34.9540   -4.2217 C   0  0  0  0  0  0  0  0  0  0  0  0
  -88.8336   34.2396   -5.0050 O   0  0  0  0  0  0  0  0  0  0  0  0
  -89.9841   35.1716   -2.1043 H   0  0  0  0  0  0  0  0  0  0  0  0
  -90.4755   35.8977   -4.9225 C   0  0  0  0  0  0  0  0  0  0  0  0
  -91.4958   36.5819   -4.0626 C   0  0  0  0  0  0  0  0  0  0  0  0
  -90.2738   37.3153   -4.4402 C   0  0  0  0  0  0  0  0  0  0  0  0
  -90.9261   35.7215   -6.3121 C   0  0  0  0  0  0  0  0  0  0  0  0
  -92.2294   35.7259   -6.4315 O   0  0  0  0  0  0  0  0  0  0  0  0
  -90.1759   35.5507   -7.4669 N   0  0  0  0  0  0  0  0  0  0  0  0
  -89.1441   35.4833   -7.4415 H   0  0  0  0  0  0  0  0  0  0  0  0
  -90.7811   35.4037   -8.7611 C   0  0  0  0  0  0  0  0  0  0  0  0
  -91.1537   34.2251   -9.2189 C   0  0  0  0  0  0  0  0  0  0  0  0
  -91.7770   34.0579  -10.5498 C   0  0  0  0  0  0  0  0  0  0  0  0
  -92.0099   35.2790  -11.3373 C   0  0  0  0  0  0  0  0  0  0  0  0
  -93.3850   35.3562  -11.6282 F   0  0  0  0  0  0  0  0  0  0  0  0
  -91.5555   36.5334  -10.7349 C   0  0  0  0  0  0  0  0  0  0  0  0
  -90.9922   36.5918   -9.5537 C   0  0  0  0  0  0  0  0  0  0  0  0
  -85.5198   31.2283   -0.7449 O   0  0  0  0  0  0  0  0  0  0  0  0
  -87.2459   27.6418    0.3517 C   0  0  0  0  0  0  0  0  0  0  0  0
  -86.6704   28.8382   -0.0176 C   0  0  0  0  0  0  0  0  0  0  0  0
  -86.0242   29.6318    0.9106 C   0  0  0  0  0  0  0  0  0  0  0  0
  -85.4290   30.8523    0.5609 C   0  0  0  0  0  0  0  0  0  0  0  0
  -84.7886   31.6259    1.5015 C   0  0  0  0  0  0  0  0  0  0  0  0
  -84.7293   31.1969    2.8160 C   0  0  0  0  0  0  0  0  0  0  0  0
  -85.3011   30.0275    3.1469 N   0  0  0  0  0  0  0  0  0  0  0  0
  -85.9318   29.2586    2.2328 C   0  0  0  0  0  0  0  0  0  0  0  0
  -86.5172   28.0493    2.5916 C   0  0  0  0  0  0  0  0  0  0  0  0
  -87.1704   27.2414    1.6671 C   0  0  0  0  0  0  0  0  0  0  0  0
  -88.6080   27.4178   -1.6603 C   0  0  0  0  0  0  0  0  0  0  0  0
  -87.8970   26.8386   -0.5773 O   0  0  0  0  0  0  0  0  0  0  0  0
  -87.7566   26.0350    2.0199 O   0  0  0  0  0  0  0  0  0  0  0  0
  -88.8864   26.0901    2.8804 C   0  0  0  0  0  0  0  0  0  0  0  0
  -90.1422   25.9240    2.0375 C   0  0  0  0  0  0  0  0  0  0  0  0
  -90.1116   24.5686    1.4093 C   0  0  0  0  0  0  0  0  0  0  0  0
  -91.3056   24.3326    0.6582 N   0  0  0  0  0  0  0  0  0  0  0  0
  -91.4509   25.3511   -0.3844 C   0  0  0  0  0  0  0  0  0  0  0  0
  -91.1744   24.8001   -1.7450 C   0  0  0  0  0  0  0  0  0  0  0  0
  -90.0187   23.8234   -1.7918 C   0  0  0  0  0  0  0  0  0  0  0  0
  -90.1310   22.7410   -0.7710 C   0  0  0  0  0  0  0  0  0  0  0  0
  -91.3428   23.0088    0.0794 C   0  0  0  0  0  0  0  0  0  0  0  0
 37 38  1  0  0  0
 38 27  1  0  0  0
 27 28  2  0  0  0
 28 29  1  0  0  0
 29 30  2  0  0  0
 30 26  1  0  0  0
 26  1  1  0  0  0
  1  2  2  0  0  0
  2  3  1  0  0  0
  3  4  2  0  0  0
  4  8  1  0  0  0
  8  9  1  0  0  0
  9 10  2  0  0  0
  9 12  1  0  0  0
 12 13  1  0  0  0
 13 14  1  0  0  0
 12 15  1  0  0  0
 15 16  2  0  0  0
 15 17  1  0  0  0
 17 19  1  0  0  0
 19 20  2  0  0  0
 20 21  1  0  0  0
 21 22  1  0  0  0
 22 23  1  0  0  0
 22 24  1  0  0  0
 24 25  2  0  0  0
  4  5  1  0  0  0
  5  6  2  0  0  0
  6  7  1  0  0  0
 30 31  1  0  0  0
 31 32  2  0  0  0
 32 33  1  0  0  0
 33 34  2  0  0  0
 34 35  1  0  0  0
 35 36  2  0  0  0
 36 39  1  0  0  0
 39 40  1  0  0  0
 40 41  1  0  0  0
 41 42  1  0  0  0
 42 43  1  0  0  0
 43 44  1  0  0  0
 44 45  1  0  0  0
 45 46  1  0  0  0
 46 47  1  0  0  0
 47 48  1  0  0  0
 36 27  1  0  0  0
 48 43  1  0  0  0
 34 29  1  0  0  0
  6  1  1  0  0  0
 14 12  1  0  0  0
 25 19  1  0  0  0
  8 11  1  0  0  0
 17 18  1  0  0  0
M  END
> <minimizedAffinity>
-8.32811

> <CNNscore>
0.1093183085

> <CNNaffinity>
6.6395483017

> <CNN_VS>
0.7258241773

> <CNNaffinity_variance>
0.3318178654

$$$$
[H]C1=C([H])C([H])(F)C([H])([H])C([H])=C1N([H])C(=O)C1(C(=O)N([H])c2c([H])c([H])c(Oc3c([H])c([H])nc4c([H])c(OC([H])([H])C([H])([H])C([H])([H])N5C([H])([H])C([H])([H])C([H])([H])C([H])([H])C5([H])[H])c(OC([H])([H])[H])c([H])c34)c(F)c2[H])C([H])([H])C1([H])[H]


 48 53  0  0  0  0  0  0  0  0999 V2000
  -88.0855   30.8898   -2.6843 C   0  0  0  0  0  0  0  0  0  0  0  0
  -87.9891   31.1213   -4.0400 C   0  0  0  0  0  0  0  0  0  0  0  0
  -87.5741   32.3655   -4.5165 C   0  0  0  0  0  0  0  0  0  0  0  0
  -87.2490   33.3959   -3.6907 C   0  0  0  0  0  0  0  0  0  0  0  0
  -87.3467   33.1614   -2.3288 C   0  0  0  0  0  0  0  0  0  0  0  0
  -87.7560   31.9366   -1.8473 C   0  0  0  0  0  0  0  0  0  0  0  0
  -87.8546   31.7870   -0.4865 F   0  0  0  0  0  0  0  0  0  0  0  0
  -86.8531   34.6961   -4.1148 N   0  0  0  0  0  0  0  0  0  0  0  0
  -87.7572   35.6862   -4.4819 C   0  0  0  0  0  0  0  0  0  0  0  0
  -89.0048   35.3592   -4.3796 O   0  0  0  0  0  0  0  0  0  0  0  0
  -85.8041   34.8333   -4.0868 H   0  0  0  0  0  0  0  0  0  0  0  0
  -87.5229   37.0657   -4.9661 C   0  0  0  0  0  0  0  0  0  0  0  0
  -87.9859   38.1618   -4.0534 C   0  0  0  0  0  0  0  0  0  0  0  0
  -86.5549   37.8075   -4.0741 C   0  0  0  0  0  0  0  0  0  0  0  0
  -87.5560   37.4527   -6.3853 C   0  0  0  0  0  0  0  0  0  0  0  0
  -86.9713   36.5808   -7.1668 O   0  0  0  0  0  0  0  0  0  0  0  0
  -88.1001   38.5832   -6.9781 N   0  0  0  0  0  0  0  0  0  0  0  0
  -88.5295   39.3392   -6.4179 H   0  0  0  0  0  0  0  0  0  0  0  0
  -88.0566   38.8029   -8.3967 C   0  0  0  0  0  0  0  0  0  0  0  0
  -87.0925   39.5060   -8.9570 C   0  0  0  0  0  0  0  0  0  0  0  0
  -87.0350   39.7416  -10.4161 C   0  0  0  0  0  0  0  0  0  0  0  0
  -88.0843   39.1160  -11.2364 C   0  0  0  0  0  0  0  0  0  0  0  0
  -87.4598   38.2892  -12.1892 F   0  0  0  0  0  0  0  0  0  0  0  0
  -89.1065   38.3592  -10.5116 C   0  0  0  0  0  0  0  0  0  0  0  0
  -89.0947   38.2148   -9.2097 C   0  0  0  0  0  0  0  0  0  0  0  0
  -88.4966   29.6647   -2.1865 O   0  0  0  0  0  0  0  0  0  0  0  0
  -88.4555   28.0655    1.6195 C   0  0  0  0  0  0  0  0  0  0  0  0
  -88.4658   28.5996    0.3493 C   0  0  0  0  0  0  0  0  0  0  0  0
  -89.6563   28.8747   -0.2957 C   0  0  0  0  0  0  0  0  0  0  0  0
  -89.6947   29.4197   -1.5871 C   0  0  0  0  0  0  0  0  0  0  0  0
  -90.8921   29.6877   -2.2099 C   0  0  0  0  0  0  0  0  0  0  0  0
  -92.0807   29.4155   -1.5553 C   0  0  0  0  0  0  0  0  0  0  0  0
  -92.0395   28.8930   -0.3187 N   0  0  0  0  0  0  0  0  0  0  0  0
  -90.8708   28.6263    0.3039 C   0  0  0  0  0  0  0  0  0  0  0  0
  -90.8456   28.0870    1.5854 C   0  0  0  0  0  0  0  0  0  0  0  0
  -89.6543   27.8056    2.2455 C   0  0  0  0  0  0  0  0  0  0  0  0
  -86.3887   26.7794    1.7869 C   0  0  0  0  0  0  0  0  0  0  0  0
  -87.2613   27.7869    2.2741 O   0  0  0  0  0  0  0  0  0  0  0  0
  -89.6236   27.2669    3.5231 O   0  0  0  0  0  0  0  0  0  0  0  0
  -90.4890   26.1705    3.7855 C   0  0  0  0  0  0  0  0  0  0  0  0
  -89.9323   24.9394    3.0859 C   0  0  0  0  0  0  0  0  0  0  0  0
  -91.0789   24.1349    2.5655 C   0  0  0  0  0  0  0  0  0  0  0  0
  -91.3201   24.4314    1.1874 N   0  0  0  0  0  0  0  0  0  0  0  0
  -90.0495   24.5163    0.4636 C   0  0  0  0  0  0  0  0  0  0  0  0
  -89.8334   23.3350   -0.4247 C   0  0  0  0  0  0  0  0  0  0  0  0
  -90.2785   22.0198    0.1787 C   0  0  0  0  0  0  0  0  0  0  0  0
  -91.6735   22.0651    0.7063 C   0  0  0  0  0  0  0  0  0  0  0  0
  -92.1956   23.4684    0.5590 C   0  0  0  0  0  0  0  0  0  0  0  0
 37 38  1  0  0  0
 38 27  1  0  0  0
 27 28  2  0  0  0
 28 29  1  0  0  0
 29 30  2  0  0  0
 30 26  1  0  0  0
 26  1  1  0  0  0
  1  2  2  0  0  0
  2  3  1  0  0  0
  3  4  2  0  0  0
  4  8  1  0  0  0
  8  9  1  0  0  0
  9 10  2  0  0  0
  9 12  1  0  0  0
 12 13  1  0  0  0
 13 14  1  0  0  0
 12 15  1  0  0  0
 15 16  2  0  0  0
 15 17  1  0  0  0
 17 19  1  0  0  0
 19 20  2  0  0  0
 20 21  1  0  0  0
 21 22  1  0  0  0
 22 23  1  0  0  0
 22 24  1  0  0  0
 24 25  2  0  0  0
  4  5  1  0  0  0
  5  6  2  0  0  0
  6  7  1  0  0  0
 30 31  1  0  0  0
 31 32  2  0  0  0
 32 33  1  0  0  0
 33 34  2  0  0  0
 34 35  1  0  0  0
 35 36  2  0  0  0
 36 39  1  0  0  0
 39 40  1  0  0  0
 40 41  1  0  0  0
 41 42  1  0  0  0
 42 43  1  0  0  0
 43 44  1  0  0  0
 44 45  1  0  0  0
 45 46  1  0  0  0
 46 47  1  0  0  0
 47 48  1  0  0  0
 36 27  1  0  0  0
 48 43  1  0  0  0
 34 29  1  0  0  0
  6  1  1  0  0  0
 14 12  1  0  0  0
 25 19  1  0  0  0
  8 11  1  0  0  0
 17 18  1  0  0  0
M  END
> <minimizedAffinity>
-7.91859

> <CNNscore>
0.1076562628

> <CNNaffinity>
6.3077077866

> <CNN_VS>
0.6790642738

> <CNNaffinity_variance>
0.4882237017

$$$$
[H]C1=C([H])C([H])(F)C([H])([H])C([H])=C1N([H])C(=O)C1(C(=O)N([H])c2c([H])c([H])c(Oc3c([H])c([H])nc4c([H])c(OC([H])([H])C([H])([H])C([H])([H])N5C([H])([H])C([H])([H])C([H])([H])C([H])([H])C5([H])[H])c(OC([H])([H])[H])c([H])c34)c(F)c2[H])C([H])([H])C1([H])[H]


 48 53  0  0  0  0  0  0  0  0999 V2000
  -93.6390   27.3388   -3.8034 C   0  0  0  0  0  0  0  0  0  0  0  0
  -92.9300   26.1594   -3.7180 C   0  0  0  0  0  0  0  0  0  0  0  0
  -91.6250   26.1537   -3.2236 C   0  0  0  0  0  0  0  0  0  0  0  0
  -90.9932   27.2840   -2.8081 C   0  0  0  0  0  0  0  0  0  0  0  0
  -91.7071   28.4680   -2.8949 C   0  0  0  0  0  0  0  0  0  0  0  0
  -92.9963   28.4852   -3.3819 C   0  0  0  0  0  0  0  0  0  0  0  0
  -93.6310   29.6995   -3.4635 F   0  0  0  0  0  0  0  0  0  0  0  0
  -89.6545   27.3483   -2.3278 N   0  0  0  0  0  0  0  0  0  0  0  0
  -89.3266   27.3087   -0.9774 C   0  0  0  0  0  0  0  0  0  0  0  0
  -90.3285   27.1725   -0.1704 O   0  0  0  0  0  0  0  0  0  0  0  0
  -88.9418   27.3950   -3.1087 H   0  0  0  0  0  0  0  0  0  0  0  0
  -88.0078   27.3893   -0.3090 C   0  0  0  0  0  0  0  0  0  0  0  0
  -87.8967   26.6628    0.9981 C   0  0  0  0  0  0  0  0  0  0  0  0
  -87.3508   26.0318   -0.2175 C   0  0  0  0  0  0  0  0  0  0  0  0
  -87.1186   28.5589   -0.3892 C   0  0  0  0  0  0  0  0  0  0  0  0
  -86.9768   29.0106   -1.6093 O   0  0  0  0  0  0  0  0  0  0  0  0
  -86.4318   29.2149    0.6224 N   0  0  0  0  0  0  0  0  0  0  0  0
  -86.4539   28.8814    1.6012 H   0  0  0  0  0  0  0  0  0  0  0  0
  -85.6062   30.3629    0.3709 C   0  0  0  0  0  0  0  0  0  0  0  0
  -84.2907   30.2892    0.4114 C   0  0  0  0  0  0  0  0  0  0  0  0
  -83.4276   31.4629    0.1558 C   0  0  0  0  0  0  0  0  0  0  0  0
  -84.1002   32.7240   -0.1943 C   0  0  0  0  0  0  0  0  0  0  0  0
  -83.6165   33.1445   -1.4476 F   0  0  0  0  0  0  0  0  0  0  0  0
  -85.5637   32.6942   -0.2080 C   0  0  0  0  0  0  0  0  0  0  0  0
  -86.2553   31.6122    0.0507 C   0  0  0  0  0  0  0  0  0  0  0  0
  -94.9343   27.3710   -4.2919 O   0  0  0  0  0  0  0  0  0  0  0  0
  -96.5691   24.0480   -6.1168 C   0  0  0  0  0  0  0  0  0  0  0  0
  -96.0235   25.1556   -5.5047 C   0  0  0  0  0  0  0  0  0  0  0  0
  -95.8300   26.3307   -6.2049 C   0  0  0  0  0  0  0  0  0  0  0  0
  -95.2786   27.4723   -5.6057 C   0  0  0  0  0  0  0  0  0  0  0  0
  -95.0966   28.6331   -6.3217 C   0  0  0  0  0  0  0  0  0  0  0  0
  -95.4612   28.6792   -7.6560 C   0  0  0  0  0  0  0  0  0  0  0  0
  -95.9885   27.5835   -8.2263 N   0  0  0  0  0  0  0  0  0  0  0  0
  -96.1732   26.4384   -7.5341 C   0  0  0  0  0  0  0  0  0  0  0  0
  -96.7222   25.3131   -8.1392 C   0  0  0  0  0  0  0  0  0  0  0  0
  -96.9223   24.1244   -7.4456 C   0  0  0  0  0  0  0  0  0  0  0  0
  -95.6690   22.0248   -5.0920 C   0  0  0  0  0  0  0  0  0  0  0  0
  -96.7669   22.8629   -5.4178 O   0  0  0  0  0  0  0  0  0  0  0  0
  -97.4686   22.9992   -8.0446 O   0  0  0  0  0  0  0  0  0  0  0  0
  -97.8576   23.1138   -9.4067 C   0  0  0  0  0  0  0  0  0  0  0  0
  -97.5312   21.8059  -10.1125 C   0  0  0  0  0  0  0  0  0  0  0  0
  -97.1519   20.7955   -9.0792 C   0  0  0  0  0  0  0  0  0  0  0  0
  -96.5079   19.6709   -9.6845 N   0  0  0  0  0  0  0  0  0  0  0  0
  -95.9107   20.0640  -10.9629 C   0  0  0  0  0  0  0  0  0  0  0  0
  -94.4212   20.1426  -10.8821 C   0  0  0  0  0  0  0  0  0  0  0  0
  -93.9039   20.7330   -9.5876 C   0  0  0  0  0  0  0  0  0  0  0  0
  -94.4881   20.0830   -8.3783 C   0  0  0  0  0  0  0  0  0  0  0  0
  -95.5116   19.0744   -8.8241 C   0  0  0  0  0  0  0  0  0  0  0  0
 37 38  1  0  0  0
 38 27  1  0  0  0
 27 28  2  0  0  0
 28 29  1  0  0  0
 29 30  2  0  0  0
 30 26  1  0  0  0
 26  1  1  0  0  0
  1  2  2  0  0  0
  2  3  1  0  0  0
  3  4  2  0  0  0
  4  8  1  0  0  0
  8  9  1  0  0  0
  9 10  2  0  0  0
  9 12  1  0  0  0
 12 13  1  0  0  0
 13 14  1  0  0  0
 12 15  1  0  0  0
 15 16  2  0  0  0
 15 17  1  0  0  0
 17 19  1  0  0  0
 19 20  2  0  0  0
 20 21  1  0  0  0
 21 22  1  0  0  0
 22 23  1  0  0  0
 22 24  1  0  0  0
 24 25  2  0  0  0
  4  5  1  0  0  0
  5  6  2  0  0  0
  6  7  1  0  0  0
 30 31  1  0  0  0
 31 32  2  0  0  0
 32 33  1  0  0  0
 33 34  2  0  0  0
 34 35  1  0  0  0
 35 36  2  0  0  0
 36 39  1  0  0  0
 39 40  1  0  0  0
 40 41  1  0  0  0
 41 42  1  0  0  0
 42 43  1  0  0  0
 43 44  1  0  0  0
 44 45  1  0  0  0
 45 46  1  0  0  0
 46 47  1  0  0  0
 47 48  1  0  0  0
 36 27  1  0  0  0
 48 43  1  0  0  0
 34 29  1  0  0  0
  6  1  1  0  0  0
 14 12  1  0  0  0
 25 19  1  0  0  0
  8 11  1  0  0  0
 17 18  1  0  0  0
M  END
> <minimizedAffinity>
-7.03615

> <CNNscore>
0.0894749165

> <CNNaffinity>
6.2147712708

> <CNN_VS>
0.5560661554

> <CNNaffinity_variance>
0.1548884809

$$$$
[H]C1=C([H])C([H])(F)C([H])([H])C([H])=C1N([H])C(=O)C1(C(=O)N([H])c2c([H])c([H])c(Oc3c([H])c([H])nc4c([H])c(OC([H])([H])C([H])([H])C([H])([H])N5C([H])([H])C([H])([H])C([H])([H])C([H])([H])C5([H])[H])c(OC([H])([H])[H])c([H])c34)c(F)c2[H])C([H])([H])C1([H])[H]


 48 53  0  0  0  0  0  0  0  0999 V2000
  -88.8479   29.6291   -1.3379 C   0  0  0  0  0  0  0  0  0  0  0  0
  -89.8405   30.0546   -0.4809 C   0  0  0  0  0  0  0  0  0  0  0  0
  -90.3823   29.1803    0.4623 C   0  0  0  0  0  0  0  0  0  0  0  0
  -89.9721   27.8896    0.5866 C   0  0  0  0  0  0  0  0  0  0  0  0
  -88.9749   27.4639   -0.2756 C   0  0  0  0  0  0  0  0  0  0  0  0
  -88.4331   28.3189   -1.2110 C   0  0  0  0  0  0  0  0  0  0  0  0
  -87.4679   27.8184   -2.0488 F   0  0  0  0  0  0  0  0  0  0  0  0
  -90.5084   26.9412    1.5031 N   0  0  0  0  0  0  0  0  0  0  0  0
  -89.7414   26.2916    2.4635 C   0  0  0  0  0  0  0  0  0  0  0  0
  -88.4941   26.6335    2.4970 O   0  0  0  0  0  0  0  0  0  0  0  0
  -91.5532   26.8130    1.3941 H   0  0  0  0  0  0  0  0  0  0  0  0
  -90.1244   25.2715    3.4662 C   0  0  0  0  0  0  0  0  0  0  0  0
  -89.3471   25.2971    4.7483 C   0  0  0  0  0  0  0  0  0  0  0  0
  -90.6883   25.9085    4.7148 C   0  0  0  0  0  0  0  0  0  0  0  0
  -90.6130   23.9270    3.1218 C   0  0  0  0  0  0  0  0  0  0  0  0
  -91.8297   23.7006    3.5476 O   0  0  0  0  0  0  0  0  0  0  0  0
  -89.9719   22.9050    2.4364 N   0  0  0  0  0  0  0  0  0  0  0  0
  -88.9918   22.9935    2.1179 H   0  0  0  0  0  0  0  0  0  0  0  0
  -90.6046   21.6433    2.1710 C   0  0  0  0  0  0  0  0  0  0  0  0
  -91.3675   21.4631    1.1113 C   0  0  0  0  0  0  0  0  0  0  0  0
  -92.0265   20.1701    0.8255 C   0  0  0  0  0  0  0  0  0  0  0  0
  -91.7594   19.0630    1.7574 C   0  0  0  0  0  0  0  0  0  0  0  0
  -91.2126   17.9946    1.0220 F   0  0  0  0  0  0  0  0  0  0  0  0
  -90.9004   19.3737    2.9012 C   0  0  0  0  0  0  0  0  0  0  0  0
  -90.3701   20.5562    3.0918 C   0  0  0  0  0  0  0  0  0  0  0  0
  -88.2956   30.4766   -2.2835 O   0  0  0  0  0  0  0  0  0  0  0  0
  -88.8746   33.7343   -4.7528 C   0  0  0  0  0  0  0  0  0  0  0  0
  -88.6838   32.6453   -3.9302 C   0  0  0  0  0  0  0  0  0  0  0  0
  -87.8080   32.7061   -2.8634 C   0  0  0  0  0  0  0  0  0  0  0  0
  -87.5969   31.6133   -2.0103 C   0  0  0  0  0  0  0  0  0  0  0  0
  -86.7212   31.6967   -0.9522 C   0  0  0  0  0  0  0  0  0  0  0  0
  -86.0343   32.8761   -0.7229 C   0  0  0  0  0  0  0  0  0  0  0  0
  -86.2390   33.9202   -1.5426 N   0  0  0  0  0  0  0  0  0  0  0  0
  -87.0965   33.8514   -2.5839 C   0  0  0  0  0  0  0  0  0  0  0  0
  -87.2984   34.9424   -3.4222 C   0  0  0  0  0  0  0  0  0  0  0  0
  -88.1771   34.8942   -4.4992 C   0  0  0  0  0  0  0  0  0  0  0  0
  -91.1552   33.6064   -5.6108 C   0  0  0  0  0  0  0  0  0  0  0  0
  -89.7546   33.6799   -5.8274 O   0  0  0  0  0  0  0  0  0  0  0  0
  -88.3813   35.9790   -5.3388 O   0  0  0  0  0  0  0  0  0  0  0  0
  -87.4317   36.1842   -6.3761 C   0  0  0  0  0  0  0  0  0  0  0  0
  -87.5123   37.6365   -6.8225 C   0  0  0  0  0  0  0  0  0  0  0  0
  -88.4679   38.3526   -5.9245 C   0  0  0  0  0  0  0  0  0  0  0  0
  -87.9844   39.6621   -5.6132 N   0  0  0  0  0  0  0  0  0  0  0  0
  -89.1103   40.5789   -5.4196 C   0  0  0  0  0  0  0  0  0  0  0  0
  -89.2993   40.9343   -3.9811 C   0  0  0  0  0  0  0  0  0  0  0  0
  -89.0872   39.7782   -3.0270 C   0  0  0  0  0  0  0  0  0  0  0  0
  -87.7952   39.0671   -3.2540 C   0  0  0  0  0  0  0  0  0  0  0  0
  -87.1203   39.6722   -4.4547 C   0  0  0  0  0  0  0  0  0  0  0  0
 37 38  1  0  0  0
 38 27  1  0  0  0
 27 28  2  0  0  0
 28 29  1  0  0  0
 29 30  2  0  0  0
 30 26  1  0  0  0
 26  1  1  0  0  0
  1  2  2  0  0  0
  2  3  1  0  0  0
  3  4  2  0  0  0
  4  8  1  0  0  0
  8  9  1  0  0  0
  9 10  2  0  0  0
  9 12  1  0  0  0
 12 13  1  0  0  0
 13 14  1  0  0  0
 12 15  1  0  0  0
 15 16  2  0  0  0
 15 17  1  0  0  0
 17 19  1  0  0  0
 19 20  2  0  0  0
 20 21  1  0  0  0
 21 22  1  0  0  0
 22 23  1  0  0  0
 22 24  1  0  0  0
 24 25  2  0  0  0
  4  5  1  0  0  0
  5  6  2  0  0  0
  6  7  1  0  0  0
 30 31  1  0  0  0
 31 32  2  0  0  0
 32 33  1  0  0  0
 33 34  2  0  0  0
 34 35  1  0  0  0
 35 36  2  0  0  0
 36 39  1  0  0  0
 39 40  1  0  0  0
 40 41  1  0  0  0
 41 42  1  0  0  0
 42 43  1  0  0  0
 43 44  1  0  0  0
 44 45  1  0  0  0
 45 46  1  0  0  0
 46 47  1  0  0  0
 47 48  1  0  0  0
 36 27  1  0  0  0
 48 43  1  0  0  0
 34 29  1  0  0  0
  6  1  1  0  0  0
 14 12  1  0  0  0
 25 19  1  0  0  0
  8 11  1  0  0  0
 17 18  1  0  0  0
M  END
> <minimizedAffinity>
-8.46993

> <CNNscore>
0.0834794044

> <CNNaffinity>
6.5183992386

> <CNN_VS>
0.5441520810

> <CNNaffinity_variance>
0.2384825051

$$$$
[H]C1=C([H])C([H])(F)C([H])([H])C([H])=C1N([H])C(=O)C1(C(=O)N([H])c2c([H])c([H])c(Oc3c([H])c([H])nc4c([H])c(OC([H])([H])C([H])([H])C([H])([H])N5C([H])([H])C([H])([H])C([H])([H])C5([H])[H])c(OC([H])([H])[H])c([H])c34)c(F)c2[H])C([H])([H])C1([H])[H]


 47 52  0  0  0  0  0  0  0  0999 V2000
  -86.3316   28.7022    1.4743 C   0  0  0  0  0  0  0  0  0  0  0  0
  -86.9608   27.8791    2.3982 C   0  0  0  0  0  0  0  0  0  0  0  0
  -87.5715   26.7172    2.0032 C   0  0  0  0  0  0  0  0  0  0  0  0
  -87.6032   26.2870    0.6667 C   0  0  0  0  0  0  0  0  0  0  0  0
  -86.9836   27.0991   -0.2421 C   0  0  0  0  0  0  0  0  0  0  0  0
  -86.3568   28.2915    0.1672 C   0  0  0  0  0  0  0  0  0  0  0  0
  -85.7526   29.0278   -0.7998 F   0  0  0  0  0  0  0  0  0  0  0  0
  -88.2850   25.0745    0.3448 N   0  0  0  0  0  0  0  0  0  0  0  0
  -89.6025   24.9281   -0.0708 C   0  0  0  0  0  0  0  0  0  0  0  0
  -90.2996   26.0014   -0.1660 O   0  0  0  0  0  0  0  0  0  0  0  0
  -87.6692   24.2084    0.5187 H   0  0  0  0  0  0  0  0  0  0  0  0
  -90.2762   23.6781   -0.3981 C   0  0  0  0  0  0  0  0  0  0  0  0
  -90.1470   23.1993   -1.8415 C   0  0  0  0  0  0  0  0  0  0  0  0
  -91.3981   23.8727   -1.4326 C   0  0  0  0  0  0  0  0  0  0  0  0
  -90.5154   22.6112    0.6074 C   0  0  0  0  0  0  0  0  0  0  0  0
  -91.0075   23.0751    1.7110 O   0  0  0  0  0  0  0  0  0  0  0  0
  -90.2603   21.2731    0.4096 N   0  0  0  0  0  0  0  0  0  0  0  0
  -89.9523   20.9902   -0.5713 H   0  0  0  0  0  0  0  0  0  0  0  0
  -90.4227   20.1577    1.3034 C   0  0  0  0  0  0  0  0  0  0  0  0
  -91.2502   19.1702    1.0797 C   0  0  0  0  0  0  0  0  0  0  0  0
  -91.4221   18.0229    1.9912 C   0  0  0  0  0  0  0  0  0  0  0  0
  -90.6164   18.0199    3.2236 C   0  0  0  0  0  0  0  0  0  0  0  0
  -91.5006   17.9926    4.3194 F   0  0  0  0  0  0  0  0  0  0  0  0
  -89.7217   19.1507    3.3987 C   0  0  0  0  0  0  0  0  0  0  0  0
  -89.6240   20.1201    2.5428 C   0  0  0  0  0  0  0  0  0  0  0  0
  -85.7099   29.8720    1.8490 O   0  0  0  0  0  0  0  0  0  0  0  0
  -87.1924   32.7284   -0.6812 C   0  0  0  0  0  0  0  0  0  0  0  0
  -86.6653   31.7774    0.1576 C   0  0  0  0  0  0  0  0  0  0  0  0
  -85.3140   31.5786    0.2916 C   0  0  0  0  0  0  0  0  0  0  0  0
  -84.8039   30.6075    1.1533 C   0  0  0  0  0  0  0  0  0  0  0  0
  -83.4350   30.5075    1.2005 C   0  0  0  0  0  0  0  0  0  0  0  0
  -82.6189   31.3132    0.4472 C   0  0  0  0  0  0  0  0  0  0  0  0
  -83.1528   32.2201   -0.3554 N   0  0  0  0  0  0  0  0  0  0  0  0
  -84.4971   32.3898   -0.4667 C   0  0  0  0  0  0  0  0  0  0  0  0
  -84.9952   33.3534   -1.3186 C   0  0  0  0  0  0  0  0  0  0  0  0
  -86.3523   33.5139   -1.4176 C   0  0  0  0  0  0  0  0  0  0  0  0
  -89.3803   32.1058   -1.6164 C   0  0  0  0  0  0  0  0  0  0  0  0
  -88.5722   32.8982   -0.7875 O   0  0  0  0  0  0  0  0  0  0  0  0
  -86.8133   34.4943   -2.2853 O   0  0  0  0  0  0  0  0  0  0  0  0
  -87.1082   34.2805   -3.6296 C   0  0  0  0  0  0  0  0  0  0  0  0
  -88.4733   34.8439   -3.9293 C   0  0  0  0  0  0  0  0  0  0  0  0
  -88.7814   34.8169   -5.3989 C   0  0  0  0  0  0  0  0  0  0  0  0
  -88.6232   36.1119   -5.9801 N   0  0  0  0  0  0  0  0  0  0  0  0
  -87.2813   36.4903   -6.2830 C   0  0  0  0  0  0  0  0  0  0  0  0
  -87.3304   37.3115   -7.5749 C   0  0  0  0  0  0  0  0  0  0  0  0
  -88.8013   37.6791   -7.6359 C   0  0  0  0  0  0  0  0  0  0  0  0
  -89.4360   36.3765   -7.1274 C   0  0  0  0  0  0  0  0  0  0  0  0
 37 38  1  0  0  0
 38 27  1  0  0  0
 27 28  2  0  0  0
 28 29  1  0  0  0
 29 30  2  0  0  0
 30 26  1  0  0  0
 26  1  1  0  0  0
  1  2  2  0  0  0
  2  3  1  0  0  0
  3  4  2  0  0  0
  4  8  1  0  0  0
  8  9  1  0  0  0
  9 10  2  0  0  0
  9 12  1  0  0  0
 12 13  1  0  0  0
 13 14  1  0  0  0
 12 15  1  0  0  0
 15 16  2  0  0  0
 15 17  1  0  0  0
 17 19  1  0  0  0
 19 20  2  0  0  0
 20 21  1  0  0  0
 21 22  1  0  0  0
 22 23  1  0  0  0
 22 24  1  0  0  0
 24 25  2  0  0  0
  4  5  1  0  0  0
  5  6  2  0  0  0
  6  7  1  0  0  0
 30 31  1  0  0  0
 31 32  2  0  0  0
 32 33  1  0  0  0
 33 34  2  0  0  0
 34 35  1  0  0  0
 35 36  2  0  0  0
 36 39  1  0  0  0
 39 40  1  0  0  0
 40 41  1  0  0  0
 41 42  1  0  0  0
 42 43  1  0  0  0
 43 44  1  0  0  0
 44 45  1  0  0  0
 45 46  1  0  0  0
 46 47  1  0  0  0
 36 27  1  0  0  0
 47 43  1  0  0  0
 34 29  1  0  0  0
  6  1  1  0  0  0
 14 12  1  0  0  0
 25 19  1  0  0  0
  8 11  1  0  0  0
 17 18  1  0  0  0
M  END
> <minimizedAffinity>
-9.15539

> <CNNscore>
0.4824826717

> <CNNaffinity>
7.1809067726

> <CNN_VS>
3.4646630287

> <CNNaffinity_variance>
0.1684301198

$$$$
[H]C1=C([H])C([H])(F)C([H])([H])C([H])=C1N([H])C(=O)C1(C(=O)N([H])c2c([H])c([H])c(Oc3c([H])c([H])nc4c([H])c(OC([H])([H])C([H])([H])C([H])([H])N5C([H])([H])C([H])([H])C([H])([H])C5([H])[H])c(OC([H])([H])[H])c([H])c34)c(F)c2[H])C([H])([H])C1([H])[H]


 47 52  0  0  0  0  0  0  0  0999 V2000
  -86.3031   29.0895    0.8851 C   0  0  0  0  0  0  0  0  0  0  0  0
  -86.4010   28.8144   -0.4720 C   0  0  0  0  0  0  0  0  0  0  0  0
  -87.1843   27.7851   -0.9257 C   0  0  0  0  0  0  0  0  0  0  0  0
  -87.9262   26.9550   -0.0696 C   0  0  0  0  0  0  0  0  0  0  0  0
  -87.8282   27.2269    1.2666 C   0  0  0  0  0  0  0  0  0  0  0  0
  -87.0233   28.2853    1.7292 C   0  0  0  0  0  0  0  0  0  0  0  0
  -86.9978   28.4932    3.0702 F   0  0  0  0  0  0  0  0  0  0  0  0
  -88.6951   25.8908   -0.6309 N   0  0  0  0  0  0  0  0  0  0  0  0
  -89.9821   25.9577   -1.1496 C   0  0  0  0  0  0  0  0  0  0  0  0
  -90.5604   27.1028   -1.1111 O   0  0  0  0  0  0  0  0  0  0  0  0
  -88.1836   24.9457   -0.5630 H   0  0  0  0  0  0  0  0  0  0  0  0
  -90.7462   24.8567   -1.7218 C   0  0  0  0  0  0  0  0  0  0  0  0
  -90.7064   23.5372   -0.9558 C   0  0  0  0  0  0  0  0  0  0  0  0
  -89.8483   23.6834   -2.1509 C   0  0  0  0  0  0  0  0  0  0  0  0
  -91.9556   25.0714   -2.5572 C   0  0  0  0  0  0  0  0  0  0  0  0
  -92.9772   24.4033   -2.1265 O   0  0  0  0  0  0  0  0  0  0  0  0
  -92.0125   25.8895   -3.6626 N   0  0  0  0  0  0  0  0  0  0  0  0
  -91.1416   26.4701   -3.8667 H   0  0  0  0  0  0  0  0  0  0  0  0
  -93.1039   26.1585   -4.5602 C   0  0  0  0  0  0  0  0  0  0  0  0
  -93.5312   25.3022   -5.4514 C   0  0  0  0  0  0  0  0  0  0  0  0
  -94.6499   25.5707   -6.3750 C   0  0  0  0  0  0  0  0  0  0  0  0
  -95.2959   26.8903   -6.2792 C   0  0  0  0  0  0  0  0  0  0  0  0
  -95.1680   27.5272   -7.5287 F   0  0  0  0  0  0  0  0  0  0  0  0
  -94.7643   27.7841   -5.2650 C   0  0  0  0  0  0  0  0  0  0  0  0
  -93.7781   27.4681   -4.4843 C   0  0  0  0  0  0  0  0  0  0  0  0
  -85.5246   30.1196    1.3629 O   0  0  0  0  0  0  0  0  0  0  0  0
  -87.5838   32.7331   -1.0220 C   0  0  0  0  0  0  0  0  0  0  0  0
  -86.8654   31.8690   -0.2328 C   0  0  0  0  0  0  0  0  0  0  0  0
  -85.4958   31.9073   -0.1531 C   0  0  0  0  0  0  0  0  0  0  0  0
  -84.7897   31.0197    0.6590 C   0  0  0  0  0  0  0  0  0  0  0  0
  -83.4236   31.1604    0.6544 C   0  0  0  0  0  0  0  0  0  0  0  0
  -82.7917   32.1154   -0.1016 C   0  0  0  0  0  0  0  0  0  0  0  0
  -83.5077   32.9340   -0.8559 N   0  0  0  0  0  0  0  0  0  0  0  0
  -84.8644   32.8678   -0.9140 C   0  0  0  0  0  0  0  0  0  0  0  0
  -85.5570   33.7498   -1.7169 C   0  0  0  0  0  0  0  0  0  0  0  0
  -86.9242   33.6720   -1.7626 C   0  0  0  0  0  0  0  0  0  0  0  0
  -89.6928   31.4893   -0.7893 C   0  0  0  0  0  0  0  0  0  0  0  0
  -88.9753   32.6606   -1.0738 O   0  0  0  0  0  0  0  0  0  0  0  0
  -87.5838   34.5773   -2.5821 O   0  0  0  0  0  0  0  0  0  0  0  0
  -87.8399   34.3726   -3.9358 C   0  0  0  0  0  0  0  0  0  0  0  0
  -87.9037   35.7076   -4.6317 C   0  0  0  0  0  0  0  0  0  0  0  0
  -87.3397   36.8107   -3.7828 C   0  0  0  0  0  0  0  0  0  0  0  0
  -88.3534   37.7496   -3.4216 N   0  0  0  0  0  0  0  0  0  0  0  0
  -87.8873   38.9580   -2.8232 C   0  0  0  0  0  0  0  0  0  0  0  0
  -88.8038   40.0820   -3.3158 C   0  0  0  0  0  0  0  0  0  0  0  0
  -89.9937   39.2908   -3.8265 C   0  0  0  0  0  0  0  0  0  0  0  0
  -89.2785   38.0880   -4.4591 C   0  0  0  0  0  0  0  0  0  0  0  0
 37 38  1  0  0  0
 38 27  1  0  0  0
 27 28  2  0  0  0
 28 29  1  0  0  0
 29 30  2  0  0  0
 30 26  1  0  0  0
 26  1  1  0  0  0
  1  2  2  0  0  0
  2  3  1  0  0  0
  3  4  2  0  0  0
  4  8  1  0  0  0
  8  9  1  0  0  0
  9 10  2  0  0  0
  9 12  1  0  0  0
 12 13  1  0  0  0
 13 14  1  0  0  0
 12 15  1  0  0  0
 15 16  2  0  0  0
 15 17  1  0  0  0
 17 19  1  0  0  0
 19 20  2  0  0  0
 20 21  1  0  0  0
 21 22  1  0  0  0
 22 23  1  0  0  0
 22 24  1  0  0  0
 24 25  2  0  0  0
  4  5  1  0  0  0
  5  6  2  0  0  0
  6  7  1  0  0  0
 30 31  1  0  0  0
 31 32  2  0  0  0
 32 33  1  0  0  0
 33 34  2  0  0  0
 34 35  1  0  0  0
 35 36  2  0  0  0
 36 39  1  0  0  0
 39 40  1  0  0  0
 40 41  1  0  0  0
 41 42  1  0  0  0
 42 43  1  0  0  0
 43 44  1  0  0  0
 44 45  1  0  0  0
 45 46  1  0  0  0
 46 47  1  0  0  0
 36 27  1  0  0  0
 47 43  1  0  0  0
 34 29  1  0  0  0
  6  1  1  0  0  0
 14 12  1  0  0  0
 25 19  1  0  0  0
  8 11  1  0  0  0
 17 18  1  0  0  0
M  END
> <minimizedAffinity>
-8.42821

> <CNNscore>
0.4454560876

> <CNNaffinity>
7.4182577133

> <CNN_VS>
3.3045079708

> <CNNaffinity_variance>
0.1329139918

$$$$
[H]C1=C([H])C([H])(F)C([H])([H])C([H])=C1N([H])C(=O)C1(C(=O)N([H])c2c([H])c([H])c(Oc3c([H])c([H])nc4c([H])c(OC([H])([H])C([H])([H])C([H])([H])N5C([H])([H])C([H])([H])C([H])([H])C5([H])[H])c(OC([H])([H])[H])c([H])c34)c(F)c2[H])C([H])([H])C1([H])[H]


 47 52  0  0  0  0  0  0  0  0999 V2000
  -86.1928   28.9819    1.2905 C   0  0  0  0  0  0  0  0  0  0  0  0
  -87.2628   28.9738    0.4062 C   0  0  0  0  0  0  0  0  0  0  0  0
  -87.8649   27.7973    0.0423 C   0  0  0  0  0  0  0  0  0  0  0  0
  -87.4515   26.5457    0.5270 C   0  0  0  0  0  0  0  0  0  0  0  0
  -86.3972   26.5555    1.3973 C   0  0  0  0  0  0  0  0  0  0  0  0
  -85.7815   27.7657    1.7695 C   0  0  0  0  0  0  0  0  0  0  0  0
  -84.7525   27.6826    2.6507 F   0  0  0  0  0  0  0  0  0  0  0  0
  -88.1227   25.3704    0.0725 N   0  0  0  0  0  0  0  0  0  0  0  0
  -89.4296   24.9836    0.3416 C   0  0  0  0  0  0  0  0  0  0  0  0
  -90.1167   25.7606    1.0975 O   0  0  0  0  0  0  0  0  0  0  0  0
  -87.4692   24.7264   -0.4911 H   0  0  0  0  0  0  0  0  0  0  0  0
  -90.0952   23.7792   -0.1378 C   0  0  0  0  0  0  0  0  0  0  0  0
  -89.8293   23.3935   -1.5904 C   0  0  0  0  0  0  0  0  0  0  0  0
  -91.0997   24.0761   -1.2646 C   0  0  0  0  0  0  0  0  0  0  0  0
  -90.4617   22.6556    0.7621 C   0  0  0  0  0  0  0  0  0  0  0  0
  -91.4595   22.9471    1.5334 O   0  0  0  0  0  0  0  0  0  0  0  0
  -89.8341   21.4309    0.7863 N   0  0  0  0  0  0  0  0  0  0  0  0
  -89.0922   21.2647    0.0386 H   0  0  0  0  0  0  0  0  0  0  0  0
  -90.0755   20.2832    1.6192 C   0  0  0  0  0  0  0  0  0  0  0  0
  -90.8370   19.2817    1.2624 C   0  0  0  0  0  0  0  0  0  0  0  0
  -91.0891   18.1014    2.1107 C   0  0  0  0  0  0  0  0  0  0  0  0
  -90.4482   18.0798    3.4361 C   0  0  0  0  0  0  0  0  0  0  0  0
  -91.4643   17.9935    4.4074 F   0  0  0  0  0  0  0  0  0  0  0  0
  -89.6183   19.2277    3.7577 C   0  0  0  0  0  0  0  0  0  0  0  0
  -89.4415   20.2267    2.9497 C   0  0  0  0  0  0  0  0  0  0  0  0
  -85.5748   30.1516    1.6718 O   0  0  0  0  0  0  0  0  0  0  0  0
  -87.2900   32.8610   -0.8728 C   0  0  0  0  0  0  0  0  0  0  0  0
  -86.6857   31.9612   -0.0298 C   0  0  0  0  0  0  0  0  0  0  0  0
  -85.3219   31.8570    0.0836 C   0  0  0  0  0  0  0  0  0  0  0  0
  -84.7326   30.9362    0.9501 C   0  0  0  0  0  0  0  0  0  0  0  0
  -83.3595   30.9304    0.9750 C   0  0  0  0  0  0  0  0  0  0  0  0
  -82.6127   31.7781    0.1962 C   0  0  0  0  0  0  0  0  0  0  0  0
  -83.2204   32.6341   -0.6099 N   0  0  0  0  0  0  0  0  0  0  0  0
  -84.5748   32.7101   -0.7003 C   0  0  0  0  0  0  0  0  0  0  0  0
  -85.1514   33.6243   -1.5570 C   0  0  0  0  0  0  0  0  0  0  0  0
  -86.5178   33.6905   -1.6349 C   0  0  0  0  0  0  0  0  0  0  0  0
  -89.5357   32.0175   -0.3301 C   0  0  0  0  0  0  0  0  0  0  0  0
  -88.6798   32.9348   -0.9576 O   0  0  0  0  0  0  0  0  0  0  0  0
  -87.0587   34.6237   -2.5083 O   0  0  0  0  0  0  0  0  0  0  0  0
  -87.1446   34.4536   -3.8880 C   0  0  0  0  0  0  0  0  0  0  0  0
  -87.4356   33.0059   -4.1880 C   0  0  0  0  0  0  0  0  0  0  0  0
  -88.8396   32.8064   -4.6825 C   0  0  0  0  0  0  0  0  0  0  0  0
  -89.2876   31.4738   -4.4312 N   0  0  0  0  0  0  0  0  0  0  0  0
  -88.3436   30.6185   -3.7885 C   0  0  0  0  0  0  0  0  0  0  0  0
  -89.1365   29.7070   -2.8470 C   0  0  0  0  0  0  0  0  0  0  0  0
  -90.5424   29.8670   -3.3951 C   0  0  0  0  0  0  0  0  0  0  0  0
  -90.5375   31.3625   -3.7441 C   0  0  0  0  0  0  0  0  0  0  0  0
 37 38  1  0  0  0
 38 27  1  0  0  0
 27 28  2  0  0  0
 28 29  1  0  0  0
 29 30  2  0  0  0
 30 26  1  0  0  0
 26  1  1  0  0  0
  1  2  2  0  0  0
  2  3  1  0  0  0
  3  4  2  0  0  0
  4  8  1  0  0  0
  8  9  1  0  0  0
  9 10  2  0  0  0
  9 12  1  0  0  0
 12 13  1  0  0  0
 13 14  1  0  0  0
 12 15  1  0  0  0
 15 16  2  0  0  0
 15 17  1  0  0  0
 17 19  1  0  0  0
 19 20  2  0  0  0
 20 21  1  0  0  0
 21 22  1  0  0  0
 22 23  1  0  0  0
 22 24  1  0  0  0
 24 25  2  0  0  0
  4  5  1  0  0  0
  5  6  2  0  0  0
  6  7  1  0  0  0
 30 31  1  0  0  0
 31 32  2  0  0  0
 32 33  1  0  0  0
 33 34  2  0  0  0
 34 35  1  0  0  0
 35 36  2  0  0  0
 36 39  1  0  0  0
 39 40  1  0  0  0
 40 41  1  0  0  0
 41 42  1  0  0  0
 42 43  1  0  0  0
 43 44  1  0  0  0
 44 45  1  0  0  0
 45 46  1  0  0  0
 46 47  1  0  0  0
 36 27  1  0  0  0
 47 43  1  0  0  0
 34 29  1  0  0  0
  6  1  1  0  0  0
 14 12  1  0  0  0
 25 19  1  0  0  0
  8 11  1  0  0  0
 17 18  1  0  0  0
M  END
> <minimizedAffinity>
-9.32227

> <CNNscore>
0.3935662806

> <CNNaffinity>
7.4642319679

> <CNN_VS>
2.9376699924

> <CNNaffinity_variance>
0.2761537135

$$$$
[H]C1=C([H])C([H])(F)C([H])([H])C([H])=C1N([H])C(=O)C1(C(=O)N([H])c2c([H])c([H])c(Oc3c([H])c([H])nc4c([H])c(OC([H])([H])C([H])([H])C([H])([H])N5C([H])([H])C([H])([H])C([H])([H])C5([H])[H])c(OC([H])([H])[H])c([H])c34)c(F)c2[H])C([H])([H])C1([H])[H]


 47 52  0  0  0  0  0  0  0  0999 V2000
  -86.4679   28.6823    1.3456 C   0  0  0  0  0  0  0  0  0  0  0  0
  -87.6952   28.7815    0.7048 C   0  0  0  0  0  0  0  0  0  0  0  0
  -88.3605   27.6598    0.2828 C   0  0  0  0  0  0  0  0  0  0  0  0
  -87.8592   26.3606    0.4647 C   0  0  0  0  0  0  0  0  0  0  0  0
  -86.6500   26.2646    1.0954 C   0  0  0  0  0  0  0  0  0  0  0  0
  -85.9697   27.4188    1.5280 C   0  0  0  0  0  0  0  0  0  0  0  0
  -84.7832   27.2288    2.1593 F   0  0  0  0  0  0  0  0  0  0  0  0
  -88.6106   25.2521   -0.0306 N   0  0  0  0  0  0  0  0  0  0  0  0
  -89.6022   24.5379    0.6301 C   0  0  0  0  0  0  0  0  0  0  0  0
  -89.8711   24.9011    1.8313 O   0  0  0  0  0  0  0  0  0  0  0  0
  -88.2839   24.9507   -1.0114 H   0  0  0  0  0  0  0  0  0  0  0  0
  -90.3595   23.4107    0.1014 C   0  0  0  0  0  0  0  0  0  0  0  0
  -90.4130   22.1626    0.9782 C   0  0  0  0  0  0  0  0  0  0  0  0
  -89.4714   22.1823   -0.1615 C   0  0  0  0  0  0  0  0  0  0  0  0
  -91.5019   23.5819   -0.8325 C   0  0  0  0  0  0  0  0  0  0  0  0
  -92.6286   23.2269   -0.3034 O   0  0  0  0  0  0  0  0  0  0  0  0
  -91.4020   24.0692   -2.1158 N   0  0  0  0  0  0  0  0  0  0  0  0
  -90.4421   24.4265   -2.4128 H   0  0  0  0  0  0  0  0  0  0  0  0
  -92.4180   24.2564   -3.1168 C   0  0  0  0  0  0  0  0  0  0  0  0
  -92.6451   25.4009   -3.7072 C   0  0  0  0  0  0  0  0  0  0  0  0
  -93.6848   25.6006   -4.7347 C   0  0  0  0  0  0  0  0  0  0  0  0
  -94.5109   24.4340   -5.0873 C   0  0  0  0  0  0  0  0  0  0  0  0
  -95.8546   24.7563   -4.8154 F   0  0  0  0  0  0  0  0  0  0  0  0
  -94.1966   23.2001   -4.3883 C   0  0  0  0  0  0  0  0  0  0  0  0
  -93.2574   23.1055   -3.4990 C   0  0  0  0  0  0  0  0  0  0  0  0
  -85.7835   29.7951    1.7800 O   0  0  0  0  0  0  0  0  0  0  0  0
  -87.0860   32.7095   -0.7827 C   0  0  0  0  0  0  0  0  0  0  0  0
  -86.6188   31.7383    0.0682 C   0  0  0  0  0  0  0  0  0  0  0  0
  -85.2797   31.5007    0.2530 C   0  0  0  0  0  0  0  0  0  0  0  0
  -84.8309   30.5097    1.1260 C   0  0  0  0  0  0  0  0  0  0  0  0
  -83.4682   30.3709    1.2255 C   0  0  0  0  0  0  0  0  0  0  0  0
  -82.6012   31.1587    0.5110 C   0  0  0  0  0  0  0  0  0  0  0  0
  -83.0780   32.0858   -0.3044 N   0  0  0  0  0  0  0  0  0  0  0  0
  -84.4116   32.2939   -0.4665 C   0  0  0  0  0  0  0  0  0  0  0  0
  -84.8491   33.2771   -1.3292 C   0  0  0  0  0  0  0  0  0  0  0  0
  -86.1964   33.4763   -1.4796 C   0  0  0  0  0  0  0  0  0  0  0  0
  -89.4064   31.8946   -0.8193 C   0  0  0  0  0  0  0  0  0  0  0  0
  -88.4554   32.9187   -0.9411 O   0  0  0  0  0  0  0  0  0  0  0  0
  -86.5957   34.4752   -2.3566 O   0  0  0  0  0  0  0  0  0  0  0  0
  -87.0656   34.2478   -3.6479 C   0  0  0  0  0  0  0  0  0  0  0  0
  -87.9187   35.4147   -4.0734 C   0  0  0  0  0  0  0  0  0  0  0  0
  -87.1355   36.4243   -4.8627 C   0  0  0  0  0  0  0  0  0  0  0  0
  -87.4297   37.7534   -4.4308 N   0  0  0  0  0  0  0  0  0  0  0  0
  -88.1435   37.8562   -3.1997 C   0  0  0  0  0  0  0  0  0  0  0  0
  -87.6122   39.0985   -2.4785 C   0  0  0  0  0  0  0  0  0  0  0  0
  -86.9256   39.8302   -3.6169 C   0  0  0  0  0  0  0  0  0  0  0  0
  -86.3134   38.6468   -4.3804 C   0  0  0  0  0  0  0  0  0  0  0  0
 37 38  1  0  0  0
 38 27  1  0  0  0
 27 28  2  0  0  0
 28 29  1  0  0  0
 29 30  2  0  0  0
 30 26  1  0  0  0
 26  1  1  0  0  0
  1  2  2  0  0  0
  2  3  1  0  0  0
  3  4  2  0  0  0
  4  8  1  0  0  0
  8  9  1  0  0  0
  9 10  2  0  0  0
  9 12  1  0  0  0
 12 13  1  0  0  0
 13 14  1  0  0  0
 12 15  1  0  0  0
 15 16  2  0  0  0
 15 17  1  0  0  0
 17 19  1  0  0  0
 19 20  2  0  0  0
 20 21  1  0  0  0
 21 22  1  0  0  0
 22 23  1  0  0  0
 22 24  1  0  0  0
 24 25  2  0  0  0
  4  5  1  0  0  0
  5  6  2  0  0  0
  6  7  1  0  0  0
 30 31  1  0  0  0
 31 32  2  0  0  0
 32 33  1  0  0  0
 33 34  2  0  0  0
 34 35  1  0  0  0
 35 36  2  0  0  0
 36 39  1  0  0  0
 39 40  1  0  0  0
 40 41  1  0  0  0
 41 42  1  0  0  0
 42 43  1  0  0  0
 43 44  1  0  0  0
 44 45  1  0  0  0
 45 46  1  0  0  0
 46 47  1  0  0  0
 36 27  1  0  0  0
 47 43  1  0  0  0
 34 29  1  0  0  0
  6  1  1  0  0  0
 14 12  1  0  0  0
 25 19  1  0  0  0
  8 11  1  0  0  0
 17 18  1  0  0  0
M  END
> <minimizedAffinity>
-8.87587

> <CNNscore>
0.3689259291

> <CNNaffinity>
7.2231483459

> <CNN_VS>
2.6648066044

> <CNNaffinity_variance>
0.1787155569

$$$$
[H]C1=C([H])C([H])(F)C([H])([H])C([H])=C1N([H])C(=O)C1(C(=O)N([H])c2c([H])c([H])c(Oc3c([H])c([H])nc4c([H])c(OC([H])([H])C([H])([H])C([H])([H])N5C([H])([H])C([H])([H])C([H])([H])C5([H])[H])c(OC([H])([H])[H])c([H])c34)c(F)c2[H])C([H])([H])C1([H])[H]


 47 52  0  0  0  0  0  0  0  0999 V2000
  -86.5263   28.8036    1.0957 C   0  0  0  0  0  0  0  0  0  0  0  0
  -86.5423   28.4955   -0.2577 C   0  0  0  0  0  0  0  0  0  0  0  0
  -87.4300   27.5797   -0.7596 C   0  0  0  0  0  0  0  0  0  0  0  0
  -88.3648   26.9036    0.0413 C   0  0  0  0  0  0  0  0  0  0  0  0
  -88.3474   27.2077    1.3741 C   0  0  0  0  0  0  0  0  0  0  0  0
  -87.4347   28.1494    1.8862 C   0  0  0  0  0  0  0  0  0  0  0  0
  -87.4989   28.4015    3.2183 F   0  0  0  0  0  0  0  0  0  0  0  0
  -89.2340   25.9470   -0.5654 N   0  0  0  0  0  0  0  0  0  0  0  0
  -90.4843   26.1746   -1.1266 C   0  0  0  0  0  0  0  0  0  0  0  0
  -90.9232   27.3799   -1.0870 O   0  0  0  0  0  0  0  0  0  0  0  0
  -88.8414   24.9467   -0.4974 H   0  0  0  0  0  0  0  0  0  0  0  0
  -91.3527   25.1811   -1.7448 C   0  0  0  0  0  0  0  0  0  0  0  0
  -91.8464   25.4989   -3.1536 C   0  0  0  0  0  0  0  0  0  0  0  0
  -92.7645   25.7281   -2.0176 C   0  0  0  0  0  0  0  0  0  0  0  0
  -91.2844   23.7366   -1.4052 C   0  0  0  0  0  0  0  0  0  0  0  0
  -90.9063   23.0116   -2.4086 O   0  0  0  0  0  0  0  0  0  0  0  0
  -91.5755   23.2049   -0.1695 N   0  0  0  0  0  0  0  0  0  0  0  0
  -91.7773   23.9035    0.6104 H   0  0  0  0  0  0  0  0  0  0  0  0
  -91.5723   21.8363    0.2736 C   0  0  0  0  0  0  0  0  0  0  0  0
  -90.6331   21.3253    1.0264 C   0  0  0  0  0  0  0  0  0  0  0  0
  -90.6230   19.9231    1.4850 C   0  0  0  0  0  0  0  0  0  0  0  0
  -91.7363   19.0662    1.0445 C   0  0  0  0  0  0  0  0  0  0  0  0
  -91.1929   17.9893    0.3176 F   0  0  0  0  0  0  0  0  0  0  0  0
  -92.7387   19.7075    0.2116 C   0  0  0  0  0  0  0  0  0  0  0  0
  -92.6778   20.9535   -0.1432 C   0  0  0  0  0  0  0  0  0  0  0  0
  -85.6454   29.7220    1.6211 O   0  0  0  0  0  0  0  0  0  0  0  0
  -87.2823   32.6175   -0.7652 C   0  0  0  0  0  0  0  0  0  0  0  0
  -86.7039   31.6555    0.0256 C   0  0  0  0  0  0  0  0  0  0  0  0
  -85.3436   31.5208    0.1487 C   0  0  0  0  0  0  0  0  0  0  0  0
  -84.7810   30.5366    0.9615 C   0  0  0  0  0  0  0  0  0  0  0  0
  -83.4086   30.5057    1.0027 C   0  0  0  0  0  0  0  0  0  0  0  0
  -82.6379   31.3885    0.2890 C   0  0  0  0  0  0  0  0  0  0  0  0
  -83.2208   32.3045   -0.4679 N   0  0  0  0  0  0  0  0  0  0  0  0
  -84.5724   32.4094   -0.5697 C   0  0  0  0  0  0  0  0  0  0  0  0
  -85.1227   33.3862   -1.3730 C   0  0  0  0  0  0  0  0  0  0  0  0
  -86.4866   33.4807   -1.4630 C   0  0  0  0  0  0  0  0  0  0  0  0
  -89.5335   31.6308   -0.6773 C   0  0  0  0  0  0  0  0  0  0  0  0
  -88.6695   32.7204   -0.8619 O   0  0  0  0  0  0  0  0  0  0  0  0
  -87.0007   34.4769   -2.2813 O   0  0  0  0  0  0  0  0  0  0  0  0
  -87.1434   34.3659   -3.6623 C   0  0  0  0  0  0  0  0  0  0  0  0
  -87.1062   35.7430   -4.2729 C   0  0  0  0  0  0  0  0  0  0  0  0
  -88.0208   35.8560   -5.4588 C   0  0  0  0  0  0  0  0  0  0  0  0
  -88.8564   37.0095   -5.3543 N   0  0  0  0  0  0  0  0  0  0  0  0
  -89.4627   37.2161   -4.0794 C   0  0  0  0  0  0  0  0  0  0  0  0
  -89.5066   38.7293   -3.8465 C   0  0  0  0  0  0  0  0  0  0  0  0
  -89.2958   39.2515   -5.2555 C   0  0  0  0  0  0  0  0  0  0  0  0
  -88.2631   38.2411   -5.7762 C   0  0  0  0  0  0  0  0  0  0  0  0
 37 38  1  0  0  0
 38 27  1  0  0  0
 27 28  2  0  0  0
 28 29  1  0  0  0
 29 30  2  0  0  0
 30 26  1  0  0  0
 26  1  1  0  0  0
  1  2  2  0  0  0
  2  3  1  0  0  0
  3  4  2  0  0  0
  4  8  1  0  0  0
  8  9  1  0  0  0
  9 10  2  0  0  0
  9 12  1  0  0  0
 12 13  1  0  0  0
 13 14  1  0  0  0
 12 15  1  0  0  0
 15 16  2  0  0  0
 15 17  1  0  0  0
 17 19  1  0  0  0
 19 20  2  0  0  0
 20 21  1  0  0  0
 21 22  1  0  0  0
 22 23  1  0  0  0
 22 24  1  0  0  0
 24 25  2  0  0  0
  4  5  1  0  0  0
  5  6  2  0  0  0
  6  7  1  0  0  0
 30 31  1  0  0  0
 31 32  2  0  0  0
 32 33  1  0  0  0
 33 34  2  0  0  0
 34 35  1  0  0  0
 35 36  2  0  0  0
 36 39  1  0  0  0
 39 40  1  0  0  0
 40 41  1  0  0  0
 41 42  1  0  0  0
 42 43  1  0  0  0
 43 44  1  0  0  0
 44 45  1  0  0  0
 45 46  1  0  0  0
 46 47  1  0  0  0
 36 27  1  0  0  0
 47 43  1  0  0  0
 34 29  1  0  0  0
  6  1  1  0  0  0
 14 12  1  0  0  0
 25 19  1  0  0  0
  8 11  1  0  0  0
 17 18  1  0  0  0
M  END
> <minimizedAffinity>
-8.30664

> <CNNscore>
0.3213105500

> <CNNaffinity>
7.1519827843

> <CNN_VS>
2.2980074883

> <CNNaffinity_variance>
0.1623089015

$$$$
[H]C1=C([H])C([H])(F)C([H])([H])C([H])=C1N([H])C(=O)C1(C(=O)N([H])c2c([H])c([H])c(Oc3c([H])c([H])nc4c([H])c(OC([H])([H])C([H])([H])C([H])([H])N5C([H])([H])C([H])([H])C([H])([H])C5([H])[H])c(OC([H])([H])[H])c([H])c34)c(F)c2[H])C([H])([H])C1([H])[H]


 47 52  0  0  0  0  0  0  0  0999 V2000
  -86.3010   28.9343    0.9482 C   0  0  0  0  0  0  0  0  0  0  0  0
  -86.3397   28.6660   -0.4132 C   0  0  0  0  0  0  0  0  0  0  0  0
  -87.1561   27.6851   -0.9134 C   0  0  0  0  0  0  0  0  0  0  0  0
  -87.9920   26.9000   -0.1027 C   0  0  0  0  0  0  0  0  0  0  0  0
  -87.9523   27.1651    1.2379 C   0  0  0  0  0  0  0  0  0  0  0  0
  -87.1131   28.1737    1.7482 C   0  0  0  0  0  0  0  0  0  0  0  0
  -87.1497   28.3793    3.0894 F   0  0  0  0  0  0  0  0  0  0  0  0
  -88.7901   25.8835   -0.7096 N   0  0  0  0  0  0  0  0  0  0  0  0
  -90.1103   25.9817   -1.1309 C   0  0  0  0  0  0  0  0  0  0  0  0
  -90.6926   27.1100   -0.9442 O   0  0  0  0  0  0  0  0  0  0  0  0
  -88.2685   24.9432   -0.7671 H   0  0  0  0  0  0  0  0  0  0  0  0
  -90.9041   24.9296   -1.7526 C   0  0  0  0  0  0  0  0  0  0  0  0
  -90.9873   23.6084   -0.9930 C   0  0  0  0  0  0  0  0  0  0  0  0
  -90.0543   23.7057   -2.1358 C   0  0  0  0  0  0  0  0  0  0  0  0
  -92.0482   25.2180   -2.6550 C   0  0  0  0  0  0  0  0  0  0  0  0
  -93.1343   24.6221   -2.2800 O   0  0  0  0  0  0  0  0  0  0  0  0
  -91.9890   26.0303   -3.7646 N   0  0  0  0  0  0  0  0  0  0  0  0
  -91.0714   26.5506   -3.9215 H   0  0  0  0  0  0  0  0  0  0  0  0
  -93.0085   26.3647   -4.7227 C   0  0  0  0  0  0  0  0  0  0  0  0
  -93.5010   25.5078   -5.5790 C   0  0  0  0  0  0  0  0  0  0  0  0
  -94.5466   25.8430   -6.5642 C   0  0  0  0  0  0  0  0  0  0  0  0
  -95.0366   27.2315   -6.5749 C   0  0  0  0  0  0  0  0  0  0  0  0
  -94.7902   27.7681   -7.8534 F   0  0  0  0  0  0  0  0  0  0  0  0
  -94.4406   28.1215   -5.5938 C   0  0  0  0  0  0  0  0  0  0  0  0
  -93.5269   27.7451   -4.7538 C   0  0  0  0  0  0  0  0  0  0  0  0
  -85.4907   29.9163    1.4721 O   0  0  0  0  0  0  0  0  0  0  0  0
  -87.3197   32.7336   -0.8679 C   0  0  0  0  0  0  0  0  0  0  0  0
  -86.6776   31.7996   -0.0928 C   0  0  0  0  0  0  0  0  0  0  0  0
  -85.3105   31.7434    0.0147 C   0  0  0  0  0  0  0  0  0  0  0  0
  -84.6826   30.7861    0.8117 C   0  0  0  0  0  0  0  0  0  0  0  0
  -83.3104   30.8349    0.8382 C   0  0  0  0  0  0  0  0  0  0  0  0
  -82.6002   31.7679    0.1254 C   0  0  0  0  0  0  0  0  0  0  0  0
  -83.2438   32.6554   -0.6161 N   0  0  0  0  0  0  0  0  0  0  0  0
  -84.6003   32.6822   -0.7028 C   0  0  0  0  0  0  0  0  0  0  0  0
  -85.2153   33.6327   -1.4905 C   0  0  0  0  0  0  0  0  0  0  0  0
  -86.5834   33.6482   -1.5653 C   0  0  0  0  0  0  0  0  0  0  0  0
  -89.5322   31.8189   -0.3045 C   0  0  0  0  0  0  0  0  0  0  0  0
  -88.7115   32.7563   -0.9491 O   0  0  0  0  0  0  0  0  0  0  0  0
  -87.1635   34.6204   -2.3682 O   0  0  0  0  0  0  0  0  0  0  0  0
  -87.1328   34.6129   -3.7607 C   0  0  0  0  0  0  0  0  0  0  0  0
  -88.2066   33.6871   -4.2713 C   0  0  0  0  0  0  0  0  0  0  0  0
  -87.6499   32.3538   -4.6810 C   0  0  0  0  0  0  0  0  0  0  0  0
  -88.6189   31.3188   -4.5099 N   0  0  0  0  0  0  0  0  0  0  0  0
  -88.2276   30.2449   -3.6559 C   0  0  0  0  0  0  0  0  0  0  0  0
  -89.4813   29.7987   -2.8976 C   0  0  0  0  0  0  0  0  0  0  0  0
  -90.5764   30.4139   -3.7489 C   0  0  0  0  0  0  0  0  0  0  0  0
  -89.9239   31.7544   -4.1173 C   0  0  0  0  0  0  0  0  0  0  0  0
 37 38  1  0  0  0
 38 27  1  0  0  0
 27 28  2  0  0  0
 28 29  1  0  0  0
 29 30  2  0  0  0
 30 26  1  0  0  0
 26  1  1  0  0  0
  1  2  2  0  0  0
  2  3  1  0  0  0
  3  4  2  0  0  0
  4  8  1  0  0  0
  8  9  1  0  0  0
  9 10  2  0  0  0
  9 12  1  0  0  0
 12 13  1  0  0  0
 13 14  1  0  0  0
 12 15  1  0  0  0
 15 16  2  0  0  0
 15 17  1  0  0  0
 17 19  1  0  0  0
 19 20  2  0  0  0
 20 21  1  0  0  0
 21 22  1  0  0  0
 22 23  1  0  0  0
 22 24  1  0  0  0
 24 25  2  0  0  0
  4  5  1  0  0  0
  5  6  2  0  0  0
  6  7  1  0  0  0
 30 31  1  0  0  0
 31 32  2  0  0  0
 32 33  1  0  0  0
 33 34  2  0  0  0
 34 35  1  0  0  0
 35 36  2  0  0  0
 36 39  1  0  0  0
 39 40  1  0  0  0
 40 41  1  0  0  0
 41 42  1  0  0  0
 42 43  1  0  0  0
 43 44  1  0  0  0
 44 45  1  0  0  0
 45 46  1  0  0  0
 46 47  1  0  0  0
 36 27  1  0  0  0
 47 43  1  0  0  0
 34 29  1  0  0  0
  6  1  1  0  0  0
 14 12  1  0  0  0
 25 19  1  0  0  0
  8 11  1  0  0  0
 17 18  1  0  0  0
M  END
> <minimizedAffinity>
-8.57708

> <CNNscore>
0.1775840223

> <CNNaffinity>
7.1495475769

> <CNN_VS>
1.2696454525

> <CNNaffinity_variance>
0.7038848996

$$$$
[H]C1=C([H])C([H])(F)C([H])([H])C([H])=C1N([H])C(=O)C1(C(=O)N([H])c2c([H])c([H])c(Oc3c([H])c([H])nc4c([H])c(OC([H])([H])C([H])([H])C([H])([H])N5C([H])([H])C([H])([H])C([H])([H])C5([H])[H])c(OC([H])([H])[H])c([H])c34)c(F)c2[H])C([H])([H])C1([H])[H]


 47 52  0  0  0  0  0  0  0  0999 V2000
  -86.9319   31.8528   -0.3106 C   0  0  0  0  0  0  0  0  0  0  0  0
  -87.8395   31.8959   -1.3599 C   0  0  0  0  0  0  0  0  0  0  0  0
  -87.6638   32.7640   -2.4061 C   0  0  0  0  0  0  0  0  0  0  0  0
  -86.5781   33.6510   -2.4885 C   0  0  0  0  0  0  0  0  0  0  0  0
  -85.6854   33.6078   -1.4539 C   0  0  0  0  0  0  0  0  0  0  0  0
  -85.8686   32.7144   -0.3813 C   0  0  0  0  0  0  0  0  0  0  0  0
  -84.9248   32.7283    0.5941 F   0  0  0  0  0  0  0  0  0  0  0  0
  -86.4905   34.5374   -3.6044 N   0  0  0  0  0  0  0  0  0  0  0  0
  -87.2868   35.6440   -3.8718 C   0  0  0  0  0  0  0  0  0  0  0  0
  -88.2216   35.8985   -3.0301 O   0  0  0  0  0  0  0  0  0  0  0  0
  -85.7388   34.2243   -4.3089 H   0  0  0  0  0  0  0  0  0  0  0  0
  -87.1754   36.5377   -5.0174 C   0  0  0  0  0  0  0  0  0  0  0  0
  -85.8839   37.3443   -5.1215 C   0  0  0  0  0  0  0  0  0  0  0  0
  -87.0930   38.0159   -4.5991 C   0  0  0  0  0  0  0  0  0  0  0  0
  -87.8692   36.2782   -6.3049 C   0  0  0  0  0  0  0  0  0  0  0  0
  -87.0607   36.3077   -7.3153 O   0  0  0  0  0  0  0  0  0  0  0  0
  -89.2155   36.0232   -6.4351 N   0  0  0  0  0  0  0  0  0  0  0  0
  -89.7676   35.9217   -5.5284 H   0  0  0  0  0  0  0  0  0  0  0  0
  -90.0028   35.7846   -7.6152 C   0  0  0  0  0  0  0  0  0  0  0  0
  -90.5917   34.6451   -7.8698 C   0  0  0  0  0  0  0  0  0  0  0  0
  -91.4007   34.3929   -9.0774 C   0  0  0  0  0  0  0  0  0  0  0  0
  -91.5248   35.4972  -10.0433 C   0  0  0  0  0  0  0  0  0  0  0  0
  -91.0076   35.0547  -11.2762 F   0  0  0  0  0  0  0  0  0  0  0  0
  -90.8425   36.7294   -9.6884 C   0  0  0  0  0  0  0  0  0  0  0  0
  -90.1538   36.8731   -8.5988 C   0  0  0  0  0  0  0  0  0  0  0  0
  -87.0871   30.9873    0.7488 O   0  0  0  0  0  0  0  0  0  0  0  0
  -89.0270   27.4485    0.0618 C   0  0  0  0  0  0  0  0  0  0  0  0
  -88.3511   28.6191    0.3037 C   0  0  0  0  0  0  0  0  0  0  0  0
  -87.0646   28.6436    0.7812 C   0  0  0  0  0  0  0  0  0  0  0  0
  -86.3989   29.8468    1.0157 C   0  0  0  0  0  0  0  0  0  0  0  0
  -85.1150   29.7386    1.4911 C   0  0  0  0  0  0  0  0  0  0  0  0
  -84.5229   28.5223    1.7209 C   0  0  0  0  0  0  0  0  0  0  0  0
  -85.1976   27.4091    1.4820 N   0  0  0  0  0  0  0  0  0  0  0  0
  -86.4729   27.4198    1.0110 C   0  0  0  0  0  0  0  0  0  0  0  0
  -87.1248   26.2269    0.7787 C   0  0  0  0  0  0  0  0  0  0  0  0
  -88.4089   26.2545    0.3014 C   0  0  0  0  0  0  0  0  0  0  0  0
  -91.3117   28.3589    0.0426 C   0  0  0  0  0  0  0  0  0  0  0  0
  -90.3337   27.4681   -0.4241 O   0  0  0  0  0  0  0  0  0  0  0  0
  -89.0297   25.0329    0.0806 O   0  0  0  0  0  0  0  0  0  0  0  0
  -89.5931   24.6439   -1.1323 C   0  0  0  0  0  0  0  0  0  0  0  0
  -90.6656   23.6185   -0.8701 C   0  0  0  0  0  0  0  0  0  0  0  0
  -91.2325   23.7409    0.5153 C   0  0  0  0  0  0  0  0  0  0  0  0
  -91.1249   22.5060    1.2247 N   0  0  0  0  0  0  0  0  0  0  0  0
  -90.3308   21.5020    0.5946 C   0  0  0  0  0  0  0  0  0  0  0  0
  -89.6050   20.7428    1.7093 C   0  0  0  0  0  0  0  0  0  0  0  0
  -90.4257   21.1418    2.9217 C   0  0  0  0  0  0  0  0  0  0  0  0
  -90.7147   22.6134    2.5911 C   0  0  0  0  0  0  0  0  0  0  0  0
 37 38  1  0  0  0
 38 27  1  0  0  0
 27 28  2  0  0  0
 28 29  1  0  0  0
 29 30  2  0  0  0
 30 26  1  0  0  0
 26  1  1  0  0  0
  1  2  2  0  0  0
  2  3  1  0  0  0
  3  4  2  0  0  0
  4  8  1  0  0  0
  8  9  1  0  0  0
  9 10  2  0  0  0
  9 12  1  0  0  0
 12 13  1  0  0  0
 13 14  1  0  0  0
 12 15  1  0  0  0
 15 16  2  0  0  0
 15 17  1  0  0  0
 17 19  1  0  0  0
 19 20  2  0  0  0
 20 21  1  0  0  0
 21 22  1  0  0  0
 22 23  1  0  0  0
 22 24  1  0  0  0
 24 25  2  0  0  0
  4  5  1  0  0  0
  5  6  2  0  0  0
  6  7  1  0  0  0
 30 31  1  0  0  0
 31 32  2  0  0  0
 32 33  1  0  0  0
 33 34  2  0  0  0
 34 35  1  0  0  0
 35 36  2  0  0  0
 36 39  1  0  0  0
 39 40  1  0  0  0
 40 41  1  0  0  0
 41 42  1  0  0  0
 42 43  1  0  0  0
 43 44  1  0  0  0
 44 45  1  0  0  0
 45 46  1  0  0  0
 46 47  1  0  0  0
 36 27  1  0  0  0
 47 43  1  0  0  0
 34 29  1  0  0  0
  6  1  1  0  0  0
 14 12  1  0  0  0
 25 19  1  0  0  0
  8 11  1  0  0  0
 17 18  1  0  0  0
M  END
> <minimizedAffinity>
-8.38940

> <CNNscore>
0.1641850621

> <CNNaffinity>
6.7867417336

> <CNN_VS>
1.1142816544

> <CNNaffinity_variance>
0.1322332770

$$$$
[H]C1=C([H])C([H])(F)C([H])([H])C([H])=C1N([H])C(=O)C1(C(=O)N([H])c2c([H])c([H])c(Oc3c([H])c([H])nc4c([H])c(OC([H])([H])C([H])([H])C([H])([H])N5C([H])([H])C([H])([H])C([H])([H])C5([H])[H])c(OC([H])([H])[H])c([H])c34)c(F)c2[H])C([H])([H])C1([H])[H]


 47 52  0  0  0  0  0  0  0  0999 V2000
  -86.4394   28.7937    1.0240 C   0  0  0  0  0  0  0  0  0  0  0  0
  -86.4550   28.4773   -0.3275 C   0  0  0  0  0  0  0  0  0  0  0  0
  -87.3596   27.5773   -0.8282 C   0  0  0  0  0  0  0  0  0  0  0  0
  -88.3127   26.9266   -0.0279 C   0  0  0  0  0  0  0  0  0  0  0  0
  -88.2956   27.2389    1.3030 C   0  0  0  0  0  0  0  0  0  0  0  0
  -87.3656   28.1642    1.8138 C   0  0  0  0  0  0  0  0  0  0  0  0
  -87.4312   28.4262    3.1440 F   0  0  0  0  0  0  0  0  0  0  0  0
  -89.1991   25.9849   -0.6331 N   0  0  0  0  0  0  0  0  0  0  0  0
  -90.4375   26.2368   -1.2100 C   0  0  0  0  0  0  0  0  0  0  0  0
  -90.8467   27.4530   -1.1885 O   0  0  0  0  0  0  0  0  0  0  0  0
  -88.8322   24.9760   -0.5496 H   0  0  0  0  0  0  0  0  0  0  0  0
  -91.3239   25.2580   -1.8263 C   0  0  0  0  0  0  0  0  0  0  0  0
  -91.8102   25.5811   -3.2364 C   0  0  0  0  0  0  0  0  0  0  0  0
  -92.7249   25.8307   -2.1019 C   0  0  0  0  0  0  0  0  0  0  0  0
  -91.2829   23.8135   -1.4825 C   0  0  0  0  0  0  0  0  0  0  0  0
  -90.9194   23.0785   -2.4840 O   0  0  0  0  0  0  0  0  0  0  0  0
  -91.5835   23.2910   -0.2451 N   0  0  0  0  0  0  0  0  0  0  0  0
  -91.7714   23.9956    0.5329 H   0  0  0  0  0  0  0  0  0  0  0  0
  -91.6062   21.9240    0.2020 C   0  0  0  0  0  0  0  0  0  0  0  0
  -90.6848   21.4016    0.9689 C   0  0  0  0  0  0  0  0  0  0  0  0
  -90.7013   20.0009    1.4317 C   0  0  0  0  0  0  0  0  0  0  0  0
  -91.8209   19.1588    0.9785 C   0  0  0  0  0  0  0  0  0  0  0  0
  -91.2834   18.0720    0.2622 F   0  0  0  0  0  0  0  0  0  0  0  0
  -92.8025   19.8121    0.1303 C   0  0  0  0  0  0  0  0  0  0  0  0
  -92.7187   21.0560   -0.2273 C   0  0  0  0  0  0  0  0  0  0  0  0
  -85.5417   29.6965    1.5481 O   0  0  0  0  0  0  0  0  0  0  0  0
  -87.2841   32.6255   -0.7198 C   0  0  0  0  0  0  0  0  0  0  0  0
  -86.6707   31.6528    0.0308 C   0  0  0  0  0  0  0  0  0  0  0  0
  -85.3058   31.5351    0.1134 C   0  0  0  0  0  0  0  0  0  0  0  0
  -84.7073   30.5396    0.8858 C   0  0  0  0  0  0  0  0  0  0  0  0
  -83.3340   30.5277    0.8889 C   0  0  0  0  0  0  0  0  0  0  0  0
  -82.5956   31.4390    0.1767 C   0  0  0  0  0  0  0  0  0  0  0  0
  -83.2119   32.3647   -0.5409 N   0  0  0  0  0  0  0  0  0  0  0  0
  -84.5672   32.4523   -0.6033 C   0  0  0  0  0  0  0  0  0  0  0  0
  -85.1529   33.4404   -1.3667 C   0  0  0  0  0  0  0  0  0  0  0  0
  -86.5200   33.5170   -1.4172 C   0  0  0  0  0  0  0  0  0  0  0  0
  -89.5183   31.6060   -0.5851 C   0  0  0  0  0  0  0  0  0  0  0  0
  -88.6746   32.7104   -0.7761 O   0  0  0  0  0  0  0  0  0  0  0  0
  -87.0702   34.5254   -2.1961 O   0  0  0  0  0  0  0  0  0  0  0  0
  -87.2503   34.4459   -3.5749 C   0  0  0  0  0  0  0  0  0  0  0  0
  -88.7263   34.4235   -3.8777 C   0  0  0  0  0  0  0  0  0  0  0  0
  -89.0051   33.9559   -5.2774 C   0  0  0  0  0  0  0  0  0  0  0  0
  -90.1793   33.1443   -5.3228 N   0  0  0  0  0  0  0  0  0  0  0  0
  -90.1884   32.0256   -4.4375 C   0  0  0  0  0  0  0  0  0  0  0  0
  -91.6293   31.8571   -3.9464 C   0  0  0  0  0  0  0  0  0  0  0  0
  -92.3898   32.6715   -4.9764 C   0  0  0  0  0  0  0  0  0  0  0  0
  -91.4187   33.8440   -5.1776 C   0  0  0  0  0  0  0  0  0  0  0  0
 37 38  1  0  0  0
 38 27  1  0  0  0
 27 28  2  0  0  0
 28 29  1  0  0  0
 29 30  2  0  0  0
 30 26  1  0  0  0
 26  1  1  0  0  0
  1  2  2  0  0  0
  2  3  1  0  0  0
  3  4  2  0  0  0
  4  8  1  0  0  0
  8  9  1  0  0  0
  9 10  2  0  0  0
  9 12  1  0  0  0
 12 13  1  0  0  0
 13 14  1  0  0  0
 12 15  1  0  0  0
 15 16  2  0  0  0
 15 17  1  0  0  0
 17 19  1  0  0  0
 19 20  2  0  0  0
 20 21  1  0  0  0
 21 22  1  0  0  0
 22 23  1  0  0  0
 22 24  1  0  0  0
 24 25  2  0  0  0
  4  5  1  0  0  0
  5  6  2  0  0  0
  6  7  1  0  0  0
 30 31  1  0  0  0
 31 32  2  0  0  0
 32 33  1  0  0  0
 33 34  2  0  0  0
 34 35  1  0  0  0
 35 36  2  0  0  0
 36 39  1  0  0  0
 39 40  1  0  0  0
 40 41  1  0  0  0
 41 42  1  0  0  0
 42 43  1  0  0  0
 43 44  1  0  0  0
 44 45  1  0  0  0
 45 46  1  0  0  0
 46 47  1  0  0  0
 36 27  1  0  0  0
 47 43  1  0  0  0
 34 29  1  0  0  0
  6  1  1  0  0  0
 14 12  1  0  0  0
 25 19  1  0  0  0
  8 11  1  0  0  0
 17 18  1  0  0  0
M  END
> <minimizedAffinity>
-8.27876

> <CNNscore>
0.1615582556

> <CNNaffinity>
7.0987157822

> <CNN_VS>
1.1468561888

> <CNNaffinity_variance>
0.3623940349

$$$$
[H]C1=C([H])C([H])(F)C([H])([H])C([H])=C1N([H])C(=O)C1(C(=O)N([H])c2c([H])c([H])c(Oc3c([H])c([H])nc4c([H])c(OC([H])([H])C([H])([H])C([H])([H])N5C([H])([H])C([H])([H])C([H])([H])C5([H])[H])c(OC([H])([H])[H])c([H])c34)c(F)c2[H])C([H])([H])C1([H])[H]


 47 52  0  0  0  0  0  0  0  0999 V2000
  -86.3961   28.7553    1.3746 C   0  0  0  0  0  0  0  0  0  0  0  0
  -87.6182   28.8462    0.7226 C   0  0  0  0  0  0  0  0  0  0  0  0
  -88.2825   27.7189    0.3143 C   0  0  0  0  0  0  0  0  0  0  0  0
  -87.7854   26.4219    0.5218 C   0  0  0  0  0  0  0  0  0  0  0  0
  -86.5814   26.3342    1.1636 C   0  0  0  0  0  0  0  0  0  0  0  0
  -85.9021   27.4941    1.5821 C   0  0  0  0  0  0  0  0  0  0  0  0
  -84.7210   27.3123    2.2258 F   0  0  0  0  0  0  0  0  0  0  0  0
  -88.5352   25.3068    0.0392 N   0  0  0  0  0  0  0  0  0  0  0  0
  -89.6241   24.6923    0.6448 C   0  0  0  0  0  0  0  0  0  0  0  0
  -89.9978   25.1669    1.7771 O   0  0  0  0  0  0  0  0  0  0  0  0
  -88.1239   24.9100   -0.8734 H   0  0  0  0  0  0  0  0  0  0  0  0
  -90.3772   23.5559    0.1300 C   0  0  0  0  0  0  0  0  0  0  0  0
  -90.4895   22.3461    1.0537 C   0  0  0  0  0  0  0  0  0  0  0  0
  -89.4998   22.3042   -0.0439 C   0  0  0  0  0  0  0  0  0  0  0  0
  -91.4755   23.7058   -0.8588 C   0  0  0  0  0  0  0  0  0  0  0  0
  -92.5818   23.1711   -0.4516 O   0  0  0  0  0  0  0  0  0  0  0  0
  -91.3589   24.3442   -2.0726 N   0  0  0  0  0  0  0  0  0  0  0  0
  -90.4318   24.8362   -2.2611 H   0  0  0  0  0  0  0  0  0  0  0  0
  -92.3299   24.5314   -3.1173 C   0  0  0  0  0  0  0  0  0  0  0  0
  -93.1242   23.5828   -3.5406 C   0  0  0  0  0  0  0  0  0  0  0  0
  -94.1225   23.7671   -4.6111 C   0  0  0  0  0  0  0  0  0  0  0  0
  -94.1994   25.0994   -5.2332 C   0  0  0  0  0  0  0  0  0  0  0  0
  -93.9359   24.9512   -6.6087 F   0  0  0  0  0  0  0  0  0  0  0  0
  -93.2850   26.0981   -4.7076 C   0  0  0  0  0  0  0  0  0  0  0  0
  -92.4382   25.8566   -3.7554 C   0  0  0  0  0  0  0  0  0  0  0  0
  -85.7128   29.8739    1.7957 O   0  0  0  0  0  0  0  0  0  0  0  0
  -87.2832   32.6644   -0.7548 C   0  0  0  0  0  0  0  0  0  0  0  0
  -86.7269   31.7365    0.0908 C   0  0  0  0  0  0  0  0  0  0  0  0
  -85.3700   31.5850    0.2307 C   0  0  0  0  0  0  0  0  0  0  0  0
  -84.8300   30.6365    1.0994 C   0  0  0  0  0  0  0  0  0  0  0  0
  -83.4587   30.5839    1.1519 C   0  0  0  0  0  0  0  0  0  0  0  0
  -82.6680   31.4134    0.3972 C   0  0  0  0  0  0  0  0  0  0  0  0
  -83.2298   32.2972   -0.4120 N   0  0  0  0  0  0  0  0  0  0  0  0
  -84.5787   32.4199   -0.5290 C   0  0  0  0  0  0  0  0  0  0  0  0
  -85.1065   33.3614   -1.3877 C   0  0  0  0  0  0  0  0  0  0  0  0
  -86.4680   33.4746   -1.4924 C   0  0  0  0  0  0  0  0  0  0  0  0
  -89.5655   31.8569   -0.3203 C   0  0  0  0  0  0  0  0  0  0  0  0
  -88.6677   32.7860   -0.8669 O   0  0  0  0  0  0  0  0  0  0  0  0
  -86.9592   34.4340   -2.3669 O   0  0  0  0  0  0  0  0  0  0  0  0
  -87.0072   34.2868   -3.7511 C   0  0  0  0  0  0  0  0  0  0  0  0
  -88.0976   33.3086   -4.1042 C   0  0  0  0  0  0  0  0  0  0  0  0
  -87.5429   31.9792   -4.5292 C   0  0  0  0  0  0  0  0  0  0  0  0
  -88.5040   30.9392   -4.3436 N   0  0  0  0  0  0  0  0  0  0  0  0
  -88.1259   29.9076   -3.4335 C   0  0  0  0  0  0  0  0  0  0  0  0
  -89.3966   29.4767   -2.6949 C   0  0  0  0  0  0  0  0  0  0  0  0
  -90.4726   30.0408   -3.6040 C   0  0  0  0  0  0  0  0  0  0  0  0
  -89.8255   31.3733   -4.0090 C   0  0  0  0  0  0  0  0  0  0  0  0
 37 38  1  0  0  0
 38 27  1  0  0  0
 27 28  2  0  0  0
 28 29  1  0  0  0
 29 30  2  0  0  0
 30 26  1  0  0  0
 26  1  1  0  0  0
  1  2  2  0  0  0
  2  3  1  0  0  0
  3  4  2  0  0  0
  4  8  1  0  0  0
  8  9  1  0  0  0
  9 10  2  0  0  0
  9 12  1  0  0  0
 12 13  1  0  0  0
 13 14  1  0  0  0
 12 15  1  0  0  0
 15 16  2  0  0  0
 15 17  1  0  0  0
 17 19  1  0  0  0
 19 20  2  0  0  0
 20 21  1  0  0  0
 21 22  1  0  0  0
 22 23  1  0  0  0
 22 24  1  0  0  0
 24 25  2  0  0  0
  4  5  1  0  0  0
  5  6  2  0  0  0
  6  7  1  0  0  0
 30 31  1  0  0  0
 31 32  2  0  0  0
 32 33  1  0  0  0
 33 34  2  0  0  0
 34 35  1  0  0  0
 35 36  2  0  0  0
 36 39  1  0  0  0
 39 40  1  0  0  0
 40 41  1  0  0  0
 41 42  1  0  0  0
 42 43  1  0  0  0
 43 44  1  0  0  0
 44 45  1  0  0  0
 45 46  1  0  0  0
 46 47  1  0  0  0
 36 27  1  0  0  0
 47 43  1  0  0  0
 34 29  1  0  0  0
  6  1  1  0  0  0
 14 12  1  0  0  0
 25 19  1  0  0  0
  8 11  1  0  0  0
 17 18  1  0  0  0
M  END
> <minimizedAffinity>
-9.14013

> <CNNscore>
0.1425451040

> <CNNaffinity>
7.2013254166

> <CNN_VS>
1.0265136957

> <CNNaffinity_variance>
0.5616254210

$$$$
[H]C1=C([H])C([H])(F)C([H])([H])C([H])=C1N([H])C(=O)C1(C(=O)N([H])c2c([H])c([H])c(Oc3c([H])c([H])nc4c([H])c(OC([H])([H])C([H])([H])C([H])([H])N5C([H])([H])C([H])([H])C([H])(C([H])([H])[H])C([H])([H])C5([H])[H])c(OC([H])([H])[H])c([H])c34)c(F)c2[H])C([H])([H])C1([H])[H]


 49 54  0  0  0  0  0  0  0  0999 V2000
  -86.3086   28.9331    1.3237 C   0  0  0  0  0  0  0  0  0  0  0  0
  -87.3932   28.9822    0.4750 C   0  0  0  0  0  0  0  0  0  0  0  0
  -87.9367   27.8554   -0.0572 C   0  0  0  0  0  0  0  0  0  0  0  0
  -87.4453   26.5515    0.2076 C   0  0  0  0  0  0  0  0  0  0  0  0
  -86.3700   26.5202    1.0487 C   0  0  0  0  0  0  0  0  0  0  0  0
  -85.8088   27.6849    1.5985 C   0  0  0  0  0  0  0  0  0  0  0  0
  -84.7105   27.5424    2.4146 F   0  0  0  0  0  0  0  0  0  0  0  0
  -88.0874   25.4593   -0.3942 N   0  0  0  0  0  0  0  0  0  0  0  0
  -89.2048   24.7966    0.0759 C   0  0  0  0  0  0  0  0  0  0  0  0
  -89.7608   25.1820    1.1720 O   0  0  0  0  0  0  0  0  0  0  0  0
  -87.6763   25.1158   -1.3124 H   0  0  0  0  0  0  0  0  0  0  0  0
  -89.9068   23.6355   -0.5318 C   0  0  0  0  0  0  0  0  0  0  0  0
  -91.2135   23.9092   -1.2565 C   0  0  0  0  0  0  0  0  0  0  0  0
  -89.9498   23.6578   -2.0303 C   0  0  0  0  0  0  0  0  0  0  0  0
  -89.8848   22.3357    0.1491 C   0  0  0  0  0  0  0  0  0  0  0  0
  -89.2439   21.3733   -0.2756 O   0  0  0  0  0  0  0  0  0  0  0  0
  -90.6218   22.1125    1.3681 N   0  0  0  0  0  0  0  0  0  0  0  0
  -91.1824   22.8596    1.8147 H   0  0  0  0  0  0  0  0  0  0  0  0
  -90.6058   20.8500    2.0156 C   0  0  0  0  0  0  0  0  0  0  0  0
  -91.5198   19.9705    1.6867 C   0  0  0  0  0  0  0  0  0  0  0  0
  -91.5951   18.6376    2.2962 C   0  0  0  0  0  0  0  0  0  0  0  0
  -90.5172   18.3032    3.2660 C   0  0  0  0  0  0  0  0  0  0  0  0
  -89.8233   17.2049    2.7173 F   0  0  0  0  0  0  0  0  0  0  0  0
  -89.5655   19.3723    3.5462 C   0  0  0  0  0  0  0  0  0  0  0  0
  -89.5903   20.5370    2.9857 C   0  0  0  0  0  0  0  0  0  0  0  0
  -85.7633   30.0869    1.8577 O   0  0  0  0  0  0  0  0  0  0  0  0
  -87.1498   32.8582   -0.8352 C   0  0  0  0  0  0  0  0  0  0  0  0
  -86.6824   31.9166    0.0824 C   0  0  0  0  0  0  0  0  0  0  0  0
  -85.3220   31.7576    0.2291 C   0  0  0  0  0  0  0  0  0  0  0  0
  -84.8328   30.8122    1.1485 C   0  0  0  0  0  0  0  0  0  0  0  0
  -83.4823   30.6618    1.2864 C   0  0  0  0  0  0  0  0  0  0  0  0
  -82.6250   31.4378    0.5222 C   0  0  0  0  0  0  0  0  0  0  0  0
  -83.0854   32.3344   -0.3504 N   0  0  0  0  0  0  0  0  0  0  0  0
  -84.4020   32.4927   -0.4954 C   0  0  0  0  0  0  0  0  0  0  0  0
  -84.9380   33.4126   -1.3912 C   0  0  0  0  0  0  0  0  0  0  0  0
  -86.2780   33.6169   -1.5821 C   0  0  0  0  0  0  0  0  0  0  0  0
  -89.2954   31.9833   -1.5137 C   0  0  0  0  0  0  0  0  0  0  0  0
  -88.5151   33.0060   -0.9713 O   0  0  0  0  0  0  0  0  0  0  0  0
  -86.7063   34.5584   -2.4993 O   0  0  0  0  0  0  0  0  0  0  0  0
  -87.1356   34.2605   -3.7881 C   0  0  0  0  0  0  0  0  0  0  0  0
  -88.3911   35.0327   -4.1016 C   0  0  0  0  0  0  0  0  0  0  0  0
  -88.3883   35.6036   -5.5141 C   0  0  0  0  0  0  0  0  0  0  0  0
  -89.5827   35.2252   -6.1411 N   0  0  0  0  0  0  0  0  0  0  0  0
  -90.1545   33.9691   -5.9190 C   0  0  0  0  0  0  0  0  0  0  0  0
  -91.4111   33.8559   -6.7785 C   0  0  0  0  0  0  0  0  0  0  0  0
  -91.0844   34.2575   -8.1965 C   0  0  0  0  0  0  0  0  0  0  0  0
  -92.2689   34.0612   -9.1186 C   0  0  0  0  0  0  0  0  0  0  0  0
  -90.5616   35.6757   -8.2503 C   0  0  0  0  0  0  0  0  0  0  0  0
  -90.3598   36.1883   -6.8162 C   0  0  0  0  0  0  0  0  0  0  0  0
 37 38  1  0  0  0
 38 27  1  0  0  0
 27 28  2  0  0  0
 28 29  1  0  0  0
 29 30  2  0  0  0
 30 26  1  0  0  0
 26  1  1  0  0  0
  1  2  2  0  0  0
  2  3  1  0  0  0
  3  4  2  0  0  0
  4  8  1  0  0  0
  8  9  1  0  0  0
  9 10  2  0  0  0
  9 12  1  0  0  0
 12 13  1  0  0  0
 13 14  1  0  0  0
 12 15  1  0  0  0
 15 16  2  0  0  0
 15 17  1  0  0  0
 17 19  1  0  0  0
 19 20  2  0  0  0
 20 21  1  0  0  0
 21 22  1  0  0  0
 22 23  1  0  0  0
 22 24  1  0  0  0
 24 25  2  0  0  0
  4  5  1  0  0  0
  5  6  2  0  0  0
  6  7  1  0  0  0
 30 31  1  0  0  0
 31 32  2  0  0  0
 32 33  1  0  0  0
 33 34  2  0  0  0
 34 35  1  0  0  0
 35 36  2  0  0  0
 36 39  1  0  0  0
 39 40  1  0  0  0
 40 41  1  0  0  0
 41 42  1  0  0  0
 42 43  1  0  0  0
 43 44  1  0  0  0
 44 45  1  0  0  0
 45 46  1  0  0  0
 46 47  1  0  0  0
 46 48  1  0  0  0
 48 49  1  0  0  0
 36 27  1  0  0  0
 49 43  1  0  0  0
 34 29  1  0  0  0
  6  1  1  0  0  0
 14 12  1  0  0  0
 25 19  1  0  0  0
  8 11  1  0  0  0
 17 18  1  0  0  0
M  END
> <minimizedAffinity>
-9.76161

> <CNNscore>
0.5891167521

> <CNNaffinity>
7.5147080421

> <CNN_VS>
4.4270405769

> <CNNaffinity_variance>
0.1264536083

$$$$
[H]C1=C([H])C([H])(F)C([H])([H])C([H])=C1N([H])C(=O)C1(C(=O)N([H])c2c([H])c([H])c(Oc3c([H])c([H])nc4c([H])c(OC([H])([H])C([H])([H])C([H])([H])N5C([H])([H])C([H])([H])C([H])(C([H])([H])[H])C([H])([H])C5([H])[H])c(OC([H])([H])[H])c([H])c34)c(F)c2[H])C([H])([H])C1([H])[H]


 49 54  0  0  0  0  0  0  0  0999 V2000
  -86.2163   28.8668    1.4379 C   0  0  0  0  0  0  0  0  0  0  0  0
  -87.3232   28.9461    0.6210 C   0  0  0  0  0  0  0  0  0  0  0  0
  -87.9013   27.8360    0.0899 C   0  0  0  0  0  0  0  0  0  0  0  0
  -87.4258   26.5204    0.3238 C   0  0  0  0  0  0  0  0  0  0  0  0
  -86.3281   26.4592    1.1336 C   0  0  0  0  0  0  0  0  0  0  0  0
  -85.7311   27.6065    1.6823 C   0  0  0  0  0  0  0  0  0  0  0  0
  -84.6130   27.4341    2.4650 F   0  0  0  0  0  0  0  0  0  0  0  0
  -88.1039   25.4477   -0.2736 N   0  0  0  0  0  0  0  0  0  0  0  0
  -89.1977   24.7753    0.2363 C   0  0  0  0  0  0  0  0  0  0  0  0
  -89.6931   25.1310    1.3708 O   0  0  0  0  0  0  0  0  0  0  0  0
  -87.7436   25.1292   -1.2216 H   0  0  0  0  0  0  0  0  0  0  0  0
  -89.9361   23.6340   -0.3658 C   0  0  0  0  0  0  0  0  0  0  0  0
  -91.2402   23.9438   -1.0809 C   0  0  0  0  0  0  0  0  0  0  0  0
  -89.9897   23.6573   -1.8640 C   0  0  0  0  0  0  0  0  0  0  0  0
  -89.9452   22.3341    0.3154 C   0  0  0  0  0  0  0  0  0  0  0  0
  -89.5472   21.2993   -0.2214 O   0  0  0  0  0  0  0  0  0  0  0  0
  -90.4264   22.1968    1.6675 N   0  0  0  0  0  0  0  0  0  0  0  0
  -90.7713   23.0071    2.2120 H   0  0  0  0  0  0  0  0  0  0  0  0
  -90.4434   20.9352    2.3167 C   0  0  0  0  0  0  0  0  0  0  0  0
  -91.4365   20.1186    2.0639 C   0  0  0  0  0  0  0  0  0  0  0  0
  -91.5519   18.7929    2.6826 C   0  0  0  0  0  0  0  0  0  0  0  0
  -90.4258   18.3865    3.5664 C   0  0  0  0  0  0  0  0  0  0  0  0
  -89.8513   17.2454    2.9693 F   0  0  0  0  0  0  0  0  0  0  0  0
  -89.3863   19.3898    3.7669 C   0  0  0  0  0  0  0  0  0  0  0  0
  -89.3778   20.5543    3.2055 C   0  0  0  0  0  0  0  0  0  0  0  0
  -85.6358   30.0037    1.9711 O   0  0  0  0  0  0  0  0  0  0  0  0
  -87.0366   32.8096   -0.6783 C   0  0  0  0  0  0  0  0  0  0  0  0
  -86.5642   31.8562    0.2246 C   0  0  0  0  0  0  0  0  0  0  0  0
  -85.2036   31.6771    0.3429 C   0  0  0  0  0  0  0  0  0  0  0  0
  -84.7095   30.7196    1.2470 C   0  0  0  0  0  0  0  0  0  0  0  0
  -83.3588   30.5492    1.3567 C   0  0  0  0  0  0  0  0  0  0  0  0
  -82.5061   31.3172    0.5794 C   0  0  0  0  0  0  0  0  0  0  0  0
  -82.9711   32.2252   -0.2789 N   0  0  0  0  0  0  0  0  0  0  0  0
  -84.2880   32.4030   -0.3963 C   0  0  0  0  0  0  0  0  0  0  0  0
  -84.8288   33.3355   -1.2762 C   0  0  0  0  0  0  0  0  0  0  0  0
  -86.1693   33.5599   -1.4387 C   0  0  0  0  0  0  0  0  0  0  0  0
  -89.1954   32.0120   -1.4082 C   0  0  0  0  0  0  0  0  0  0  0  0
  -88.4020   32.9776   -0.7859 O   0  0  0  0  0  0  0  0  0  0  0  0
  -86.6024   34.5126   -2.3420 O   0  0  0  0  0  0  0  0  0  0  0  0
  -87.1187   34.2238   -3.6006 C   0  0  0  0  0  0  0  0  0  0  0  0
  -88.3112   35.1020   -3.8795 C   0  0  0  0  0  0  0  0  0  0  0  0
  -88.0552   36.5627   -3.5301 C   0  0  0  0  0  0  0  0  0  0  0  0
  -88.0225   37.2981   -4.7223 N   0  0  0  0  0  0  0  0  0  0  0  0
  -89.0794   38.1364   -5.0889 C   0  0  0  0  0  0  0  0  0  0  0  0
  -88.7553   38.7490   -6.4491 C   0  0  0  0  0  0  0  0  0  0  0  0
  -88.3395   37.6557   -7.4033 C   0  0  0  0  0  0  0  0  0  0  0  0
  -88.1097   38.1923   -8.8001 C   0  0  0  0  0  0  0  0  0  0  0  0
  -87.1288   36.9142   -6.8818 C   0  0  0  0  0  0  0  0  0  0  0  0
  -86.8230   37.3975   -5.4560 C   0  0  0  0  0  0  0  0  0  0  0  0
 37 38  1  0  0  0
 38 27  1  0  0  0
 27 28  2  0  0  0
 28 29  1  0  0  0
 29 30  2  0  0  0
 30 26  1  0  0  0
 26  1  1  0  0  0
  1  2  2  0  0  0
  2  3  1  0  0  0
  3  4  2  0  0  0
  4  8  1  0  0  0
  8  9  1  0  0  0
  9 10  2  0  0  0
  9 12  1  0  0  0
 12 13  1  0  0  0
 13 14  1  0  0  0
 12 15  1  0  0  0
 15 16  2  0  0  0
 15 17  1  0  0  0
 17 19  1  0  0  0
 19 20  2  0  0  0
 20 21  1  0  0  0
 21 22  1  0  0  0
 22 23  1  0  0  0
 22 24  1  0  0  0
 24 25  2  0  0  0
  4  5  1  0  0  0
  5  6  2  0  0  0
  6  7  1  0  0  0
 30 31  1  0  0  0
 31 32  2  0  0  0
 32 33  1  0  0  0
 33 34  2  0  0  0
 34 35  1  0  0  0
 35 36  2  0  0  0
 36 39  1  0  0  0
 39 40  1  0  0  0
 40 41  1  0  0  0
 41 42  1  0  0  0
 42 43  1  0  0  0
 43 44  1  0  0  0
 44 45  1  0  0  0
 45 46  1  0  0  0
 46 47  1  0  0  0
 46 48  1  0  0  0
 48 49  1  0  0  0
 36 27  1  0  0  0
 49 43  1  0  0  0
 34 29  1  0  0  0
  6  1  1  0  0  0
 14 12  1  0  0  0
 25 19  1  0  0  0
  8 11  1  0  0  0
 17 18  1  0  0  0
M  END
> <minimizedAffinity>
-9.63344

> <CNNscore>
0.5831298828

> <CNNaffinity>
7.4614229202

> <CNN_VS>
4.3509788513

> <CNNaffinity_variance>
0.1533589065

$$$$
[H]C1=C([H])C([H])(F)C([H])([H])C([H])=C1N([H])C(=O)C1(C(=O)N([H])c2c([H])c([H])c(Oc3c([H])c([H])nc4c([H])c(OC([H])([H])C([H])([H])C([H])([H])N5C([H])([H])C([H])([H])C([H])(C([H])([H])[H])C([H])([H])C5([H])[H])c(OC([H])([H])[H])c([H])c34)c(F)c2[H])C([H])([H])C1([H])[H]


 49 54  0  0  0  0  0  0  0  0999 V2000
  -86.3399   29.0319    1.2740 C   0  0  0  0  0  0  0  0  0  0  0  0
  -87.4118   29.0811    0.4095 C   0  0  0  0  0  0  0  0  0  0  0  0
  -87.9653   27.9525   -0.1087 C   0  0  0  0  0  0  0  0  0  0  0  0
  -87.4976   26.6467    0.1878 C   0  0  0  0  0  0  0  0  0  0  0  0
  -86.4346   26.6154    1.0442 C   0  0  0  0  0  0  0  0  0  0  0  0
  -85.8631   27.7818    1.5795 C   0  0  0  0  0  0  0  0  0  0  0  0
  -84.7784   27.6385    2.4135 F   0  0  0  0  0  0  0  0  0  0  0  0
  -88.1482   25.5530   -0.4021 N   0  0  0  0  0  0  0  0  0  0  0  0
  -89.2251   24.8571    0.1124 C   0  0  0  0  0  0  0  0  0  0  0  0
  -89.7299   25.2085    1.2441 O   0  0  0  0  0  0  0  0  0  0  0  0
  -87.7795   25.2367   -1.3476 H   0  0  0  0  0  0  0  0  0  0  0  0
  -89.9343   23.6932   -0.4816 C   0  0  0  0  0  0  0  0  0  0  0  0
  -91.2928   23.9490   -1.1115 C   0  0  0  0  0  0  0  0  0  0  0  0
  -90.0766   23.7548   -1.9729 C   0  0  0  0  0  0  0  0  0  0  0  0
  -89.8327   22.3766    0.1586 C   0  0  0  0  0  0  0  0  0  0  0  0
  -89.1328   21.4695   -0.2937 O   0  0  0  0  0  0  0  0  0  0  0  0
  -90.5562   22.0701    1.3675 N   0  0  0  0  0  0  0  0  0  0  0  0
  -91.1627   22.7667    1.8352 H   0  0  0  0  0  0  0  0  0  0  0  0
  -90.4629   20.7914    1.9754 C   0  0  0  0  0  0  0  0  0  0  0  0
  -89.7183   20.6644    3.0461 C   0  0  0  0  0  0  0  0  0  0  0  0
  -89.5510   19.3877    3.7503 C   0  0  0  0  0  0  0  0  0  0  0  0
  -90.3437   18.2442    3.2226 C   0  0  0  0  0  0  0  0  0  0  0  0
  -91.2160   17.8594    4.2618 F   0  0  0  0  0  0  0  0  0  0  0  0
  -91.1279   18.5190    2.0238 C   0  0  0  0  0  0  0  0  0  0  0  0
  -91.1945   19.6723    1.4436 C   0  0  0  0  0  0  0  0  0  0  0  0
  -85.7842   30.1875    1.7936 O   0  0  0  0  0  0  0  0  0  0  0  0
  -87.3210   32.9480   -0.8279 C   0  0  0  0  0  0  0  0  0  0  0  0
  -86.8024   32.0099    0.0656 C   0  0  0  0  0  0  0  0  0  0  0  0
  -85.4350   31.8709    0.1559 C   0  0  0  0  0  0  0  0  0  0  0  0
  -84.8945   30.9294    1.0502 C   0  0  0  0  0  0  0  0  0  0  0  0
  -83.5374   30.7988    1.1320 C   0  0  0  0  0  0  0  0  0  0  0  0
  -82.7237   31.5906    0.3369 C   0  0  0  0  0  0  0  0  0  0  0  0
  -83.2328   32.4836   -0.5121 N   0  0  0  0  0  0  0  0  0  0  0  0
  -84.5565   32.6225   -0.6024 C   0  0  0  0  0  0  0  0  0  0  0  0
  -85.1423   33.5378   -1.4714 C   0  0  0  0  0  0  0  0  0  0  0  0
  -86.4919   33.7225   -1.6064 C   0  0  0  0  0  0  0  0  0  0  0  0
  -89.5347   32.0787   -0.4115 C   0  0  0  0  0  0  0  0  0  0  0  0
  -88.6927   33.0757   -0.9075 O   0  0  0  0  0  0  0  0  0  0  0  0
  -86.9713   34.6611   -2.5011 O   0  0  0  0  0  0  0  0  0  0  0  0
  -86.9818   34.4960   -3.8819 C   0  0  0  0  0  0  0  0  0  0  0  0
  -87.5666   33.1523   -4.2332 C   0  0  0  0  0  0  0  0  0  0  0  0
  -89.0857   33.1872   -4.3430 C   0  0  0  0  0  0  0  0  0  0  0  0
  -89.5639   31.8769   -4.2107 N   0  0  0  0  0  0  0  0  0  0  0  0
  -90.9283   31.6123   -4.0601 C   0  0  0  0  0  0  0  0  0  0  0  0
  -91.1088   30.1052   -3.8965 C   0  0  0  0  0  0  0  0  0  0  0  0
  -90.1567   29.5997   -2.8399 C   0  0  0  0  0  0  0  0  0  0  0  0
  -90.3670   28.1272   -2.5583 C   0  0  0  0  0  0  0  0  0  0  0  0
  -88.7226   29.8988   -3.2162 C   0  0  0  0  0  0  0  0  0  0  0  0
  -88.7100   30.7858   -4.4704 C   0  0  0  0  0  0  0  0  0  0  0  0
 37 38  1  0  0  0
 38 27  1  0  0  0
 27 28  2  0  0  0
 28 29  1  0  0  0
 29 30  2  0  0  0
 30 26  1  0  0  0
 26  1  1  0  0  0
  1  2  2  0  0  0
  2  3  1  0  0  0
  3  4  2  0  0  0
  4  8  1  0  0  0
  8  9  1  0  0  0
  9 10  2  0  0  0
  9 12  1  0  0  0
 12 13  1  0  0  0
 13 14  1  0  0  0
 12 15  1  0  0  0
 15 16  2  0  0  0
 15 17  1  0  0  0
 17 19  1  0  0  0
 19 20  2  0  0  0
 20 21  1  0  0  0
 21 22  1  0  0  0
 22 23  1  0  0  0
 22 24  1  0  0  0
 24 25  2  0  0  0
  4  5  1  0  0  0
  5  6  2  0  0  0
  6  7  1  0  0  0
 30 31  1  0  0  0
 31 32  2  0  0  0
 32 33  1  0  0  0
 33 34  2  0  0  0
 34 35  1  0  0  0
 35 36  2  0  0  0
 36 39  1  0  0  0
 39 40  1  0  0  0
 40 41  1  0  0  0
 41 42  1  0  0  0
 42 43  1  0  0  0
 43 44  1  0  0  0
 44 45  1  0  0  0
 45 46  1  0  0  0
 46 47  1  0  0  0
 46 48  1  0  0  0
 48 49  1  0  0  0
 36 27  1  0  0  0
 49 43  1  0  0  0
 34 29  1  0  0  0
  6  1  1  0  0  0
 14 12  1  0  0  0
 25 19  1  0  0  0
  8 11  1  0  0  0
 17 18  1  0  0  0
M  END
> <minimizedAffinity>
-9.56935

> <CNNscore>
0.2811330855

> <CNNaffinity>
7.5810804367

> <CNN_VS>
2.1312925816

> <CNNaffinity_variance>
0.3610292673

$$$$
[H]C1=C([H])C([H])(F)C([H])([H])C([H])=C1N([H])C(=O)C1(C(=O)N([H])c2c([H])c([H])c(Oc3c([H])c([H])nc4c([H])c(OC([H])([H])C([H])([H])C([H])([H])N5C([H])([H])C([H])([H])C([H])(C([H])([H])[H])C([H])([H])C5([H])[H])c(OC([H])([H])[H])c([H])c34)c(F)c2[H])C([H])([H])C1([H])[H]


 49 54  0  0  0  0  0  0  0  0999 V2000
  -88.0346   30.9537   -2.5806 C   0  0  0  0  0  0  0  0  0  0  0  0
  -87.8554   31.2109   -3.9225 C   0  0  0  0  0  0  0  0  0  0  0  0
  -87.4820   32.4385   -4.3720 C   0  0  0  0  0  0  0  0  0  0  0  0
  -87.2480   33.5451   -3.5163 C   0  0  0  0  0  0  0  0  0  0  0  0
  -87.4313   33.2743   -2.1905 C   0  0  0  0  0  0  0  0  0  0  0  0
  -87.8170   32.0056   -1.7265 C   0  0  0  0  0  0  0  0  0  0  0  0
  -87.9984   31.8475   -0.3720 F   0  0  0  0  0  0  0  0  0  0  0  0
  -86.8627   34.7654   -4.0907 N   0  0  0  0  0  0  0  0  0  0  0  0
  -87.6857   35.6762   -4.7244 C   0  0  0  0  0  0  0  0  0  0  0  0
  -88.9474   35.4360   -4.8216 O   0  0  0  0  0  0  0  0  0  0  0  0
  -85.8325   35.0176   -4.0193 H   0  0  0  0  0  0  0  0  0  0  0  0
  -87.3115   36.9732   -5.3474 C   0  0  0  0  0  0  0  0  0  0  0  0
  -87.5756   38.2363   -4.5456 C   0  0  0  0  0  0  0  0  0  0  0  0
  -86.1831   37.6828   -4.6609 C   0  0  0  0  0  0  0  0  0  0  0  0
  -87.4804   37.1604   -6.7930 C   0  0  0  0  0  0  0  0  0  0  0  0
  -86.8558   36.5024   -7.6262 O   0  0  0  0  0  0  0  0  0  0  0  0
  -88.3990   38.1373   -7.3228 N   0  0  0  0  0  0  0  0  0  0  0  0
  -88.9809   38.7332   -6.7078 H   0  0  0  0  0  0  0  0  0  0  0  0
  -88.5494   38.3215   -8.7217 C   0  0  0  0  0  0  0  0  0  0  0  0
  -89.6389   37.8726   -9.2947 C   0  0  0  0  0  0  0  0  0  0  0  0
  -89.8932   38.0083  -10.7337 C   0  0  0  0  0  0  0  0  0  0  0  0
  -88.8695   38.7617  -11.5077 C   0  0  0  0  0  0  0  0  0  0  0  0
  -89.5291   39.8920  -12.0330 F   0  0  0  0  0  0  0  0  0  0  0  0
  -87.7037   39.2033  -10.7504 C   0  0  0  0  0  0  0  0  0  0  0  0
  -87.5421   39.0125   -9.4821 C   0  0  0  0  0  0  0  0  0  0  0  0
  -88.4164   29.7007   -2.1354 O   0  0  0  0  0  0  0  0  0  0  0  0
  -88.6752   28.0185    1.6006 C   0  0  0  0  0  0  0  0  0  0  0  0
  -88.5831   28.5917    0.3317 C   0  0  0  0  0  0  0  0  0  0  0  0
  -89.7459   28.9223   -0.3286 C   0  0  0  0  0  0  0  0  0  0  0  0
  -89.6723   29.4998   -1.6090 C   0  0  0  0  0  0  0  0  0  0  0  0
  -90.8310   29.8237   -2.2556 C   0  0  0  0  0  0  0  0  0  0  0  0
  -92.0495   29.5778   -1.6425 C   0  0  0  0  0  0  0  0  0  0  0  0
  -92.1228   29.0302   -0.4292 N   0  0  0  0  0  0  0  0  0  0  0  0
  -90.9994   28.7091    0.2146 C   0  0  0  0  0  0  0  0  0  0  0  0
  -91.0164   28.1348    1.4819 C   0  0  0  0  0  0  0  0  0  0  0  0
  -89.8973   27.7847    2.1882 C   0  0  0  0  0  0  0  0  0  0  0  0
  -86.7117   26.6291    1.8092 C   0  0  0  0  0  0  0  0  0  0  0  0
  -87.5019   27.6925    2.2495 O   0  0  0  0  0  0  0  0  0  0  0  0
  -90.0252   27.2192    3.4432 O   0  0  0  0  0  0  0  0  0  0  0  0
  -90.5291   25.9453    3.6826 C   0  0  0  0  0  0  0  0  0  0  0  0
  -90.0143   24.9860    2.6406 C   0  0  0  0  0  0  0  0  0  0  0  0
  -91.0198   23.8911    2.3073 C   0  0  0  0  0  0  0  0  0  0  0  0
  -90.9338   23.6215    0.9350 N   0  0  0  0  0  0  0  0  0  0  0  0
  -90.3335   24.5244    0.0527 C   0  0  0  0  0  0  0  0  0  0  0  0
  -90.4443   23.9585   -1.3609 C   0  0  0  0  0  0  0  0  0  0  0  0
  -91.8708   23.5387   -1.6206 C   0  0  0  0  0  0  0  0  0  0  0  0
  -92.0629   23.0689   -3.0469 C   0  0  0  0  0  0  0  0  0  0  0  0
  -92.3178   22.4945   -0.6219 C   0  0  0  0  0  0  0  0  0  0  0  0
  -91.2301   22.3313    0.4506 C   0  0  0  0  0  0  0  0  0  0  0  0
 37 38  1  0  0  0
 38 27  1  0  0  0
 27 28  2  0  0  0
 28 29  1  0  0  0
 29 30  2  0  0  0
 30 26  1  0  0  0
 26  1  1  0  0  0
  1  2  2  0  0  0
  2  3  1  0  0  0
  3  4  2  0  0  0
  4  8  1  0  0  0
  8  9  1  0  0  0
  9 10  2  0  0  0
  9 12  1  0  0  0
 12 13  1  0  0  0
 13 14  1  0  0  0
 12 15  1  0  0  0
 15 16  2  0  0  0
 15 17  1  0  0  0
 17 19  1  0  0  0
 19 20  2  0  0  0
 20 21  1  0  0  0
 21 22  1  0  0  0
 22 23  1  0  0  0
 22 24  1  0  0  0
 24 25  2  0  0  0
  4  5  1  0  0  0
  5  6  2  0  0  0
  6  7  1  0  0  0
 30 31  1  0  0  0
 31 32  2  0  0  0
 32 33  1  0  0  0
 33 34  2  0  0  0
 34 35  1  0  0  0
 35 36  2  0  0  0
 36 39  1  0  0  0
 39 40  1  0  0  0
 40 41  1  0  0  0
 41 42  1  0  0  0
 42 43  1  0  0  0
 43 44  1  0  0  0
 44 45  1  0  0  0
 45 46  1  0  0  0
 46 47  1  0  0  0
 46 48  1  0  0  0
 48 49  1  0  0  0
 36 27  1  0  0  0
 49 43  1  0  0  0
 34 29  1  0  0  0
  6  1  1  0  0  0
 14 12  1  0  0  0
 25 19  1  0  0  0
  8 11  1  0  0  0
 17 18  1  0  0  0
M  END
> <minimizedAffinity>
-8.15851

> <CNNscore>
0.1303443909

> <CNNaffinity>
6.4443078041

> <CNN_VS>
0.8399793506

> <CNNaffinity_variance>
0.4189120829

$$$$
[H]C1=C([H])C([H])(F)C([H])([H])C([H])=C1N([H])C(=O)C1(C(=O)N([H])c2c([H])c([H])c(Oc3c([H])c([H])nc4c([H])c(OC([H])([H])C([H])([H])C([H])([H])N5C([H])([H])C([H])([H])C([H])(C([H])([H])[H])C([H])([H])C5([H])[H])c(OC([H])([H])[H])c([H])c34)c(F)c2[H])C([H])([H])C1([H])[H]


 49 54  0  0  0  0  0  0  0  0999 V2000
  -87.9246   32.3892   -1.4416 C   0  0  0  0  0  0  0  0  0  0  0  0
  -88.4692   32.3820   -2.7073 C   0  0  0  0  0  0  0  0  0  0  0  0
  -88.0685   33.2615   -3.6636 C   0  0  0  0  0  0  0  0  0  0  0  0
  -87.0725   34.2481   -3.4486 C   0  0  0  0  0  0  0  0  0  0  0  0
  -86.5441   34.2430   -2.1894 C   0  0  0  0  0  0  0  0  0  0  0  0
  -86.9585   33.3339   -1.2017 C   0  0  0  0  0  0  0  0  0  0  0  0
  -86.3786   33.4319    0.0420 F   0  0  0  0  0  0  0  0  0  0  0  0
  -86.7355   35.1011   -4.5098 N   0  0  0  0  0  0  0  0  0  0  0  0
  -87.2905   36.3359   -4.7850 C   0  0  0  0  0  0  0  0  0  0  0  0
  -88.2122   36.8062   -4.0180 O   0  0  0  0  0  0  0  0  0  0  0  0
  -85.9654   34.7649   -5.1609 H   0  0  0  0  0  0  0  0  0  0  0  0
  -86.9621   37.2618   -5.9009 C   0  0  0  0  0  0  0  0  0  0  0  0
  -87.3461   36.8285   -7.3054 C   0  0  0  0  0  0  0  0  0  0  0  0
  -88.1592   37.8610   -6.5761 C   0  0  0  0  0  0  0  0  0  0  0  0
  -85.7198   38.0417   -5.8560 C   0  0  0  0  0  0  0  0  0  0  0  0
  -85.1526   38.4479   -6.8712 O   0  0  0  0  0  0  0  0  0  0  0  0
  -85.0882   38.3791   -4.6046 N   0  0  0  0  0  0  0  0  0  0  0  0
  -85.4904   38.0964   -3.6934 H   0  0  0  0  0  0  0  0  0  0  0  0
  -83.8808   39.1236   -4.5682 C   0  0  0  0  0  0  0  0  0  0  0  0
  -83.9409   40.3909   -4.2405 C   0  0  0  0  0  0  0  0  0  0  0  0
  -82.7540   41.2515   -4.1750 C   0  0  0  0  0  0  0  0  0  0  0  0
  -81.4494   40.5820   -4.4289 C   0  0  0  0  0  0  0  0  0  0  0  0
  -80.7033   40.7140   -3.2396 F   0  0  0  0  0  0  0  0  0  0  0  0
  -81.5232   39.1701   -4.7872 C   0  0  0  0  0  0  0  0  0  0  0  0
  -82.6208   38.4905   -4.8545 C   0  0  0  0  0  0  0  0  0  0  0  0
  -88.3418   31.4901   -0.4764 O   0  0  0  0  0  0  0  0  0  0  0  0
  -89.9178   27.9579   -1.8525 C   0  0  0  0  0  0  0  0  0  0  0  0
  -89.3845   29.1608   -1.3879 C   0  0  0  0  0  0  0  0  0  0  0  0
  -88.1806   29.1336   -0.7191 C   0  0  0  0  0  0  0  0  0  0  0  0
  -87.6285   30.3363   -0.2425 C   0  0  0  0  0  0  0  0  0  0  0  0
  -86.4345   30.2988    0.4197 C   0  0  0  0  0  0  0  0  0  0  0  0
  -85.7941   29.0843    0.6093 C   0  0  0  0  0  0  0  0  0  0  0  0
  -86.3148   27.9425    0.1593 N   0  0  0  0  0  0  0  0  0  0  0  0
  -87.4801   27.9638   -0.4898 C   0  0  0  0  0  0  0  0  0  0  0  0
  -88.0701   26.8030   -0.9804 C   0  0  0  0  0  0  0  0  0  0  0  0
  -89.2623   26.7649   -1.6519 C   0  0  0  0  0  0  0  0  0  0  0  0
  -92.3219   28.1801   -1.8250 C   0  0  0  0  0  0  0  0  0  0  0  0
  -91.1246   28.0009   -2.5204 O   0  0  0  0  0  0  0  0  0  0  0  0
  -89.7614   25.5555   -2.0987 O   0  0  0  0  0  0  0  0  0  0  0  0
  -89.9360   24.4334   -1.2959 C   0  0  0  0  0  0  0  0  0  0  0  0
  -90.7990   24.7805   -0.1103 C   0  0  0  0  0  0  0  0  0  0  0  0
  -90.5078   23.9032    1.1007 C   0  0  0  0  0  0  0  0  0  0  0  0
  -90.2561   24.7397    2.1963 N   0  0  0  0  0  0  0  0  0  0  0  0
  -90.9221   24.5650    3.4128 C   0  0  0  0  0  0  0  0  0  0  0  0
  -90.4592   25.6574    4.3735 C   0  0  0  0  0  0  0  0  0  0  0  0
  -90.5530   26.9988    3.6877 C   0  0  0  0  0  0  0  0  0  0  0  0
  -90.2084   28.1323    4.6301 C   0  0  0  0  0  0  0  0  0  0  0  0
  -89.6996   27.0290    2.4393 C   0  0  0  0  0  0  0  0  0  0  0  0
  -89.1536   25.6178    2.1734 C   0  0  0  0  0  0  0  0  0  0  0  0
 37 38  1  0  0  0
 38 27  1  0  0  0
 27 28  2  0  0  0
 28 29  1  0  0  0
 29 30  2  0  0  0
 30 26  1  0  0  0
 26  1  1  0  0  0
  1  2  2  0  0  0
  2  3  1  0  0  0
  3  4  2  0  0  0
  4  8  1  0  0  0
  8  9  1  0  0  0
  9 10  2  0  0  0
  9 12  1  0  0  0
 12 13  1  0  0  0
 13 14  1  0  0  0
 12 15  1  0  0  0
 15 16  2  0  0  0
 15 17  1  0  0  0
 17 19  1  0  0  0
 19 20  2  0  0  0
 20 21  1  0  0  0
 21 22  1  0  0  0
 22 23  1  0  0  0
 22 24  1  0  0  0
 24 25  2  0  0  0
  4  5  1  0  0  0
  5  6  2  0  0  0
  6  7  1  0  0  0
 30 31  1  0  0  0
 31 32  2  0  0  0
 32 33  1  0  0  0
 33 34  2  0  0  0
 34 35  1  0  0  0
 35 36  2  0  0  0
 36 39  1  0  0  0
 39 40  1  0  0  0
 40 41  1  0  0  0
 41 42  1  0  0  0
 42 43  1  0  0  0
 43 44  1  0  0  0
 44 45  1  0  0  0
 45 46  1  0  0  0
 46 47  1  0  0  0
 46 48  1  0  0  0
 48 49  1  0  0  0
 36 27  1  0  0  0
 49 43  1  0  0  0
 34 29  1  0  0  0
  6  1  1  0  0  0
 14 12  1  0  0  0
 25 19  1  0  0  0
  8 11  1  0  0  0
 17 18  1  0  0  0
M  END
> <minimizedAffinity>
-8.93322

> <CNNscore>
0.1045627818

> <CNNaffinity>
6.7782835960

> <CNN_VS>
0.7087562084

> <CNNaffinity_variance>
0.5671790242

$$$$
[H]C1=C([H])C([H])(F)C([H])([H])C([H])=C1N([H])C(=O)C1(C(=O)N([H])c2c([H])c([H])c(Oc3c([H])c([H])nc4c([H])c(OC([H])([H])C([H])([H])C([H])([H])N5C([H])([H])C([H])([H])C([H])(C([H])([H])[H])C([H])([H])C5([H])[H])c(OC([H])([H])[H])c([H])c34)c(F)c2[H])C([H])([H])C1([H])[H]


 49 54  0  0  0  0  0  0  0  0999 V2000
  -88.7181   31.5662   -2.4025 C   0  0  0  0  0  0  0  0  0  0  0  0
  -88.1301   31.5625   -3.6487 C   0  0  0  0  0  0  0  0  0  0  0  0
  -87.5892   32.6873   -4.1878 C   0  0  0  0  0  0  0  0  0  0  0  0
  -87.5818   33.9431   -3.5287 C   0  0  0  0  0  0  0  0  0  0  0  0
  -88.1694   33.9303   -2.2961 C   0  0  0  0  0  0  0  0  0  0  0  0
  -88.7280   32.7676   -1.7394 C   0  0  0  0  0  0  0  0  0  0  0  0
  -89.3180   32.8708   -0.5009 F   0  0  0  0  0  0  0  0  0  0  0  0
  -86.9920   35.0369   -4.1793 N   0  0  0  0  0  0  0  0  0  0  0  0
  -87.6472   36.0409   -4.8658 C   0  0  0  0  0  0  0  0  0  0  0  0
  -88.9328   36.0264   -4.9438 O   0  0  0  0  0  0  0  0  0  0  0  0
  -85.9323   35.1032   -4.1272 H   0  0  0  0  0  0  0  0  0  0  0  0
  -87.0551   37.2090   -5.5697 C   0  0  0  0  0  0  0  0  0  0  0  0
  -87.0185   38.5310   -4.8222 C   0  0  0  0  0  0  0  0  0  0  0  0
  -85.7728   37.7034   -4.9704 C   0  0  0  0  0  0  0  0  0  0  0  0
  -87.2601   37.3672   -7.0142 C   0  0  0  0  0  0  0  0  0  0  0  0
  -86.7680   36.6008   -7.8435 O   0  0  0  0  0  0  0  0  0  0  0  0
  -88.0594   38.4423   -7.5472 N   0  0  0  0  0  0  0  0  0  0  0  0
  -88.5272   39.1337   -6.9348 H   0  0  0  0  0  0  0  0  0  0  0  0
  -88.2444   38.5967   -8.9455 C   0  0  0  0  0  0  0  0  0  0  0  0
  -89.3533   38.1473   -9.4797 C   0  0  0  0  0  0  0  0  0  0  0  0
  -89.6437   38.2535  -10.9144 C   0  0  0  0  0  0  0  0  0  0  0  0
  -88.6326   38.9777  -11.7316 C   0  0  0  0  0  0  0  0  0  0  0  0
  -89.2935   40.1033  -12.2652 F   0  0  0  0  0  0  0  0  0  0  0  0
  -87.4427   39.4230  -11.0151 C   0  0  0  0  0  0  0  0  0  0  0  0
  -87.2500   39.2589   -9.7474 C   0  0  0  0  0  0  0  0  0  0  0  0
  -89.2666   30.4154   -1.8651 O   0  0  0  0  0  0  0  0  0  0  0  0
  -90.1008   26.4303   -2.3923 C   0  0  0  0  0  0  0  0  0  0  0  0
  -89.8192   27.7857   -2.2170 C   0  0  0  0  0  0  0  0  0  0  0  0
  -88.7683   28.1407   -1.4004 C   0  0  0  0  0  0  0  0  0  0  0  0
  -88.4707   29.5024   -1.2110 C   0  0  0  0  0  0  0  0  0  0  0  0
  -87.4269   29.8441   -0.3992 C   0  0  0  0  0  0  0  0  0  0  0  0
  -86.6861   28.8495    0.2196 C   0  0  0  0  0  0  0  0  0  0  0  0
  -86.9657   27.5580    0.0426 N   0  0  0  0  0  0  0  0  0  0  0  0
  -87.9820   27.2092   -0.7480 C   0  0  0  0  0  0  0  0  0  0  0  0
  -88.3191   25.8773   -0.9681 C   0  0  0  0  0  0  0  0  0  0  0  0
  -89.3499   25.4615   -1.7670 C   0  0  0  0  0  0  0  0  0  0  0  0
  -92.4588   26.0234   -2.7139 C   0  0  0  0  0  0  0  0  0  0  0  0
  -91.1567   26.0901   -3.2129 O   0  0  0  0  0  0  0  0  0  0  0  0
  -89.6006   24.1104   -1.9185 O   0  0  0  0  0  0  0  0  0  0  0  0
  -89.9833   23.2621   -0.8851 C   0  0  0  0  0  0  0  0  0  0  0  0
  -90.8046   24.0219    0.1244 C   0  0  0  0  0  0  0  0  0  0  0  0
  -90.3620   23.7546    1.5575 C   0  0  0  0  0  0  0  0  0  0  0  0
  -90.5739   24.9204    2.3053 N   0  0  0  0  0  0  0  0  0  0  0  0
  -90.6914   26.1691    1.6880 C   0  0  0  0  0  0  0  0  0  0  0  0
  -90.8673   27.2263    2.7752 C   0  0  0  0  0  0  0  0  0  0  0  0
  -89.8024   27.0416    3.8289 C   0  0  0  0  0  0  0  0  0  0  0  0
  -89.8618   28.1307    4.8786 C   0  0  0  0  0  0  0  0  0  0  0  0
  -89.8855   25.6633    4.4462 C   0  0  0  0  0  0  0  0  0  0  0  0
  -90.9160   24.8296    3.6698 C   0  0  0  0  0  0  0  0  0  0  0  0
 37 38  1  0  0  0
 38 27  1  0  0  0
 27 28  2  0  0  0
 28 29  1  0  0  0
 29 30  2  0  0  0
 30 26  1  0  0  0
 26  1  1  0  0  0
  1  2  2  0  0  0
  2  3  1  0  0  0
  3  4  2  0  0  0
  4  8  1  0  0  0
  8  9  1  0  0  0
  9 10  2  0  0  0
  9 12  1  0  0  0
 12 13  1  0  0  0
 13 14  1  0  0  0
 12 15  1  0  0  0
 15 16  2  0  0  0
 15 17  1  0  0  0
 17 19  1  0  0  0
 19 20  2  0  0  0
 20 21  1  0  0  0
 21 22  1  0  0  0
 22 23  1  0  0  0
 22 24  1  0  0  0
 24 25  2  0  0  0
  4  5  1  0  0  0
  5  6  2  0  0  0
  6  7  1  0  0  0
 30 31  1  0  0  0
 31 32  2  0  0  0
 32 33  1  0  0  0
 33 34  2  0  0  0
 34 35  1  0  0  0
 35 36  2  0  0  0
 36 39  1  0  0  0
 39 40  1  0  0  0
 40 41  1  0  0  0
 41 42  1  0  0  0
 42 43  1  0  0  0
 43 44  1  0  0  0
 44 45  1  0  0  0
 45 46  1  0  0  0
 46 47  1  0  0  0
 46 48  1  0  0  0
 48 49  1  0  0  0
 36 27  1  0  0  0
 49 43  1  0  0  0
 34 29  1  0  0  0
  6  1  1  0  0  0
 14 12  1  0  0  0
 25 19  1  0  0  0
  8 11  1  0  0  0
 17 18  1  0  0  0
M  END
> <minimizedAffinity>
-8.25358

> <CNNscore>
0.1036581844

> <CNNaffinity>
6.4926657677

> <CNN_VS>
0.6730179191

> <CNNaffinity_variance>
0.3213486969

$$$$
[H]C1=C([H])C([H])(F)C([H])([H])C([H])=C1N([H])C(=O)C1(C(=O)N([H])c2c([H])c([H])c(Oc3c([H])c([H])nc4c([H])c(OC([H])([H])C([H])([H])C([H])([H])N5C([H])([H])C([H])([H])C([H])(C([H])([H])[H])C([H])([H])C5([H])[H])c(OC([H])([H])[H])c([H])c34)c(F)c2[H])C([H])([H])C1([H])[H]


 49 54  0  0  0  0  0  0  0  0999 V2000
  -86.2288   32.0850   -1.3459 C   0  0  0  0  0  0  0  0  0  0  0  0
  -87.5709   31.8087   -1.4917 C   0  0  0  0  0  0  0  0  0  0  0  0
  -88.4409   32.7282   -1.9877 C   0  0  0  0  0  0  0  0  0  0  0  0
  -88.0530   34.0313   -2.3919 C   0  0  0  0  0  0  0  0  0  0  0  0
  -86.7209   34.2897   -2.2397 C   0  0  0  0  0  0  0  0  0  0  0  0
  -85.8223   33.3391   -1.7272 C   0  0  0  0  0  0  0  0  0  0  0  0
  -84.5049   33.7116   -1.5917 F   0  0  0  0  0  0  0  0  0  0  0  0
  -89.0364   34.8969   -2.8930 N   0  0  0  0  0  0  0  0  0  0  0  0
  -89.4283   35.0265   -4.2114 C   0  0  0  0  0  0  0  0  0  0  0  0
  -88.8726   34.2980   -5.1166 O   0  0  0  0  0  0  0  0  0  0  0  0
  -89.5377   35.5064   -2.1808 H   0  0  0  0  0  0  0  0  0  0  0  0
  -90.4605   35.9348   -4.7771 C   0  0  0  0  0  0  0  0  0  0  0  0
  -91.5047   36.4877   -3.8223 C   0  0  0  0  0  0  0  0  0  0  0  0
  -90.3671   37.3504   -4.2920 C   0  0  0  0  0  0  0  0  0  0  0  0
  -90.9831   35.6897   -6.1263 C   0  0  0  0  0  0  0  0  0  0  0  0
  -92.1373   35.3131   -6.3341 O   0  0  0  0  0  0  0  0  0  0  0  0
  -90.1627   35.8795   -7.2967 N   0  0  0  0  0  0  0  0  0  0  0  0
  -89.1822   36.2057   -7.2323 H   0  0  0  0  0  0  0  0  0  0  0  0
  -90.6702   35.6297   -8.5980 C   0  0  0  0  0  0  0  0  0  0  0  0
  -90.9615   34.3949   -8.9259 C   0  0  0  0  0  0  0  0  0  0  0  0
  -91.4892   34.0268  -10.2449 C   0  0  0  0  0  0  0  0  0  0  0  0
  -91.7530   35.1549  -11.1788 C   0  0  0  0  0  0  0  0  0  0  0  0
  -93.1396   35.1353  -11.4351 F   0  0  0  0  0  0  0  0  0  0  0  0
  -91.3804   36.4784  -10.6918 C   0  0  0  0  0  0  0  0  0  0  0  0
  -90.8873   36.7128   -9.5201 C   0  0  0  0  0  0  0  0  0  0  0  0
  -85.3535   31.1415   -0.8384 O   0  0  0  0  0  0  0  0  0  0  0  0
  -86.9864   27.6398    0.5494 C   0  0  0  0  0  0  0  0  0  0  0  0
  -86.4308   28.8281    0.0736 C   0  0  0  0  0  0  0  0  0  0  0  0
  -85.8593   29.6969    0.9769 C   0  0  0  0  0  0  0  0  0  0  0  0
  -85.2956   30.9002    0.5155 C   0  0  0  0  0  0  0  0  0  0  0  0
  -84.7317   31.7551    1.4191 C   0  0  0  0  0  0  0  0  0  0  0  0
  -84.7265   31.4238    2.7650 C   0  0  0  0  0  0  0  0  0  0  0  0
  -85.2604   30.2844    3.2057 N   0  0  0  0  0  0  0  0  0  0  0  0
  -85.8142   29.4393    2.3346 C   0  0  0  0  0  0  0  0  0  0  0  0
  -86.3864   28.2370    2.7384 C   0  0  0  0  0  0  0  0  0  0  0  0
  -86.9683   27.3334    1.8907 C   0  0  0  0  0  0  0  0  0  0  0  0
  -87.6594   27.1344   -1.7136 C   0  0  0  0  0  0  0  0  0  0  0  0
  -87.5554   26.7795   -0.3673 O   0  0  0  0  0  0  0  0  0  0  0  0
  -87.5088   26.1657    2.3962 O   0  0  0  0  0  0  0  0  0  0  0  0
  -88.8626   25.9721    2.6489 C   0  0  0  0  0  0  0  0  0  0  0  0
  -89.5629   27.3035    2.7392 C   0  0  0  0  0  0  0  0  0  0  0  0
  -90.9304   27.2908    2.0679 C   0  0  0  0  0  0  0  0  0  0  0  0
  -90.8095   27.9109    0.8173 N   0  0  0  0  0  0  0  0  0  0  0  0
  -90.2908   29.2031    0.6934 C   0  0  0  0  0  0  0  0  0  0  0  0
  -90.3375   29.5988   -0.7803 C   0  0  0  0  0  0  0  0  0  0  0  0
  -91.7160   29.3209   -1.3289 C   0  0  0  0  0  0  0  0  0  0  0  0
  -91.8525   29.7949   -2.7601 C   0  0  0  0  0  0  0  0  0  0  0  0
  -92.0696   27.8571   -1.1874 C   0  0  0  0  0  0  0  0  0  0  0  0
  -90.9791   27.1575   -0.3619 C   0  0  0  0  0  0  0  0  0  0  0  0
 37 38  1  0  0  0
 38 27  1  0  0  0
 27 28  2  0  0  0
 28 29  1  0  0  0
 29 30  2  0  0  0
 30 26  1  0  0  0
 26  1  1  0  0  0
  1  2  2  0  0  0
  2  3  1  0  0  0
  3  4  2  0  0  0
  4  8  1  0  0  0
  8  9  1  0  0  0
  9 10  2  0  0  0
  9 12  1  0  0  0
 12 13  1  0  0  0
 13 14  1  0  0  0
 12 15  1  0  0  0
 15 16  2  0  0  0
 15 17  1  0  0  0
 17 19  1  0  0  0
 19 20  2  0  0  0
 20 21  1  0  0  0
 21 22  1  0  0  0
 22 23  1  0  0  0
 22 24  1  0  0  0
 24 25  2  0  0  0
  4  5  1  0  0  0
  5  6  2  0  0  0
  6  7  1  0  0  0
 30 31  1  0  0  0
 31 32  2  0  0  0
 32 33  1  0  0  0
 33 34  2  0  0  0
 34 35  1  0  0  0
 35 36  2  0  0  0
 36 39  1  0  0  0
 39 40  1  0  0  0
 40 41  1  0  0  0
 41 42  1  0  0  0
 42 43  1  0  0  0
 43 44  1  0  0  0
 44 45  1  0  0  0
 45 46  1  0  0  0
 46 47  1  0  0  0
 46 48  1  0  0  0
 48 49  1  0  0  0
 36 27  1  0  0  0
 49 43  1  0  0  0
 34 29  1  0  0  0
  6  1  1  0  0  0
 14 12  1  0  0  0
 25 19  1  0  0  0
  8 11  1  0  0  0
 17 18  1  0  0  0
M  END
> <minimizedAffinity>
-7.89216

> <CNNscore>
0.1023275852

> <CNNaffinity>
6.9866952896

> <CNN_VS>
0.7149316669

> <CNNaffinity_variance>
0.4913409352

$$$$
[H]C1=C([H])C([H])(F)C([H])([H])C([H])=C1N([H])C(=O)C1(C(=O)N([H])c2c([H])c([H])c(Oc3c([H])c([H])nc4c([H])c(OC([H])([H])C([H])([H])C([H])([H])N5C([H])([H])C([H])([H])C([H])(C([H])([H])[H])C([H])([H])C5([H])[H])c(OC([H])([H])[H])c([H])c34)c(F)c2[H])C([H])([H])C1([H])[H]


 49 54  0  0  0  0  0  0  0  0999 V2000
  -87.9203   32.4901   -1.2112 C   0  0  0  0  0  0  0  0  0  0  0  0
  -88.6787   32.6518   -2.3504 C   0  0  0  0  0  0  0  0  0  0  0  0
  -88.2892   33.4774   -3.3578 C   0  0  0  0  0  0  0  0  0  0  0  0
  -87.0895   34.2334   -3.3279 C   0  0  0  0  0  0  0  0  0  0  0  0
  -86.3505   34.0632   -2.1923 C   0  0  0  0  0  0  0  0  0  0  0  0
  -86.7534   33.2098   -1.1515 C   0  0  0  0  0  0  0  0  0  0  0  0
  -85.9466   33.1309   -0.0400 F   0  0  0  0  0  0  0  0  0  0  0  0
  -86.7860   35.0508   -4.4266 N   0  0  0  0  0  0  0  0  0  0  0  0
  -87.1546   36.3708   -4.6006 C   0  0  0  0  0  0  0  0  0  0  0  0
  -87.8431   36.9663   -3.6893 O   0  0  0  0  0  0  0  0  0  0  0  0
  -86.2025   34.6095   -5.1978 H   0  0  0  0  0  0  0  0  0  0  0  0
  -86.8556   37.2633   -5.7514 C   0  0  0  0  0  0  0  0  0  0  0  0
  -87.2684   36.7852   -7.1330 C   0  0  0  0  0  0  0  0  0  0  0  0
  -88.0704   37.8361   -6.4179 C   0  0  0  0  0  0  0  0  0  0  0  0
  -85.6166   38.0496   -5.7582 C   0  0  0  0  0  0  0  0  0  0  0  0
  -85.0903   38.4524   -6.7965 O   0  0  0  0  0  0  0  0  0  0  0  0
  -84.9399   38.3977   -4.5336 N   0  0  0  0  0  0  0  0  0  0  0  0
  -85.3058   38.1186   -3.6062 H   0  0  0  0  0  0  0  0  0  0  0  0
  -83.7359   39.1485   -4.5474 C   0  0  0  0  0  0  0  0  0  0  0  0
  -83.7991   40.4307   -4.2847 C   0  0  0  0  0  0  0  0  0  0  0  0
  -82.6158   41.2987   -4.2752 C   0  0  0  0  0  0  0  0  0  0  0  0
  -81.3105   40.6229   -4.5070 C   0  0  0  0  0  0  0  0  0  0  0  0
  -80.5537   40.8192   -3.3334 F   0  0  0  0  0  0  0  0  0  0  0  0
  -81.3807   39.1940   -4.7915 C   0  0  0  0  0  0  0  0  0  0  0  0
  -82.4755   38.5070   -4.8130 C   0  0  0  0  0  0  0  0  0  0  0  0
  -88.3281   31.6482   -0.1919 O   0  0  0  0  0  0  0  0  0  0  0  0
  -90.9604   28.7131   -1.3369 C   0  0  0  0  0  0  0  0  0  0  0  0
  -90.0679   29.7137   -0.9502 C   0  0  0  0  0  0  0  0  0  0  0  0
  -88.8040   29.3484   -0.5423 C   0  0  0  0  0  0  0  0  0  0  0  0
  -87.8915   30.3435   -0.1477 C   0  0  0  0  0  0  0  0  0  0  0  0
  -86.6408   29.9710    0.2555 C   0  0  0  0  0  0  0  0  0  0  0  0
  -86.2969   28.6284    0.2692 C   0  0  0  0  0  0  0  0  0  0  0  0
  -87.1595   27.6828   -0.1036 N   0  0  0  0  0  0  0  0  0  0  0  0
  -88.3844   28.0316   -0.5004 C   0  0  0  0  0  0  0  0  0  0  0  0
  -89.3251   27.0872   -0.8995 C   0  0  0  0  0  0  0  0  0  0  0  0
  -90.5946   27.3868   -1.3147 C   0  0  0  0  0  0  0  0  0  0  0  0
  -92.4191   29.7289   -2.9708 C   0  0  0  0  0  0  0  0  0  0  0  0
  -92.2229   29.0943   -1.7428 O   0  0  0  0  0  0  0  0  0  0  0  0
  -91.4527   26.3703   -1.6911 O   0  0  0  0  0  0  0  0  0  0  0  0
  -92.5245   25.9238   -0.9257 C   0  0  0  0  0  0  0  0  0  0  0  0
  -93.6663   25.5257   -1.8251 C   0  0  0  0  0  0  0  0  0  0  0  0
  -93.2033   25.1603   -3.2298 C   0  0  0  0  0  0  0  0  0  0  0  0
  -93.5793   26.1946   -4.0970 N   0  0  0  0  0  0  0  0  0  0  0  0
  -94.7926   26.8708   -3.9396 C   0  0  0  0  0  0  0  0  0  0  0  0
  -94.9187   27.8965   -5.0633 C   0  0  0  0  0  0  0  0  0  0  0  0
  -94.6344   27.2265   -6.3857 C   0  0  0  0  0  0  0  0  0  0  0  0
  -94.8507   28.1723   -7.5478 C   0  0  0  0  0  0  0  0  0  0  0  0
  -93.2454   26.6282   -6.4014 C   0  0  0  0  0  0  0  0  0  0  0  0
  -92.6381   26.7385   -4.9945 C   0  0  0  0  0  0  0  0  0  0  0  0
 37 38  1  0  0  0
 38 27  1  0  0  0
 27 28  2  0  0  0
 28 29  1  0  0  0
 29 30  2  0  0  0
 30 26  1  0  0  0
 26  1  1  0  0  0
  1  2  2  0  0  0
  2  3  1  0  0  0
  3  4  2  0  0  0
  4  8  1  0  0  0
  8  9  1  0  0  0
  9 10  2  0  0  0
  9 12  1  0  0  0
 12 13  1  0  0  0
 13 14  1  0  0  0
 12 15  1  0  0  0
 15 16  2  0  0  0
 15 17  1  0  0  0
 17 19  1  0  0  0
 19 20  2  0  0  0
 20 21  1  0  0  0
 21 22  1  0  0  0
 22 23  1  0  0  0
 22 24  1  0  0  0
 24 25  2  0  0  0
  4  5  1  0  0  0
  5  6  2  0  0  0
  6  7  1  0  0  0
 30 31  1  0  0  0
 31 32  2  0  0  0
 32 33  1  0  0  0
 33 34  2  0  0  0
 34 35  1  0  0  0
 35 36  2  0  0  0
 36 39  1  0  0  0
 39 40  1  0  0  0
 40 41  1  0  0  0
 41 42  1  0  0  0
 42 43  1  0  0  0
 43 44  1  0  0  0
 44 45  1  0  0  0
 45 46  1  0  0  0
 46 47  1  0  0  0
 46 48  1  0  0  0
 48 49  1  0  0  0
 36 27  1  0  0  0
 49 43  1  0  0  0
 34 29  1  0  0  0
  6  1  1  0  0  0
 14 12  1  0  0  0
 25 19  1  0  0  0
  8 11  1  0  0  0
 17 18  1  0  0  0
M  END
> <minimizedAffinity>
-8.08334

> <CNNscore>
0.0875016302

> <CNNaffinity>
6.4559946060

> <CNN_VS>
0.5649100542

> <CNNaffinity_variance>
0.4301460683

$$$$
[H]C1=C([H])C([H])(F)C([H])([H])C([H])=C1N([H])C(=O)C1(C(=O)N([H])c2c([H])c([H])c(Oc3c([H])c([H])nc4c([H])c(OC([H])([H])C([H])([H])C([H])([H])N5C([H])([H])C([H])([H])C([H])(C([H])([H])[H])C([H])([H])C5([H])[H])c(OC([H])([H])[H])c([H])c34)c(F)c2[H])C([H])([H])C1([H])[H]


 49 54  0  0  0  0  0  0  0  0999 V2000
  -87.7512   32.3706   -1.2800 C   0  0  0  0  0  0  0  0  0  0  0  0
  -88.4339   32.3641   -2.4770 C   0  0  0  0  0  0  0  0  0  0  0  0
  -88.1205   33.2220   -3.4840 C   0  0  0  0  0  0  0  0  0  0  0  0
  -87.0820   34.1840   -3.3951 C   0  0  0  0  0  0  0  0  0  0  0  0
  -86.4165   34.1785   -2.2027 C   0  0  0  0  0  0  0  0  0  0  0  0
  -86.7407   33.2917   -1.1625 C   0  0  0  0  0  0  0  0  0  0  0  0
  -86.0231   33.3877    0.0073 F   0  0  0  0  0  0  0  0  0  0  0  0
  -86.8442   35.0160   -4.4990 N   0  0  0  0  0  0  0  0  0  0  0  0
  -87.1872   36.3490   -4.6174 C   0  0  0  0  0  0  0  0  0  0  0  0
  -87.7827   36.9435   -3.6422 O   0  0  0  0  0  0  0  0  0  0  0  0
  -86.3376   34.5755   -5.3232 H   0  0  0  0  0  0  0  0  0  0  0  0
  -86.9559   37.2573   -5.7715 C   0  0  0  0  0  0  0  0  0  0  0  0
  -87.2340   36.7083   -7.1604 C   0  0  0  0  0  0  0  0  0  0  0  0
  -88.2032   37.6511   -6.5044 C   0  0  0  0  0  0  0  0  0  0  0  0
  -85.8349   38.2037   -5.7379 C   0  0  0  0  0  0  0  0  0  0  0  0
  -85.7169   39.1240   -6.5482 O   0  0  0  0  0  0  0  0  0  0  0  0
  -84.7976   38.1060   -4.7412 N   0  0  0  0  0  0  0  0  0  0  0  0
  -84.8093   37.3760   -4.0072 H   0  0  0  0  0  0  0  0  0  0  0  0
  -83.7100   39.0171   -4.7210 C   0  0  0  0  0  0  0  0  0  0  0  0
  -82.5707   38.6378   -5.2455 C   0  0  0  0  0  0  0  0  0  0  0  0
  -81.3835   39.5001   -5.2746 C   0  0  0  0  0  0  0  0  0  0  0  0
  -81.5651   40.8764   -4.7387 C   0  0  0  0  0  0  0  0  0  0  0  0
  -81.3203   41.7521   -5.8166 F   0  0  0  0  0  0  0  0  0  0  0  0
  -82.8807   41.1687   -4.1809 C   0  0  0  0  0  0  0  0  0  0  0  0
  -83.8685   40.3349   -4.1653 C   0  0  0  0  0  0  0  0  0  0  0  0
  -88.0805   31.4936   -0.2620 O   0  0  0  0  0  0  0  0  0  0  0  0
  -89.5033   27.8327   -1.4570 C   0  0  0  0  0  0  0  0  0  0  0  0
  -89.0222   29.0791   -1.0539 C   0  0  0  0  0  0  0  0  0  0  0  0
  -87.7978   29.1417   -0.4260 C   0  0  0  0  0  0  0  0  0  0  0  0
  -87.2977   30.3894   -0.0116 C   0  0  0  0  0  0  0  0  0  0  0  0
  -86.0829   30.4409    0.6105 C   0  0  0  0  0  0  0  0  0  0  0  0
  -85.3709   29.2706    0.8213 C   0  0  0  0  0  0  0  0  0  0  0  0
  -85.8422   28.0864    0.4302 N   0  0  0  0  0  0  0  0  0  0  0  0
  -87.0271   28.0207   -0.1792 C   0  0  0  0  0  0  0  0  0  0  0  0
  -87.5678   26.8123   -0.6077 C   0  0  0  0  0  0  0  0  0  0  0  0
  -88.7770   26.6850   -1.2365 C   0  0  0  0  0  0  0  0  0  0  0  0
  -91.7612   28.6501   -1.7085 C   0  0  0  0  0  0  0  0  0  0  0  0
  -90.7314   27.7857   -2.0845 O   0  0  0  0  0  0  0  0  0  0  0  0
  -89.2229   25.4347   -1.6227 O   0  0  0  0  0  0  0  0  0  0  0  0
  -90.0108   24.6037   -0.8335 C   0  0  0  0  0  0  0  0  0  0  0  0
  -90.9924   23.8554   -1.6980 C   0  0  0  0  0  0  0  0  0  0  0  0
  -92.2136   24.6934   -2.0549 C   0  0  0  0  0  0  0  0  0  0  0  0
  -92.9475   24.0040   -3.0292 N   0  0  0  0  0  0  0  0  0  0  0  0
  -93.9233   24.6478   -3.7956 C   0  0  0  0  0  0  0  0  0  0  0  0
  -94.5628   23.6163   -4.7217 C   0  0  0  0  0  0  0  0  0  0  0  0
  -94.9636   22.4033   -3.9175 C   0  0  0  0  0  0  0  0  0  0  0  0
  -95.7018   21.3904   -4.7666 C   0  0  0  0  0  0  0  0  0  0  0  0
  -93.7644   21.7899   -3.2296 C   0  0  0  0  0  0  0  0  0  0  0  0
  -92.5507   22.7109   -3.4261 C   0  0  0  0  0  0  0  0  0  0  0  0
 37 38  1  0  0  0
 38 27  1  0  0  0
 27 28  2  0  0  0
 28 29  1  0  0  0
 29 30  2  0  0  0
 30 26  1  0  0  0
 26  1  1  0  0  0
  1  2  2  0  0  0
  2  3  1  0  0  0
  3  4  2  0  0  0
  4  8  1  0  0  0
  8  9  1  0  0  0
  9 10  2  0  0  0
  9 12  1  0  0  0
 12 13  1  0  0  0
 13 14  1  0  0  0
 12 15  1  0  0  0
 15 16  2  0  0  0
 15 17  1  0  0  0
 17 19  1  0  0  0
 19 20  2  0  0  0
 20 21  1  0  0  0
 21 22  1  0  0  0
 22 23  1  0  0  0
 22 24  1  0  0  0
 24 25  2  0  0  0
  4  5  1  0  0  0
  5  6  2  0  0  0
  6  7  1  0  0  0
 30 31  1  0  0  0
 31 32  2  0  0  0
 32 33  1  0  0  0
 33 34  2  0  0  0
 34 35  1  0  0  0
 35 36  2  0  0  0
 36 39  1  0  0  0
 39 40  1  0  0  0
 40 41  1  0  0  0
 41 42  1  0  0  0
 42 43  1  0  0  0
 43 44  1  0  0  0
 44 45  1  0  0  0
 45 46  1  0  0  0
 46 47  1  0  0  0
 46 48  1  0  0  0
 48 49  1  0  0  0
 36 27  1  0  0  0
 49 43  1  0  0  0
 34 29  1  0  0  0
  6  1  1  0  0  0
 14 12  1  0  0  0
 25 19  1  0  0  0
  8 11  1  0  0  0
 17 18  1  0  0  0
M  END
> <minimizedAffinity>
-7.92862

> <CNNscore>
0.0799149424

> <CNNaffinity>
6.3238978386

> <CNN_VS>
0.5053739548

> <CNNaffinity_variance>
0.4445355833

$$$$
[H]c1nc(N([H])c2c([H])c(OC([H])([H])[H])c(OC([H])([H])[H])c(OC([H])([H])[H])c2[H])nc(N([H])c2c([H])c([H])c([H])c([H])c2S(=O)(=O)C([H])(C([H])([H])[H])C([H])([H])[H])c1Cl


 35 37  0  0  0  0  0  0  0  0999 V2000
  -85.1898   33.1157   -0.9670 C   0  0  0  0  0  0  0  0  0  0  0  0
  -83.9315   33.0778   -0.5266 N   0  0  0  0  0  0  0  0  0  0  0  0
  -83.5368   32.0568    0.2373 C   0  0  0  0  0  0  0  0  0  0  0  0
  -84.3649   31.0467    0.5890 C   0  0  0  0  0  0  0  0  0  0  0  0
  -83.8823   29.7062    1.6004 Cl  0  0  0  0  0  0  0  0  0  0  0  0
  -85.7047   31.0563    0.1384 C   0  0  0  0  0  0  0  0  0  0  0  0
  -86.0097   32.1176   -0.6202 N   0  0  0  0  0  0  0  0  0  0  0  0
  -85.7039   34.1429   -1.7735 N   0  0  0  0  0  0  0  0  0  0  0  0
  -85.3203   35.1287   -1.6189 H   0  0  0  0  0  0  0  0  0  0  0  0
  -87.9610   32.8112   -4.4044 C   0  0  0  0  0  0  0  0  0  0  0  0
  -86.9605   32.8492   -3.4388 C   0  0  0  0  0  0  0  0  0  0  0  0
  -86.6900   34.0262   -2.7931 C   0  0  0  0  0  0  0  0  0  0  0  0
  -87.4304   35.1853   -3.1184 C   0  0  0  0  0  0  0  0  0  0  0  0
  -88.4145   35.1515   -4.0677 C   0  0  0  0  0  0  0  0  0  0  0  0
  -88.6536   33.9360   -4.6949 C   0  0  0  0  0  0  0  0  0  0  0  0
  -87.9436   30.4053   -4.4086 C   0  0  0  0  0  0  0  0  0  0  0  0
  -88.2344   31.6272   -5.0539 O   0  0  0  0  0  0  0  0  0  0  0  0
  -89.1587   36.2577   -4.4142 O   0  0  0  0  0  0  0  0  0  0  0  0
  -88.6026   37.2578   -5.2493 C   0  0  0  0  0  0  0  0  0  0  0  0
  -89.6531   33.9058   -5.6571 O   0  0  0  0  0  0  0  0  0  0  0  0
  -90.9918   33.5541   -5.3680 C   0  0  0  0  0  0  0  0  0  0  0  0
  -86.5543   29.9856    0.4582 N   0  0  0  0  0  0  0  0  0  0  0  0
  -86.1320   29.2152    1.0175 H   0  0  0  0  0  0  0  0  0  0  0  0
  -87.9094   29.8681    0.1282 C   0  0  0  0  0  0  0  0  0  0  0  0
  -88.5695   30.8750   -0.5915 C   0  0  0  0  0  0  0  0  0  0  0  0
  -89.9396   30.8005   -0.7944 C   0  0  0  0  0  0  0  0  0  0  0  0
  -90.6819   29.7587   -0.3061 C   0  0  0  0  0  0  0  0  0  0  0  0
  -90.0207   28.7939    0.3876 C   0  0  0  0  0  0  0  0  0  0  0  0
  -88.6356   28.7935    0.6352 C   0  0  0  0  0  0  0  0  0  0  0  0
  -87.9031   27.4481    1.4290 S   0  0  0  0  0  0  0  0  0  0  0  0
  -88.8092   27.1148    2.6403 O   0  0  0  0  0  0  0  0  0  0  0  0
  -86.5806   27.7512    2.0792 O   0  0  0  0  0  0  0  0  0  0  0  0
  -87.8401   25.9617    0.4906 C   0  0  0  0  0  0  0  0  0  0  0  0
  -87.5380   26.2951   -0.9960 C   0  0  0  0  0  0  0  0  0  0  0  0
  -89.0602   25.1208    0.4679 C   0  0  0  0  0  0  0  0  0  0  0  0
 16 17  1  0  0  0
 17 10  1  0  0  0
 10 11  2  0  0  0
 11 12  1  0  0  0
 12  8  1  0  0  0
  8  1  1  0  0  0
  1  2  2  0  0  0
  2  3  1  0  0  0
  3  4  2  0  0  0
  4  5  1  0  0  0
  4  6  1  0  0  0
  6 22  1  0  0  0
 22 24  1  0  0  0
 24 25  2  0  0  0
 25 26  1  0  0  0
 26 27  2  0  0  0
 27 28  1  0  0  0
 28 29  2  0  0  0
 29 30  1  0  0  0
 30 31  2  0  0  0
 30 32  2  0  0  0
 30 33  1  0  0  0
 33 34  1  0  0  0
 33 35  1  0  0  0
  6  7  2  0  0  0
 12 13  2  0  0  0
 13 14  1  0  0  0
 14 18  1  0  0  0
 18 19  1  0  0  0
 14 15  2  0  0  0
 15 20  1  0  0  0
 20 21  1  0  0  0
 15 10  1  0  0  0
  7  1  1  0  0  0
 29 24  1  0  0  0
  8  9  1  0  0  0
 22 23  1  0  0  0
M  END
> <minimizedAffinity>
-7.13700

> <CNNscore>
0.8887516260

> <CNNaffinity>
7.7583427429

> <CNN_VS>
6.8952398300

> <CNNaffinity_variance>
0.0921410322

$$$$
[H]c1nc(N([H])c2c([H])c(OC([H])([H])[H])c(OC([H])([H])[H])c(OC([H])([H])[H])c2[H])nc(N([H])c2c([H])c([H])c([H])c([H])c2S(=O)(=O)C([H])(C([H])([H])[H])C([H])([H])[H])c1Cl


 35 37  0  0  0  0  0  0  0  0999 V2000
  -85.2490   33.0373   -1.7911 C   0  0  0  0  0  0  0  0  0  0  0  0
  -84.0286   33.3142   -1.3299 N   0  0  0  0  0  0  0  0  0  0  0  0
  -83.6590   32.8451   -0.1361 C   0  0  0  0  0  0  0  0  0  0  0  0
  -84.4758   32.0926    0.6362 C   0  0  0  0  0  0  0  0  0  0  0  0
  -84.0268   31.4785    2.2092 Cl  0  0  0  0  0  0  0  0  0  0  0  0
  -85.7755   31.7804    0.1764 C   0  0  0  0  0  0  0  0  0  0  0  0
  -86.0576   32.2932   -1.0287 N   0  0  0  0  0  0  0  0  0  0  0  0
  -85.7344   33.4819   -3.0308 N   0  0  0  0  0  0  0  0  0  0  0  0
  -85.0604   33.4586   -3.8603 H   0  0  0  0  0  0  0  0  0  0  0  0
  -88.6941   35.6756   -3.4974 C   0  0  0  0  0  0  0  0  0  0  0  0
  -87.4042   35.2765   -3.1631 C   0  0  0  0  0  0  0  0  0  0  0  0
  -87.0411   33.9655   -3.3213 C   0  0  0  0  0  0  0  0  0  0  0  0
  -87.9827   33.0373   -3.8205 C   0  0  0  0  0  0  0  0  0  0  0  0
  -89.2519   33.4264   -4.1498 C   0  0  0  0  0  0  0  0  0  0  0  0
  -89.5740   34.7655   -3.9733 C   0  0  0  0  0  0  0  0  0  0  0  0
  -88.0542   37.9754   -3.1967 C   0  0  0  0  0  0  0  0  0  0  0  0
  -89.0600   36.9946   -3.3394 O   0  0  0  0  0  0  0  0  0  0  0  0
  -90.1991   32.5541   -4.6390 O   0  0  0  0  0  0  0  0  0  0  0  0
  -90.8661   31.6620   -3.7637 C   0  0  0  0  0  0  0  0  0  0  0  0
  -90.8626   35.1563   -4.3089 O   0  0  0  0  0  0  0  0  0  0  0  0
  -91.2144   35.6326   -5.5930 C   0  0  0  0  0  0  0  0  0  0  0  0
  -86.6091   30.9581    0.9508 N   0  0  0  0  0  0  0  0  0  0  0  0
  -87.3156   31.4456    1.5406 H   0  0  0  0  0  0  0  0  0  0  0  0
  -86.6039   29.5590    0.9836 C   0  0  0  0  0  0  0  0  0  0  0  0
  -85.6553   28.8558    1.7410 C   0  0  0  0  0  0  0  0  0  0  0  0
  -85.5848   27.4731    1.6569 C   0  0  0  0  0  0  0  0  0  0  0  0
  -86.4247   26.7597    0.8442 C   0  0  0  0  0  0  0  0  0  0  0  0
  -87.3365   27.4621    0.1202 C   0  0  0  0  0  0  0  0  0  0  0  0
  -87.4746   28.8621    0.1498 C   0  0  0  0  0  0  0  0  0  0  0  0
  -88.7508   29.6203   -0.7295 S   0  0  0  0  0  0  0  0  0  0  0  0
  -88.1683   29.9709   -2.1214 O   0  0  0  0  0  0  0  0  0  0  0  0
  -89.1636   30.9650   -0.1959 O   0  0  0  0  0  0  0  0  0  0  0  0
  -90.1433   28.6003   -1.0676 C   0  0  0  0  0  0  0  0  0  0  0  0
  -90.0332   28.0264   -2.5068 C   0  0  0  0  0  0  0  0  0  0  0  0
  -91.4818   29.2323   -0.9946 C   0  0  0  0  0  0  0  0  0  0  0  0
 16 17  1  0  0  0
 17 10  1  0  0  0
 10 11  2  0  0  0
 11 12  1  0  0  0
 12  8  1  0  0  0
  8  1  1  0  0  0
  1  2  2  0  0  0
  2  3  1  0  0  0
  3  4  2  0  0  0
  4  5  1  0  0  0
  4  6  1  0  0  0
  6 22  1  0  0  0
 22 24  1  0  0  0
 24 25  2  0  0  0
 25 26  1  0  0  0
 26 27  2  0  0  0
 27 28  1  0  0  0
 28 29  2  0  0  0
 29 30  1  0  0  0
 30 31  2  0  0  0
 30 32  2  0  0  0
 30 33  1  0  0  0
 33 34  1  0  0  0
 33 35  1  0  0  0
  6  7  2  0  0  0
 12 13  2  0  0  0
 13 14  1  0  0  0
 14 18  1  0  0  0
 18 19  1  0  0  0
 14 15  2  0  0  0
 15 20  1  0  0  0
 20 21  1  0  0  0
 15 10  1  0  0  0
  7  1  1  0  0  0
 29 24  1  0  0  0
  8  9  1  0  0  0
 22 23  1  0  0  0
M  END
> <minimizedAffinity>
-6.85177

> <CNNscore>
0.7867223620

> <CNNaffinity>
7.4380483627

> <CNN_VS>
5.8516788483

> <CNNaffinity_variance>
0.1545452327

$$$$
[H]c1nc(N([H])c2c([H])c(OC([H])([H])[H])c(OC([H])([H])[H])c(OC([H])([H])[H])c2[H])nc(N([H])c2c([H])c([H])c([H])c([H])c2S(=O)(=O)C([H])(C([H])([H])[H])C([H])([H])[H])c1Cl


 35 37  0  0  0  0  0  0  0  0999 V2000
  -85.0703   31.7784    0.5384 C   0  0  0  0  0  0  0  0  0  0  0  0
  -83.9002   31.6549    1.1664 N   0  0  0  0  0  0  0  0  0  0  0  0
  -83.5904   30.4947    1.7492 C   0  0  0  0  0  0  0  0  0  0  0  0
  -84.4192   29.4257    1.7315 C   0  0  0  0  0  0  0  0  0  0  0  0
  -84.0490   27.9003    2.4989 Cl  0  0  0  0  0  0  0  0  0  0  0  0
  -85.6667   29.5232    1.0739 C   0  0  0  0  0  0  0  0  0  0  0  0
  -85.8907   30.7222    0.5199 N   0  0  0  0  0  0  0  0  0  0  0  0
  -85.4911   32.9530   -0.1043 N   0  0  0  0  0  0  0  0  0  0  0  0
  -84.9570   33.8526    0.1155 H   0  0  0  0  0  0  0  0  0  0  0  0
  -88.8060   32.7626   -1.7673 C   0  0  0  0  0  0  0  0  0  0  0  0
  -87.8046   32.5577   -0.8238 C   0  0  0  0  0  0  0  0  0  0  0  0
  -86.5609   33.0914   -1.0329 C   0  0  0  0  0  0  0  0  0  0  0  0
  -86.3127   33.8411   -2.2049 C   0  0  0  0  0  0  0  0  0  0  0  0
  -87.2949   34.0441   -3.1349 C   0  0  0  0  0  0  0  0  0  0  0  0
  -88.5398   33.4847   -2.8794 C   0  0  0  0  0  0  0  0  0  0  0  0
  -90.1987   30.8251   -1.4586 C   0  0  0  0  0  0  0  0  0  0  0  0
  -90.0579   32.2267   -1.5573 O   0  0  0  0  0  0  0  0  0  0  0  0
  -87.0945   34.7679   -4.2896 O   0  0  0  0  0  0  0  0  0  0  0  0
  -87.1810   36.1818   -4.2684 C   0  0  0  0  0  0  0  0  0  0  0  0
  -89.5337   33.6932   -3.8252 O   0  0  0  0  0  0  0  0  0  0  0  0
  -89.7703   32.8092   -4.9032 C   0  0  0  0  0  0  0  0  0  0  0  0
  -86.5088   28.4019    1.0088 N   0  0  0  0  0  0  0  0  0  0  0  0
  -86.5672   27.8207    1.8711 H   0  0  0  0  0  0  0  0  0  0  0  0
  -87.2941   28.0101   -0.0813 C   0  0  0  0  0  0  0  0  0  0  0  0
  -86.9959   28.4433   -1.3818 C   0  0  0  0  0  0  0  0  0  0  0  0
  -87.8596   28.1517   -2.4272 C   0  0  0  0  0  0  0  0  0  0  0  0
  -89.0143   27.4433   -2.2278 C   0  0  0  0  0  0  0  0  0  0  0  0
  -89.2824   27.0329   -0.9594 C   0  0  0  0  0  0  0  0  0  0  0  0
  -88.4593   27.2847    0.1537 C   0  0  0  0  0  0  0  0  0  0  0  0
  -88.8569   26.6066    1.6896 S   0  0  0  0  0  0  0  0  0  0  0  0
  -87.5138   26.1894    2.3390 O   0  0  0  0  0  0  0  0  0  0  0  0
  -89.6092   25.3055    1.6217 O   0  0  0  0  0  0  0  0  0  0  0  0
  -89.5869   27.7198    2.8392 C   0  0  0  0  0  0  0  0  0  0  0  0
  -89.8680   26.9802    4.1759 C   0  0  0  0  0  0  0  0  0  0  0  0
  -90.8740   28.3458    2.4548 C   0  0  0  0  0  0  0  0  0  0  0  0
 16 17  1  0  0  0
 17 10  1  0  0  0
 10 11  2  0  0  0
 11 12  1  0  0  0
 12  8  1  0  0  0
  8  1  1  0  0  0
  1  2  2  0  0  0
  2  3  1  0  0  0
  3  4  2  0  0  0
  4  5  1  0  0  0
  4  6  1  0  0  0
  6 22  1  0  0  0
 22 24  1  0  0  0
 24 25  2  0  0  0
 25 26  1  0  0  0
 26 27  2  0  0  0
 27 28  1  0  0  0
 28 29  2  0  0  0
 29 30  1  0  0  0
 30 31  2  0  0  0
 30 32  2  0  0  0
 30 33  1  0  0  0
 33 34  1  0  0  0
 33 35  1  0  0  0
  6  7  2  0  0  0
 12 13  2  0  0  0
 13 14  1  0  0  0
 14 18  1  0  0  0
 18 19  1  0  0  0
 14 15  2  0  0  0
 15 20  1  0  0  0
 20 21  1  0  0  0
 15 10  1  0  0  0
  7  1  1  0  0  0
 29 24  1  0  0  0
  8  9  1  0  0  0
 22 23  1  0  0  0
M  END
> <minimizedAffinity>
-8.04234

> <CNNscore>
0.5821472406

> <CNNaffinity>
7.5184373856

> <CNN_VS>
4.3768377304

> <CNNaffinity_variance>
0.1011581570

$$$$
[H]c1nc(N([H])c2c([H])c(OC([H])([H])[H])c(OC([H])([H])[H])c(OC([H])([H])[H])c2[H])nc(N([H])c2c([H])c([H])c([H])c([H])c2S(=O)(=O)C([H])(C([H])([H])[H])C([H])([H])[H])c1Cl


 35 37  0  0  0  0  0  0  0  0999 V2000
  -85.9137   33.2913   -2.1634 C   0  0  0  0  0  0  0  0  0  0  0  0
  -84.7610   33.4691   -1.5166 N   0  0  0  0  0  0  0  0  0  0  0  0
  -84.5511   32.8257   -0.3660 C   0  0  0  0  0  0  0  0  0  0  0  0
  -85.4653   31.9916    0.1802 C   0  0  0  0  0  0  0  0  0  0  0  0
  -85.2264   31.1488    1.6919 Cl  0  0  0  0  0  0  0  0  0  0  0  0
  -86.6972   31.7807   -0.4803 C   0  0  0  0  0  0  0  0  0  0  0  0
  -86.8185   32.4667   -1.6246 N   0  0  0  0  0  0  0  0  0  0  0  0
  -86.2327   33.9199   -3.3771 N   0  0  0  0  0  0  0  0  0  0  0  0
  -85.5600   33.7793   -4.1959 H   0  0  0  0  0  0  0  0  0  0  0  0
  -89.5621   35.1186   -4.5034 C   0  0  0  0  0  0  0  0  0  0  0  0
  -88.4824   34.2664   -4.2965 C   0  0  0  0  0  0  0  0  0  0  0  0
  -87.3671   34.7338   -3.6538 C   0  0  0  0  0  0  0  0  0  0  0  0
  -87.3290   36.0756   -3.2115 C   0  0  0  0  0  0  0  0  0  0  0  0
  -88.3887   36.9163   -3.4137 C   0  0  0  0  0  0  0  0  0  0  0  0
  -89.4977   36.3977   -4.0689 C   0  0  0  0  0  0  0  0  0  0  0  0
  -90.6000   34.3075   -6.5168 C   0  0  0  0  0  0  0  0  0  0  0  0
  -90.6849   34.6489   -5.1492 O   0  0  0  0  0  0  0  0  0  0  0  0
  -88.3921   38.2299   -2.9988 O   0  0  0  0  0  0  0  0  0  0  0  0
  -87.3994   39.1269   -3.4645 C   0  0  0  0  0  0  0  0  0  0  0  0
  -90.5709   37.2538   -4.2718 O   0  0  0  0  0  0  0  0  0  0  0  0
  -90.7228   38.0371   -5.4392 C   0  0  0  0  0  0  0  0  0  0  0  0
  -87.6288   30.8777    0.0556 N   0  0  0  0  0  0  0  0  0  0  0  0
  -88.3320   31.2782    0.7112 H   0  0  0  0  0  0  0  0  0  0  0  0
  -87.7230   29.5101   -0.2264 C   0  0  0  0  0  0  0  0  0  0  0  0
  -86.8482   28.5866    0.3649 C   0  0  0  0  0  0  0  0  0  0  0  0
  -86.8728   27.2562   -0.0266 C   0  0  0  0  0  0  0  0  0  0  0  0
  -87.7376   26.8070   -0.9886 C   0  0  0  0  0  0  0  0  0  0  0  0
  -88.5768   27.7197   -1.5472 C   0  0  0  0  0  0  0  0  0  0  0  0
  -88.6168   29.0841   -1.2056 C   0  0  0  0  0  0  0  0  0  0  0  0
  -89.8110   30.1128   -1.9072 S   0  0  0  0  0  0  0  0  0  0  0  0
  -90.1307   31.1926   -0.8436 O   0  0  0  0  0  0  0  0  0  0  0  0
  -91.1481   29.4585   -2.1259 O   0  0  0  0  0  0  0  0  0  0  0  0
  -89.2902   31.0157   -3.3240 C   0  0  0  0  0  0  0  0  0  0  0  0
  -90.4356   31.0481   -4.3727 C   0  0  0  0  0  0  0  0  0  0  0  0
  -88.1015   30.5117   -4.0514 C   0  0  0  0  0  0  0  0  0  0  0  0
 16 17  1  0  0  0
 17 10  1  0  0  0
 10 11  2  0  0  0
 11 12  1  0  0  0
 12  8  1  0  0  0
  8  1  1  0  0  0
  1  2  2  0  0  0
  2  3  1  0  0  0
  3  4  2  0  0  0
  4  5  1  0  0  0
  4  6  1  0  0  0
  6 22  1  0  0  0
 22 24  1  0  0  0
 24 25  2  0  0  0
 25 26  1  0  0  0
 26 27  2  0  0  0
 27 28  1  0  0  0
 28 29  2  0  0  0
 29 30  1  0  0  0
 30 31  2  0  0  0
 30 32  2  0  0  0
 30 33  1  0  0  0
 33 34  1  0  0  0
 33 35  1  0  0  0
  6  7  2  0  0  0
 12 13  2  0  0  0
 13 14  1  0  0  0
 14 18  1  0  0  0
 18 19  1  0  0  0
 14 15  2  0  0  0
 15 20  1  0  0  0
 20 21  1  0  0  0
 15 10  1  0  0  0
  7  1  1  0  0  0
 29 24  1  0  0  0
  8  9  1  0  0  0
 22 23  1  0  0  0
M  END
> <minimizedAffinity>
-6.82761

> <CNNscore>
0.5132852197

> <CNNaffinity>
6.9979743958

> <CNN_VS>
3.5919568539

> <CNNaffinity_variance>
0.2112905979

$$$$
[H]c1nc(N([H])c2c([H])c(OC([H])([H])[H])c(OC([H])([H])[H])c(OC([H])([H])[H])c2[H])nc(N([H])c2c([H])c([H])c([H])c([H])c2S(=O)(=O)C([H])(C([H])([H])[H])C([H])([H])[H])c1Cl


 35 37  0  0  0  0  0  0  0  0999 V2000
  -86.1773   27.5491    1.1437 C   0  0  0  0  0  0  0  0  0  0  0  0
  -85.0897   27.5820    1.9149 N   0  0  0  0  0  0  0  0  0  0  0  0
  -84.5733   28.7616    2.2667 C   0  0  0  0  0  0  0  0  0  0  0  0
  -85.1095   29.9391    1.8717 C   0  0  0  0  0  0  0  0  0  0  0  0
  -84.4471   31.4976    2.3019 Cl  0  0  0  0  0  0  0  0  0  0  0  0
  -86.2626   29.9393    1.0542 C   0  0  0  0  0  0  0  0  0  0  0  0
  -86.7086   28.7125    0.7525 N   0  0  0  0  0  0  0  0  0  0  0  0
  -86.7968   26.3637    0.7181 N   0  0  0  0  0  0  0  0  0  0  0  0
  -86.1654   25.5282    0.5031 H   0  0  0  0  0  0  0  0  0  0  0  0
  -90.0739   24.8147   -0.0886 C   0  0  0  0  0  0  0  0  0  0  0  0
  -88.6966   24.9707    0.0279 C   0  0  0  0  0  0  0  0  0  0  0  0
  -88.1902   26.1361    0.5388 C   0  0  0  0  0  0  0  0  0  0  0  0
  -89.0745   27.1635    0.9387 C   0  0  0  0  0  0  0  0  0  0  0  0
  -90.4292   27.0135    0.8250 C   0  0  0  0  0  0  0  0  0  0  0  0
  -90.8961   25.8147    0.3025 C   0  0  0  0  0  0  0  0  0  0  0  0
  -89.8196   22.4588   -0.5061 C   0  0  0  0  0  0  0  0  0  0  0  0
  -90.5843   23.6421   -0.6017 O   0  0  0  0  0  0  0  0  0  0  0  0
  -91.3248   27.9896    1.2027 O   0  0  0  0  0  0  0  0  0  0  0  0
  -91.1496   28.6829    2.4256 C   0  0  0  0  0  0  0  0  0  0  0  0
  -92.2712   25.6663    0.1892 O   0  0  0  0  0  0  0  0  0  0  0  0
  -92.9719   25.8709   -1.0218 C   0  0  0  0  0  0  0  0  0  0  0  0
  -86.8527   31.1578    0.6831 N   0  0  0  0  0  0  0  0  0  0  0  0
  -87.4713   31.6035    1.3926 H   0  0  0  0  0  0  0  0  0  0  0  0
  -86.6677   31.8411   -0.5242 C   0  0  0  0  0  0  0  0  0  0  0  0
  -85.5227   32.6201   -0.7476 C   0  0  0  0  0  0  0  0  0  0  0  0
  -85.4199   33.3923   -1.8952 C   0  0  0  0  0  0  0  0  0  0  0  0
  -86.4172   33.4203   -2.8331 C   0  0  0  0  0  0  0  0  0  0  0  0
  -87.5172   32.6568   -2.5959 C   0  0  0  0  0  0  0  0  0  0  0  0
  -87.6983   31.8455   -1.4606 C   0  0  0  0  0  0  0  0  0  0  0  0
  -89.0913   30.8349   -1.3379 S   0  0  0  0  0  0  0  0  0  0  0  0
  -90.1580   31.4527   -2.2759 O   0  0  0  0  0  0  0  0  0  0  0  0
  -89.7713   30.8694    0.0037 O   0  0  0  0  0  0  0  0  0  0  0  0
  -88.8812   29.1875   -1.9175 C   0  0  0  0  0  0  0  0  0  0  0  0
  -87.7733   29.1541   -3.0057 C   0  0  0  0  0  0  0  0  0  0  0  0
  -90.0583   28.5280   -2.5304 C   0  0  0  0  0  0  0  0  0  0  0  0
 16 17  1  0  0  0
 17 10  1  0  0  0
 10 11  2  0  0  0
 11 12  1  0  0  0
 12  8  1  0  0  0
  8  1  1  0  0  0
  1  2  2  0  0  0
  2  3  1  0  0  0
  3  4  2  0  0  0
  4  5  1  0  0  0
  4  6  1  0  0  0
  6 22  1  0  0  0
 22 24  1  0  0  0
 24 25  2  0  0  0
 25 26  1  0  0  0
 26 27  2  0  0  0
 27 28  1  0  0  0
 28 29  2  0  0  0
 29 30  1  0  0  0
 30 31  2  0  0  0
 30 32  2  0  0  0
 30 33  1  0  0  0
 33 34  1  0  0  0
 33 35  1  0  0  0
  6  7  2  0  0  0
 12 13  2  0  0  0
 13 14  1  0  0  0
 14 18  1  0  0  0
 18 19  1  0  0  0
 14 15  2  0  0  0
 15 20  1  0  0  0
 20 21  1  0  0  0
 15 10  1  0  0  0
  7  1  1  0  0  0
 29 24  1  0  0  0
  8  9  1  0  0  0
 22 23  1  0  0  0
M  END
> <minimizedAffinity>
-6.82428

> <CNNscore>
0.1361521780

> <CNNaffinity>
6.6577315331

> <CNN_VS>
0.9064646363

> <CNNaffinity_variance>
0.3097851872

$$$$
[H]c1nc(N([H])c2c([H])c(OC([H])([H])[H])c(OC([H])([H])[H])c(OC([H])([H])[H])c2[H])nc(N([H])c2c([H])c([H])c([H])c([H])c2S(=O)(=O)C([H])(C([H])([H])[H])C([H])([H])[H])c1Cl


 35 37  0  0  0  0  0  0  0  0999 V2000
  -88.9702   30.5288   -1.2590 C   0  0  0  0  0  0  0  0  0  0  0  0
  -89.4247   30.5702   -2.5121 N   0  0  0  0  0  0  0  0  0  0  0  0
  -90.5685   29.9516   -2.8133 C   0  0  0  0  0  0  0  0  0  0  0  0
  -91.2963   29.2766   -1.8943 C   0  0  0  0  0  0  0  0  0  0  0  0
  -92.7876   28.4435   -2.2614 Cl  0  0  0  0  0  0  0  0  0  0  0  0
  -90.8428   29.2140   -0.5569 C   0  0  0  0  0  0  0  0  0  0  0  0
  -89.6888   29.8620   -0.3492 N   0  0  0  0  0  0  0  0  0  0  0  0
  -87.7807   31.1445   -0.8393 N   0  0  0  0  0  0  0  0  0  0  0  0
  -87.5632   32.1144   -1.2328 H   0  0  0  0  0  0  0  0  0  0  0  0
  -84.8313   30.7628    1.3845 C   0  0  0  0  0  0  0  0  0  0  0  0
  -85.7147   31.3320    0.4732 C   0  0  0  0  0  0  0  0  0  0  0  0
  -86.8140   30.6239    0.0663 C   0  0  0  0  0  0  0  0  0  0  0  0
  -87.0339   29.3246    0.5773 C   0  0  0  0  0  0  0  0  0  0  0  0
  -86.1670   28.7618    1.4730 C   0  0  0  0  0  0  0  0  0  0  0  0
  -85.0673   29.5177    1.8569 C   0  0  0  0  0  0  0  0  0  0  0  0
  -82.7243   31.7952    0.8521 C   0  0  0  0  0  0  0  0  0  0  0  0
  -83.7255   31.4749    1.7950 O   0  0  0  0  0  0  0  0  0  0  0  0
  -86.3446   27.4993    1.9947 O   0  0  0  0  0  0  0  0  0  0  0  0
  -86.8081   26.4457    1.1689 C   0  0  0  0  0  0  0  0  0  0  0  0
  -84.1904   28.9433    2.7662 O   0  0  0  0  0  0  0  0  0  0  0  0
  -83.0201   28.2513    2.3776 C   0  0  0  0  0  0  0  0  0  0  0  0
  -91.6191   28.5580    0.4114 N   0  0  0  0  0  0  0  0  0  0  0  0
  -92.6264   28.4272    0.1811 H   0  0  0  0  0  0  0  0  0  0  0  0
  -91.1692   28.0401    1.6313 C   0  0  0  0  0  0  0  0  0  0  0  0
  -91.1032   28.8438    2.7791 C   0  0  0  0  0  0  0  0  0  0  0  0
  -90.5328   28.3490    3.9427 C   0  0  0  0  0  0  0  0  0  0  0  0
  -90.0225   27.0801    4.0085 C   0  0  0  0  0  0  0  0  0  0  0  0
  -90.0982   26.3190    2.8841 C   0  0  0  0  0  0  0  0  0  0  0  0
  -90.6617   26.7438    1.6668 C   0  0  0  0  0  0  0  0  0  0  0  0
  -90.8007   25.6380    0.3498 S   0  0  0  0  0  0  0  0  0  0  0  0
  -89.8045   26.1258   -0.7315 O   0  0  0  0  0  0  0  0  0  0  0  0
  -92.1206   25.6876   -0.3705 O   0  0  0  0  0  0  0  0  0  0  0  0
  -90.3130   23.9844    0.6989 C   0  0  0  0  0  0  0  0  0  0  0  0
  -89.9117   23.2689   -0.6200 C   0  0  0  0  0  0  0  0  0  0  0  0
  -91.3162   23.1014    1.3392 C   0  0  0  0  0  0  0  0  0  0  0  0
 16 17  1  0  0  0
 17 10  1  0  0  0
 10 11  2  0  0  0
 11 12  1  0  0  0
 12  8  1  0  0  0
  8  1  1  0  0  0
  1  2  2  0  0  0
  2  3  1  0  0  0
  3  4  2  0  0  0
  4  5  1  0  0  0
  4  6  1  0  0  0
  6 22  1  0  0  0
 22 24  1  0  0  0
 24 25  2  0  0  0
 25 26  1  0  0  0
 26 27  2  0  0  0
 27 28  1  0  0  0
 28 29  2  0  0  0
 29 30  1  0  0  0
 30 31  2  0  0  0
 30 32  2  0  0  0
 30 33  1  0  0  0
 33 34  1  0  0  0
 33 35  1  0  0  0
  6  7  2  0  0  0
 12 13  2  0  0  0
 13 14  1  0  0  0
 14 18  1  0  0  0
 18 19  1  0  0  0
 14 15  2  0  0  0
 15 20  1  0  0  0
 20 21  1  0  0  0
 15 10  1  0  0  0
  7  1  1  0  0  0
 29 24  1  0  0  0
  8  9  1  0  0  0
 22 23  1  0  0  0
M  END
> <minimizedAffinity>
-7.52975

> <CNNscore>
0.1117506400

> <CNNaffinity>
6.4095487595

> <CNN_VS>
0.7162711620

> <CNNaffinity_variance>
0.5247465372

$$$$
[H]c1nc(N([H])c2c([H])c(OC([H])([H])[H])c(OC([H])([H])[H])c(OC([H])([H])[H])c2[H])nc(N([H])c2c([H])c([H])c([H])c([H])c2S(=O)(=O)C([H])(C([H])([H])[H])C([H])([H])[H])c1Cl


 35 37  0  0  0  0  0  0  0  0999 V2000
  -87.5589   27.1638   -0.5864 C   0  0  0  0  0  0  0  0  0  0  0  0
  -87.2536   26.4151    0.4742 N   0  0  0  0  0  0  0  0  0  0  0  0
  -86.7053   26.9921    1.5456 C   0  0  0  0  0  0  0  0  0  0  0  0
  -86.4421   28.3177    1.6053 C   0  0  0  0  0  0  0  0  0  0  0  0
  -85.7103   29.0987    2.9864 Cl  0  0  0  0  0  0  0  0  0  0  0  0
  -86.7541   29.1396    0.4984 C   0  0  0  0  0  0  0  0  0  0  0  0
  -87.2994   28.4746   -0.5288 N   0  0  0  0  0  0  0  0  0  0  0  0
  -88.1366   26.6557   -1.7603 N   0  0  0  0  0  0  0  0  0  0  0  0
  -87.4946   26.1382   -2.4407 H   0  0  0  0  0  0  0  0  0  0  0  0
  -91.4217   27.9205   -2.9428 C   0  0  0  0  0  0  0  0  0  0  0  0
  -90.0907   27.9214   -2.5388 C   0  0  0  0  0  0  0  0  0  0  0  0
  -89.5001   26.7457   -2.1585 C   0  0  0  0  0  0  0  0  0  0  0  0
  -90.2522   25.5493   -2.1807 C   0  0  0  0  0  0  0  0  0  0  0  0
  -91.5612   25.5451   -2.5769 C   0  0  0  0  0  0  0  0  0  0  0  0
  -92.1168   26.7604   -2.9543 C   0  0  0  0  0  0  0  0  0  0  0  0
  -91.7336   30.2819   -2.6028 C   0  0  0  0  0  0  0  0  0  0  0  0
  -92.0165   29.1028   -3.3264 O   0  0  0  0  0  0  0  0  0  0  0  0
  -92.3289   24.4019   -2.6128 O   0  0  0  0  0  0  0  0  0  0  0  0
  -91.7107   23.1313   -2.7134 C   0  0  0  0  0  0  0  0  0  0  0  0
  -93.4451   26.7519   -3.3560 O   0  0  0  0  0  0  0  0  0  0  0  0
  -94.5203   26.9958   -2.4706 C   0  0  0  0  0  0  0  0  0  0  0  0
  -86.5299   30.5233    0.5737 N   0  0  0  0  0  0  0  0  0  0  0  0
  -87.3019   31.0923    0.9801 H   0  0  0  0  0  0  0  0  0  0  0  0
  -85.3688   31.2030    0.1881 C   0  0  0  0  0  0  0  0  0  0  0  0
  -84.1181   30.8616    0.7238 C   0  0  0  0  0  0  0  0  0  0  0  0
  -83.0019   31.6305    0.4289 C   0  0  0  0  0  0  0  0  0  0  0  0
  -83.0825   32.7313   -0.3814 C   0  0  0  0  0  0  0  0  0  0  0  0
  -84.3046   33.0426   -0.8900 C   0  0  0  0  0  0  0  0  0  0  0  0
  -85.4833   32.3150   -0.6421 C   0  0  0  0  0  0  0  0  0  0  0  0
  -86.9479   32.7491   -1.4441 S   0  0  0  0  0  0  0  0  0  0  0  0
  -86.8580   34.2717   -1.7147 O   0  0  0  0  0  0  0  0  0  0  0  0
  -88.1829   32.6373   -0.5922 O   0  0  0  0  0  0  0  0  0  0  0  0
  -87.1838   32.0228   -3.0286 C   0  0  0  0  0  0  0  0  0  0  0  0
  -87.8278   33.0607   -3.9881 C   0  0  0  0  0  0  0  0  0  0  0  0
  -88.0506   30.8231   -3.1035 C   0  0  0  0  0  0  0  0  0  0  0  0
 16 17  1  0  0  0
 17 10  1  0  0  0
 10 11  2  0  0  0
 11 12  1  0  0  0
 12  8  1  0  0  0
  8  1  1  0  0  0
  1  2  2  0  0  0
  2  3  1  0  0  0
  3  4  2  0  0  0
  4  5  1  0  0  0
  4  6  1  0  0  0
  6 22  1  0  0  0
 22 24  1  0  0  0
 24 25  2  0  0  0
 25 26  1  0  0  0
 26 27  2  0  0  0
 27 28  1  0  0  0
 28 29  2  0  0  0
 29 30  1  0  0  0
 30 31  2  0  0  0
 30 32  2  0  0  0
 30 33  1  0  0  0
 33 34  1  0  0  0
 33 35  1  0  0  0
  6  7  2  0  0  0
 12 13  2  0  0  0
 13 14  1  0  0  0
 14 18  1  0  0  0
 18 19  1  0  0  0
 14 15  2  0  0  0
 15 20  1  0  0  0
 20 21  1  0  0  0
 15 10  1  0  0  0
  7  1  1  0  0  0
 29 24  1  0  0  0
  8  9  1  0  0  0
 22 23  1  0  0  0
M  END
> <minimizedAffinity>
-7.53189

> <CNNscore>
0.1115454510

> <CNNaffinity>
6.1463079453

> <CNN_VS>
0.6855927110

> <CNNaffinity_variance>
0.8166573644

$$$$
[H]c1nc(N([H])c2c([H])c(OC([H])([H])[H])c(OC([H])([H])[H])c(OC([H])([H])[H])c2[H])nc(N([H])c2c([H])c([H])c([H])c([H])c2S(=O)(=O)C([H])(C([H])([H])[H])C([H])([H])[H])c1Cl


 35 37  0  0  0  0  0  0  0  0999 V2000
  -89.2519   32.2897   -1.8896 C   0  0  0  0  0  0  0  0  0  0  0  0
  -88.8235   33.4475   -2.3942 N   0  0  0  0  0  0  0  0  0  0  0  0
  -87.5426   33.7917   -2.2447 C   0  0  0  0  0  0  0  0  0  0  0  0
  -86.6484   33.0101   -1.5969 C   0  0  0  0  0  0  0  0  0  0  0  0
  -84.9703   33.4408   -1.3709 Cl  0  0  0  0  0  0  0  0  0  0  0  0
  -87.0699   31.7763   -1.0508 C   0  0  0  0  0  0  0  0  0  0  0  0
  -88.3690   31.5158   -1.2490 N   0  0  0  0  0  0  0  0  0  0  0  0
  -90.5762   31.8361   -1.9915 N   0  0  0  0  0  0  0  0  0  0  0  0
  -91.3529   32.5686   -1.9359 H   0  0  0  0  0  0  0  0  0  0  0  0
  -91.7145   28.6309   -3.4817 C   0  0  0  0  0  0  0  0  0  0  0  0
  -91.3189   29.9614   -3.3915 C   0  0  0  0  0  0  0  0  0  0  0  0
  -91.0163   30.4940   -2.1667 C   0  0  0  0  0  0  0  0  0  0  0  0
  -91.1117   29.6842   -1.0122 C   0  0  0  0  0  0  0  0  0  0  0  0
  -91.5007   28.3758   -1.0974 C   0  0  0  0  0  0  0  0  0  0  0  0
  -91.7965   27.8797   -2.3601 C   0  0  0  0  0  0  0  0  0  0  0  0
  -93.2837   28.3536   -5.2844 C   0  0  0  0  0  0  0  0  0  0  0  0
  -92.0183   28.0940   -4.7138 O   0  0  0  0  0  0  0  0  0  0  0  0
  -91.6066   27.5531    0.0024 O   0  0  0  0  0  0  0  0  0  0  0  0
  -90.8746   27.8408    1.1807 C   0  0  0  0  0  0  0  0  0  0  0  0
  -92.1905   26.5516   -2.4423 O   0  0  0  0  0  0  0  0  0  0  0  0
  -91.2831   25.4902   -2.6651 C   0  0  0  0  0  0  0  0  0  0  0  0
  -86.1358   30.9381   -0.4219 N   0  0  0  0  0  0  0  0  0  0  0  0
  -85.2165   31.3684   -0.1885 H   0  0  0  0  0  0  0  0  0  0  0  0
  -86.3287   29.6018   -0.0534 C   0  0  0  0  0  0  0  0  0  0  0  0
  -87.0440   28.7195   -0.8766 C   0  0  0  0  0  0  0  0  0  0  0  0
  -87.3358   27.4376   -0.4343 C   0  0  0  0  0  0  0  0  0  0  0  0
  -86.9425   26.9979    0.8014 C   0  0  0  0  0  0  0  0  0  0  0  0
  -86.2498   27.8699    1.5817 C   0  0  0  0  0  0  0  0  0  0  0  0
  -85.9118   29.1837    1.2078 C   0  0  0  0  0  0  0  0  0  0  0  0
  -84.9277   30.1483    2.2459 S   0  0  0  0  0  0  0  0  0  0  0  0
  -85.2540   29.6987    3.6919 O   0  0  0  0  0  0  0  0  0  0  0  0
  -85.2859   31.6094    2.2654 O   0  0  0  0  0  0  0  0  0  0  0  0
  -83.1934   29.9069    2.0793 C   0  0  0  0  0  0  0  0  0  0  0  0
  -82.7279   30.4079    0.6847 C   0  0  0  0  0  0  0  0  0  0  0  0
  -82.6872   28.5185    2.1905 C   0  0  0  0  0  0  0  0  0  0  0  0
 16 17  1  0  0  0
 17 10  1  0  0  0
 10 11  2  0  0  0
 11 12  1  0  0  0
 12  8  1  0  0  0
  8  1  1  0  0  0
  1  2  2  0  0  0
  2  3  1  0  0  0
  3  4  2  0  0  0
  4  5  1  0  0  0
  4  6  1  0  0  0
  6 22  1  0  0  0
 22 24  1  0  0  0
 24 25  2  0  0  0
 25 26  1  0  0  0
 26 27  2  0  0  0
 27 28  1  0  0  0
 28 29  2  0  0  0
 29 30  1  0  0  0
 30 31  2  0  0  0
 30 32  2  0  0  0
 30 33  1  0  0  0
 33 34  1  0  0  0
 33 35  1  0  0  0
  6  7  2  0  0  0
 12 13  2  0  0  0
 13 14  1  0  0  0
 14 18  1  0  0  0
 18 19  1  0  0  0
 14 15  2  0  0  0
 15 20  1  0  0  0
 20 21  1  0  0  0
 15 10  1  0  0  0
  7  1  1  0  0  0
 29 24  1  0  0  0
  8  9  1  0  0  0
 22 23  1  0  0  0
M  END
> <minimizedAffinity>
-7.68917

> <CNNscore>
0.1107956395

> <CNNaffinity>
6.3784623146

> <CNN_VS>
0.7067058086

> <CNNaffinity_variance>
0.5595573187

$$$$
[H]c1nc(N([H])c2c([H])c(OC([H])([H])[H])c(OC([H])([H])[H])c(OC([H])([H])[H])c2[H])nc(N([H])c2c([H])c([H])c([H])c([H])c2S(=O)(=O)C([H])(C([H])([H])[H])C([H])([H])[H])c1Cl


 35 37  0  0  0  0  0  0  0  0999 V2000
  -87.2498   26.9603   -0.2699 C   0  0  0  0  0  0  0  0  0  0  0  0
  -86.8537   26.3222    0.8323 N   0  0  0  0  0  0  0  0  0  0  0  0
  -86.3751   27.0275    1.8595 C   0  0  0  0  0  0  0  0  0  0  0  0
  -86.2724   28.3761    1.8331 C   0  0  0  0  0  0  0  0  0  0  0  0
  -85.6351   29.3250    3.1545 Cl  0  0  0  0  0  0  0  0  0  0  0  0
  -86.6840   29.0829    0.6802 C   0  0  0  0  0  0  0  0  0  0  0  0
  -87.1490   28.2936   -0.2974 N   0  0  0  0  0  0  0  0  0  0  0  0
  -87.7662   26.3133   -1.4033 N   0  0  0  0  0  0  0  0  0  0  0  0
  -87.0656   25.8808   -2.0851 H   0  0  0  0  0  0  0  0  0  0  0  0
  -91.0877   26.6926   -3.0201 C   0  0  0  0  0  0  0  0  0  0  0  0
  -89.7520   26.9262   -2.7100 C   0  0  0  0  0  0  0  0  0  0  0  0
  -89.1359   26.1585   -1.7579 C   0  0  0  0  0  0  0  0  0  0  0  0
  -89.8668   25.1411   -1.1035 C   0  0  0  0  0  0  0  0  0  0  0  0
  -91.1804   24.9091   -1.4057 C   0  0  0  0  0  0  0  0  0  0  0  0
  -91.7621   25.7119   -2.3780 C   0  0  0  0  0  0  0  0  0  0  0  0
  -92.1432   28.7641   -3.6398 C   0  0  0  0  0  0  0  0  0  0  0  0
  -91.7080   27.4641   -3.9785 O   0  0  0  0  0  0  0  0  0  0  0  0
  -91.9279   23.9285   -0.7917 O   0  0  0  0  0  0  0  0  0  0  0  0
  -92.1167   23.9502    0.6121 C   0  0  0  0  0  0  0  0  0  0  0  0
  -93.0949   25.4731   -2.6820 O   0  0  0  0  0  0  0  0  0  0  0  0
  -93.5056   24.6200   -3.7322 C   0  0  0  0  0  0  0  0  0  0  0  0
  -86.6270   30.4854    0.6662 N   0  0  0  0  0  0  0  0  0  0  0  0
  -87.4473   30.9826    1.0719 H   0  0  0  0  0  0  0  0  0  0  0  0
  -85.5714   31.2731    0.1927 C   0  0  0  0  0  0  0  0  0  0  0  0
  -84.2723   31.1243    0.7005 C   0  0  0  0  0  0  0  0  0  0  0  0
  -83.2697   32.0011    0.3135 C   0  0  0  0  0  0  0  0  0  0  0  0
  -83.5108   33.0255   -0.5625 C   0  0  0  0  0  0  0  0  0  0  0  0
  -84.7771   33.1500   -1.0424 C   0  0  0  0  0  0  0  0  0  0  0  0
  -85.8482   32.3032   -0.7025 C   0  0  0  0  0  0  0  0  0  0  0  0
  -87.3792   32.4995   -1.4734 S   0  0  0  0  0  0  0  0  0  0  0  0
  -87.3277   33.8693   -2.1949 O   0  0  0  0  0  0  0  0  0  0  0  0
  -88.5373   32.6674   -0.5279 O   0  0  0  0  0  0  0  0  0  0  0  0
  -87.7396   31.3353   -2.7417 C   0  0  0  0  0  0  0  0  0  0  0  0
  -87.6823   32.0369   -4.1263 C   0  0  0  0  0  0  0  0  0  0  0  0
  -89.0600   30.6642   -2.6922 C   0  0  0  0  0  0  0  0  0  0  0  0
 16 17  1  0  0  0
 17 10  1  0  0  0
 10 11  2  0  0  0
 11 12  1  0  0  0
 12  8  1  0  0  0
  8  1  1  0  0  0
  1  2  2  0  0  0
  2  3  1  0  0  0
  3  4  2  0  0  0
  4  5  1  0  0  0
  4  6  1  0  0  0
  6 22  1  0  0  0
 22 24  1  0  0  0
 24 25  2  0  0  0
 25 26  1  0  0  0
 26 27  2  0  0  0
 27 28  1  0  0  0
 28 29  2  0  0  0
 29 30  1  0  0  0
 30 31  2  0  0  0
 30 32  2  0  0  0
 30 33  1  0  0  0
 33 34  1  0  0  0
 33 35  1  0  0  0
  6  7  2  0  0  0
 12 13  2  0  0  0
 13 14  1  0  0  0
 14 18  1  0  0  0
 18 19  1  0  0  0
 14 15  2  0  0  0
 15 20  1  0  0  0
 20 21  1  0  0  0
 15 10  1  0  0  0
  7  1  1  0  0  0
 29 24  1  0  0  0
  8  9  1  0  0  0
 22 23  1  0  0  0
M  END
> <minimizedAffinity>
-7.72362

> <CNNscore>
0.1011264399

> <CNNaffinity>
6.1969499588

> <CNN_VS>
0.6266754866

> <CNNaffinity_variance>
0.7457941175

$$$$
[H]c1nc2c([H])c(OC([H])([H])C([H])([H])C([H])([H])N3C([H])([H])C([H])([H])OC([H])([H])C3([H])[H])c(OC([H])([H])[H])c([H])c2c(Oc2c([H])c([H])c(N([H])C(=O)C3(C(=O)N([H])c4c([H])c([H])c(F)c([H])c4[H])C([H])([H])C3([H])[H])c([H])c2F)c1[H]


 48 53  0  0  0  0  0  0  0  0999 V2000
  -86.2079   28.8593    1.4143 C   0  0  0  0  0  0  0  0  0  0  0  0
  -87.3079   28.9079    0.5719 C   0  0  0  0  0  0  0  0  0  0  0  0
  -87.9224   27.7435    0.1054 C   0  0  0  0  0  0  0  0  0  0  0  0
  -87.4771   26.4911    0.4531 C   0  0  0  0  0  0  0  0  0  0  0  0
  -86.3807   26.4489    1.2933 C   0  0  0  0  0  0  0  0  0  0  0  0
  -85.7557   27.6082    1.7658 C   0  0  0  0  0  0  0  0  0  0  0  0
  -84.6611   27.5120    2.5757 F   0  0  0  0  0  0  0  0  0  0  0  0
  -88.0832   25.2924   -0.0260 N   0  0  0  0  0  0  0  0  0  0  0  0
  -89.4032   24.8769    0.2521 C   0  0  0  0  0  0  0  0  0  0  0  0
  -90.1825   25.5072    0.9921 O   0  0  0  0  0  0  0  0  0  0  0  0
  -87.5055   24.6662   -0.6422 H   0  0  0  0  0  0  0  0  0  0  0  0
  -89.8911   23.6081   -0.4158 C   0  0  0  0  0  0  0  0  0  0  0  0
  -89.7487   23.5878   -1.9295 C   0  0  0  0  0  0  0  0  0  0  0  0
  -91.0915   23.8886   -1.2889 C   0  0  0  0  0  0  0  0  0  0  0  0
  -89.8562   22.3655    0.3675 C   0  0  0  0  0  0  0  0  0  0  0  0
  -89.1953   21.3712   -0.1462 O   0  0  0  0  0  0  0  0  0  0  0  0
  -90.4731   22.1368    1.6051 N   0  0  0  0  0  0  0  0  0  0  0  0
  -91.0784   22.9056    2.0281 H   0  0  0  0  0  0  0  0  0  0  0  0
  -90.3776   20.9072    2.3382 C   0  0  0  0  0  0  0  0  0  0  0  0
  -89.4089   20.7495    3.2726 C   0  0  0  0  0  0  0  0  0  0  0  0
  -89.2802   19.5522    3.9453 C   0  0  0  0  0  0  0  0  0  0  0  0
  -90.1582   18.5118    3.6497 C   0  0  0  0  0  0  0  0  0  0  0  0
  -90.0899   17.3061    4.2808 F   0  0  0  0  0  0  0  0  0  0  0  0
  -91.1580   18.6611    2.6922 C   0  0  0  0  0  0  0  0  0  0  0  0
  -91.2404   19.8678    2.0564 C   0  0  0  0  0  0  0  0  0  0  0  0
  -85.6304   30.0567    1.8466 O   0  0  0  0  0  0  0  0  0  0  0  0
  -87.1539   32.7895   -0.7953 C   0  0  0  0  0  0  0  0  0  0  0  0
  -86.6201   31.8749    0.0868 C   0  0  0  0  0  0  0  0  0  0  0  0
  -85.2301   31.7473    0.2197 C   0  0  0  0  0  0  0  0  0  0  0  0
  -84.7207   30.8097    1.1279 C   0  0  0  0  0  0  0  0  0  0  0  0
  -83.3671   30.6840    1.2628 C   0  0  0  0  0  0  0  0  0  0  0  0
  -82.5395   31.4953    0.4866 C   0  0  0  0  0  0  0  0  0  0  0  0
  -83.0593   32.3880   -0.3777 N   0  0  0  0  0  0  0  0  0  0  0  0
  -84.3763   32.5276   -0.5229 C   0  0  0  0  0  0  0  0  0  0  0  0
  -84.8965   33.4435   -1.4077 C   0  0  0  0  0  0  0  0  0  0  0  0
  -86.2494   33.5657   -1.5357 C   0  0  0  0  0  0  0  0  0  0  0  0
  -89.4138   31.9098   -1.0486 C   0  0  0  0  0  0  0  0  0  0  0  0
  -88.5027   32.9587   -0.9635 O   0  0  0  0  0  0  0  0  0  0  0  0
  -86.7282   34.4803   -2.4277 O   0  0  0  0  0  0  0  0  0  0  0  0
  -87.0183   34.1851   -3.7792 C   0  0  0  0  0  0  0  0  0  0  0  0
  -87.8471   35.2631   -4.4262 C   0  0  0  0  0  0  0  0  0  0  0  0
  -88.8096   35.8084   -3.4165 C   0  0  0  0  0  0  0  0  0  0  0  0
  -89.1041   37.2176   -3.6029 N   0  0  0  0  0  0  0  0  0  0  0  0
  -89.1699   37.3928   -5.0723 C   0  0  0  0  0  0  0  0  0  0  0  0
  -89.1997   38.8264   -5.4809 C   0  0  0  0  0  0  0  0  0  0  0  0
  -88.3747   39.6535   -4.6969 O   0  0  0  0  0  0  0  0  0  0  0  0
  -87.3635   38.8659   -4.1853 C   0  0  0  0  0  0  0  0  0  0  0  0
  -87.9464   37.9635   -3.0957 C   0  0  0  0  0  0  0  0  0  0  0  0
 37 38  1  0  0  0
 38 27  1  0  0  0
 27 28  2  0  0  0
 28 29  1  0  0  0
 29 30  2  0  0  0
 30 26  1  0  0  0
 26  1  1  0  0  0
  1  2  2  0  0  0
  2  3  1  0  0  0
  3  4  2  0  0  0
  4  8  1  0  0  0
  8  9  1  0  0  0
  9 10  2  0  0  0
  9 12  1  0  0  0
 12 13  1  0  0  0
 13 14  1  0  0  0
 12 15  1  0  0  0
 15 16  2  0  0  0
 15 17  1  0  0  0
 17 19  1  0  0  0
 19 20  2  0  0  0
 20 21  1  0  0  0
 21 22  2  0  0  0
 22 23  1  0  0  0
 22 24  1  0  0  0
 24 25  2  0  0  0
  4  5  1  0  0  0
  5  6  2  0  0  0
  6  7  1  0  0  0
 30 31  1  0  0  0
 31 32  2  0  0  0
 32 33  1  0  0  0
 33 34  2  0  0  0
 34 35  1  0  0  0
 35 36  2  0  0  0
 36 39  1  0  0  0
 39 40  1  0  0  0
 40 41  1  0  0  0
 41 42  1  0  0  0
 42 43  1  0  0  0
 43 44  1  0  0  0
 44 45  1  0  0  0
 45 46  1  0  0  0
 46 47  1  0  0  0
 47 48  1  0  0  0
 36 27  1  0  0  0
 48 43  1  0  0  0
 34 29  1  0  0  0
  6  1  1  0  0  0
 14 12  1  0  0  0
 25 19  1  0  0  0
  8 11  1  0  0  0
 17 18  1  0  0  0
M  END
> <minimizedAffinity>
-9.57624

> <CNNscore>
0.5100672841

> <CNNaffinity>
7.4422464371

> <CNN_VS>
3.7960464954

> <CNNaffinity_variance>
0.1142687425

$$$$
[H]c1nc2c([H])c(OC([H])([H])C([H])([H])C([H])([H])N3C([H])([H])C([H])([H])OC([H])([H])C3([H])[H])c(OC([H])([H])[H])c([H])c2c(Oc2c([H])c([H])c(N([H])C(=O)C3(C(=O)N([H])c4c([H])c([H])c(F)c([H])c4[H])C([H])([H])C3([H])[H])c([H])c2F)c1[H]


 48 53  0  0  0  0  0  0  0  0999 V2000
  -86.4095   28.6961    1.4370 C   0  0  0  0  0  0  0  0  0  0  0  0
  -87.5999   28.7913    0.7328 C   0  0  0  0  0  0  0  0  0  0  0  0
  -88.2717   27.6546    0.2772 C   0  0  0  0  0  0  0  0  0  0  0  0
  -87.7967   26.3848    0.5004 C   0  0  0  0  0  0  0  0  0  0  0  0
  -86.6101   26.2962    1.2032 C   0  0  0  0  0  0  0  0  0  0  0  0
  -85.9272   27.4274    1.6633 C   0  0  0  0  0  0  0  0  0  0  0  0
  -84.7462   27.2865    2.3332 F   0  0  0  0  0  0  0  0  0  0  0  0
  -88.4619   25.2146    0.0294 N   0  0  0  0  0  0  0  0  0  0  0  0
  -89.7852   24.8425    0.3498 C   0  0  0  0  0  0  0  0  0  0  0  0
  -90.5148   25.4903    1.1246 O   0  0  0  0  0  0  0  0  0  0  0  0
  -87.9291   24.5763   -0.6143 H   0  0  0  0  0  0  0  0  0  0  0  0
  -90.3416   23.6004   -0.3148 C   0  0  0  0  0  0  0  0  0  0  0  0
  -90.6373   22.4477    0.6318 C   0  0  0  0  0  0  0  0  0  0  0  0
  -89.3691   22.4500   -0.2021 C   0  0  0  0  0  0  0  0  0  0  0  0
  -91.0983   23.7724   -1.5624 C   0  0  0  0  0  0  0  0  0  0  0  0
  -90.7417   23.0296   -2.5674 O   0  0  0  0  0  0  0  0  0  0  0  0
  -92.1563   24.6645   -1.7851 N   0  0  0  0  0  0  0  0  0  0  0  0
  -92.4353   25.3365   -1.0061 H   0  0  0  0  0  0  0  0  0  0  0  0
  -92.8785   24.7658   -3.0207 C   0  0  0  0  0  0  0  0  0  0  0  0
  -93.7462   23.7888   -3.3799 C   0  0  0  0  0  0  0  0  0  0  0  0
  -94.4059   23.8551   -4.5894 C   0  0  0  0  0  0  0  0  0  0  0  0
  -94.1667   24.9380   -5.4325 C   0  0  0  0  0  0  0  0  0  0  0  0
  -94.7889   25.0677   -6.6377 F   0  0  0  0  0  0  0  0  0  0  0  0
  -93.2780   25.9485   -5.0751 C   0  0  0  0  0  0  0  0  0  0  0  0
  -92.6520   25.8326   -3.8660 C   0  0  0  0  0  0  0  0  0  0  0  0
  -85.7782   29.8676    1.8648 O   0  0  0  0  0  0  0  0  0  0  0  0
  -87.1466   32.7374   -0.7161 C   0  0  0  0  0  0  0  0  0  0  0  0
  -86.6648   31.7754    0.1453 C   0  0  0  0  0  0  0  0  0  0  0  0
  -85.2849   31.5546    0.2597 C   0  0  0  0  0  0  0  0  0  0  0  0
  -84.8286   30.5708    1.1472 C   0  0  0  0  0  0  0  0  0  0  0  0
  -83.4849   30.3542    1.2641 C   0  0  0  0  0  0  0  0  0  0  0  0
  -82.6140   31.1219    0.4908 C   0  0  0  0  0  0  0  0  0  0  0  0
  -83.0832   32.0608   -0.3532 N   0  0  0  0  0  0  0  0  0  0  0  0
  -84.3896   32.2891   -0.4807 C   0  0  0  0  0  0  0  0  0  0  0  0
  -84.8577   33.2514   -1.3449 C   0  0  0  0  0  0  0  0  0  0  0  0
  -86.2010   33.4644   -1.4550 C   0  0  0  0  0  0  0  0  0  0  0  0
  -89.4539   32.0135   -1.0287 C   0  0  0  0  0  0  0  0  0  0  0  0
  -88.4831   32.9976   -0.8656 O   0  0  0  0  0  0  0  0  0  0  0  0
  -86.6280   34.4229   -2.3268 O   0  0  0  0  0  0  0  0  0  0  0  0
  -87.0929   34.1485   -3.6331 C   0  0  0  0  0  0  0  0  0  0  0  0
  -87.8859   35.2954   -4.2017 C   0  0  0  0  0  0  0  0  0  0  0  0
  -86.9462   36.4042   -4.5635 C   0  0  0  0  0  0  0  0  0  0  0  0
  -87.5727   37.4624   -5.3349 N   0  0  0  0  0  0  0  0  0  0  0  0
  -88.7431   36.8155   -5.9720 C   0  0  0  0  0  0  0  0  0  0  0  0
  -89.3718   37.6675   -7.0218 C   0  0  0  0  0  0  0  0  0  0  0  0
  -88.4427   38.3881   -7.7944 O   0  0  0  0  0  0  0  0  0  0  0  0
  -87.2526   37.6897   -7.7704 C   0  0  0  0  0  0  0  0  0  0  0  0
  -86.6207   37.8421   -6.3853 C   0  0  0  0  0  0  0  0  0  0  0  0
 37 38  1  0  0  0
 38 27  1  0  0  0
 27 28  2  0  0  0
 28 29  1  0  0  0
 29 30  2  0  0  0
 30 26  1  0  0  0
 26  1  1  0  0  0
  1  2  2  0  0  0
  2  3  1  0  0  0
  3  4  2  0  0  0
  4  8  1  0  0  0
  8  9  1  0  0  0
  9 10  2  0  0  0
  9 12  1  0  0  0
 12 13  1  0  0  0
 13 14  1  0  0  0
 12 15  1  0  0  0
 15 16  2  0  0  0
 15 17  1  0  0  0
 17 19  1  0  0  0
 19 20  2  0  0  0
 20 21  1  0  0  0
 21 22  2  0  0  0
 22 23  1  0  0  0
 22 24  1  0  0  0
 24 25  2  0  0  0
  4  5  1  0  0  0
  5  6  2  0  0  0
  6  7  1  0  0  0
 30 31  1  0  0  0
 31 32  2  0  0  0
 32 33  1  0  0  0
 33 34  2  0  0  0
 34 35  1  0  0  0
 35 36  2  0  0  0
 36 39  1  0  0  0
 39 40  1  0  0  0
 40 41  1  0  0  0
 41 42  1  0  0  0
 42 43  1  0  0  0
 43 44  1  0  0  0
 44 45  1  0  0  0
 45 46  1  0  0  0
 46 47  1  0  0  0
 47 48  1  0  0  0
 36 27  1  0  0  0
 48 43  1  0  0  0
 34 29  1  0  0  0
  6  1  1  0  0  0
 14 12  1  0  0  0
 25 19  1  0  0  0
  8 11  1  0  0  0
 17 18  1  0  0  0
M  END
> <minimizedAffinity>
-8.69004

> <CNNscore>
0.3774252236

> <CNNaffinity>
7.1048498154

> <CNN_VS>
2.6815495491

> <CNNaffinity_variance>
0.2796038389

$$$$
[H]c1nc2c([H])c(OC([H])([H])C([H])([H])C([H])([H])N3C([H])([H])C([H])([H])OC([H])([H])C3([H])[H])c(OC([H])([H])[H])c([H])c2c(Oc2c([H])c([H])c(N([H])C(=O)C3(C(=O)N([H])c4c([H])c([H])c(F)c([H])c4[H])C([H])([H])C3([H])[H])c([H])c2F)c1[H]


 48 53  0  0  0  0  0  0  0  0999 V2000
  -85.5116   32.4002    0.1563 C   0  0  0  0  0  0  0  0  0  0  0  0
  -86.8623   32.5653   -0.1086 C   0  0  0  0  0  0  0  0  0  0  0  0
  -87.3086   33.1105   -1.3147 C   0  0  0  0  0  0  0  0  0  0  0  0
  -86.4415   33.5104   -2.3026 C   0  0  0  0  0  0  0  0  0  0  0  0
  -85.0964   33.3430   -2.0330 C   0  0  0  0  0  0  0  0  0  0  0  0
  -84.6372   32.7996   -0.8282 C   0  0  0  0  0  0  0  0  0  0  0  0
  -83.2967   32.6766   -0.6017 F   0  0  0  0  0  0  0  0  0  0  0  0
  -86.8794   34.0827   -3.5332 N   0  0  0  0  0  0  0  0  0  0  0  0
  -88.1098   34.7446   -3.7340 C   0  0  0  0  0  0  0  0  0  0  0  0
  -88.9782   34.8681   -2.8493 O   0  0  0  0  0  0  0  0  0  0  0  0
  -86.2339   34.0137   -4.3603 H   0  0  0  0  0  0  0  0  0  0  0  0
  -88.3596   35.3557   -5.0972 C   0  0  0  0  0  0  0  0  0  0  0  0
  -87.1865   36.1332   -5.6731 C   0  0  0  0  0  0  0  0  0  0  0  0
  -88.3453   36.8642   -5.0199 C   0  0  0  0  0  0  0  0  0  0  0  0
  -89.3384   34.6976   -5.9732 C   0  0  0  0  0  0  0  0  0  0  0  0
  -89.4276   33.4043   -5.8795 O   0  0  0  0  0  0  0  0  0  0  0  0
  -90.1766   35.3186   -6.9094 N   0  0  0  0  0  0  0  0  0  0  0  0
  -90.0872   36.3697   -7.0625 H   0  0  0  0  0  0  0  0  0  0  0  0
  -91.1368   34.6233   -7.7175 C   0  0  0  0  0  0  0  0  0  0  0  0
  -90.9691   34.5553   -9.0605 C   0  0  0  0  0  0  0  0  0  0  0  0
  -91.9140   33.9318   -9.8485 C   0  0  0  0  0  0  0  0  0  0  0  0
  -93.0392   33.3756   -9.2441 C   0  0  0  0  0  0  0  0  0  0  0  0
  -94.0072   32.7409   -9.9629 F   0  0  0  0  0  0  0  0  0  0  0  0
  -93.2233   33.4383   -7.8654 C   0  0  0  0  0  0  0  0  0  0  0  0
  -92.2563   34.0673   -7.1329 C   0  0  0  0  0  0  0  0  0  0  0  0
  -85.1221   31.8533    1.3824 O   0  0  0  0  0  0  0  0  0  0  0  0
  -87.8260   28.8473    0.7326 C   0  0  0  0  0  0  0  0  0  0  0  0
  -86.9007   29.8435    0.9582 C   0  0  0  0  0  0  0  0  0  0  0  0
  -85.5956   29.5208    1.3562 C   0  0  0  0  0  0  0  0  0  0  0  0
  -84.6789   30.5580    1.5742 C   0  0  0  0  0  0  0  0  0  0  0  0
  -83.4054   30.2481    1.9593 C   0  0  0  0  0  0  0  0  0  0  0  0
  -83.0645   28.9055    2.1239 C   0  0  0  0  0  0  0  0  0  0  0  0
  -83.9680   27.9307    1.9062 N   0  0  0  0  0  0  0  0  0  0  0  0
  -85.2144   28.2114    1.5283 C   0  0  0  0  0  0  0  0  0  0  0  0
  -86.1288   27.2078    1.3075 C   0  0  0  0  0  0  0  0  0  0  0  0
  -87.3985   27.5242    0.9206 C   0  0  0  0  0  0  0  0  0  0  0  0
  -89.4618   30.0769   -0.5931 C   0  0  0  0  0  0  0  0  0  0  0  0
  -89.1127   29.1045    0.3397 O   0  0  0  0  0  0  0  0  0  0  0  0
  -88.2792   26.5023    0.7169 O   0  0  0  0  0  0  0  0  0  0  0  0
  -89.0863   25.9438    1.7340 C   0  0  0  0  0  0  0  0  0  0  0  0
  -89.9211   24.7982    1.2258 C   0  0  0  0  0  0  0  0  0  0  0  0
  -91.0732   25.3466    0.4415 C   0  0  0  0  0  0  0  0  0  0  0  0
  -90.7835   25.5091   -0.9716 N   0  0  0  0  0  0  0  0  0  0  0  0
  -91.3109   26.8520   -1.3076 C   0  0  0  0  0  0  0  0  0  0  0  0
  -91.3511   27.1042   -2.7766 C   0  0  0  0  0  0  0  0  0  0  0  0
  -91.7251   25.9779   -3.5322 O   0  0  0  0  0  0  0  0  0  0  0  0
  -92.4915   25.1683   -2.7188 C   0  0  0  0  0  0  0  0  0  0  0  0
  -91.5789   24.5037   -1.6860 C   0  0  0  0  0  0  0  0  0  0  0  0
 37 38  1  0  0  0
 38 27  1  0  0  0
 27 28  2  0  0  0
 28 29  1  0  0  0
 29 30  2  0  0  0
 30 26  1  0  0  0
 26  1  1  0  0  0
  1  2  2  0  0  0
  2  3  1  0  0  0
  3  4  2  0  0  0
  4  8  1  0  0  0
  8  9  1  0  0  0
  9 10  2  0  0  0
  9 12  1  0  0  0
 12 13  1  0  0  0
 13 14  1  0  0  0
 12 15  1  0  0  0
 15 16  2  0  0  0
 15 17  1  0  0  0
 17 19  1  0  0  0
 19 20  2  0  0  0
 20 21  1  0  0  0
 21 22  2  0  0  0
 22 23  1  0  0  0
 22 24  1  0  0  0
 24 25  2  0  0  0
  4  5  1  0  0  0
  5  6  2  0  0  0
  6  7  1  0  0  0
 30 31  1  0  0  0
 31 32  2  0  0  0
 32 33  1  0  0  0
 33 34  2  0  0  0
 34 35  1  0  0  0
 35 36  2  0  0  0
 36 39  1  0  0  0
 39 40  1  0  0  0
 40 41  1  0  0  0
 41 42  1  0  0  0
 42 43  1  0  0  0
 43 44  1  0  0  0
 44 45  1  0  0  0
 45 46  1  0  0  0
 46 47  1  0  0  0
 47 48  1  0  0  0
 36 27  1  0  0  0
 48 43  1  0  0  0
 34 29  1  0  0  0
  6  1  1  0  0  0
 14 12  1  0  0  0
 25 19  1  0  0  0
  8 11  1  0  0  0
 17 18  1  0  0  0
M  END
> <minimizedAffinity>
-8.37058

> <CNNscore>
0.1683566570

> <CNNaffinity>
6.9416909218

> <CNN_VS>
1.1686798334

> <CNNaffinity_variance>
0.3718487620

$$$$
[H]c1nc2c([H])c(OC([H])([H])C([H])([H])C([H])([H])N3C([H])([H])C([H])([H])OC([H])([H])C3([H])[H])c(OC([H])([H])[H])c([H])c2c(Oc2c([H])c([H])c(N([H])C(=O)C3(C(=O)N([H])c4c([H])c([H])c(F)c([H])c4[H])C([H])([H])C3([H])[H])c([H])c2F)c1[H]


 48 53  0  0  0  0  0  0  0  0999 V2000
  -86.2708   28.7474    1.3803 C   0  0  0  0  0  0  0  0  0  0  0  0
  -87.4261   28.8063    0.6164 C   0  0  0  0  0  0  0  0  0  0  0  0
  -88.0599   27.6480    0.1605 C   0  0  0  0  0  0  0  0  0  0  0  0
  -87.5799   26.3917    0.4421 C   0  0  0  0  0  0  0  0  0  0  0  0
  -86.4283   26.3394    1.2042 C   0  0  0  0  0  0  0  0  0  0  0  0
  -85.7837   27.4925    1.6653 C   0  0  0  0  0  0  0  0  0  0  0  0
  -84.6354   27.3869    2.3958 F   0  0  0  0  0  0  0  0  0  0  0  0
  -88.2058   25.1996   -0.0280 N   0  0  0  0  0  0  0  0  0  0  0  0
  -89.5863   24.9164    0.0506 C   0  0  0  0  0  0  0  0  0  0  0  0
  -90.4165   25.6768    0.5844 O   0  0  0  0  0  0  0  0  0  0  0  0
  -87.5938   24.4713   -0.4758 H   0  0  0  0  0  0  0  0  0  0  0  0
  -90.0713   23.6263   -0.5776 C   0  0  0  0  0  0  0  0  0  0  0  0
  -90.0211   23.5977   -2.0970 C   0  0  0  0  0  0  0  0  0  0  0  0
  -91.3315   23.8593   -1.3772 C   0  0  0  0  0  0  0  0  0  0  0  0
  -89.9468   22.3924    0.2103 C   0  0  0  0  0  0  0  0  0  0  0  0
  -89.1157   21.4980   -0.2351 O   0  0  0  0  0  0  0  0  0  0  0  0
  -90.6415   22.0742    1.3853 N   0  0  0  0  0  0  0  0  0  0  0  0
  -91.3796   22.7532    1.7465 H   0  0  0  0  0  0  0  0  0  0  0  0
  -90.4543   20.8615    2.1289 C   0  0  0  0  0  0  0  0  0  0  0  0
  -91.2154   19.7744    1.8542 C   0  0  0  0  0  0  0  0  0  0  0  0
  -91.0753   18.6216    2.5985 C   0  0  0  0  0  0  0  0  0  0  0  0
  -90.1428   18.5929    3.6331 C   0  0  0  0  0  0  0  0  0  0  0  0
  -89.9501   17.4852    4.4027 F   0  0  0  0  0  0  0  0  0  0  0  0
  -89.3545   19.7028    3.9253 C   0  0  0  0  0  0  0  0  0  0  0  0
  -89.5345   20.8181    3.1565 C   0  0  0  0  0  0  0  0  0  0  0  0
  -85.6766   29.9392    1.8055 O   0  0  0  0  0  0  0  0  0  0  0  0
  -87.1903   32.7546   -0.7540 C   0  0  0  0  0  0  0  0  0  0  0  0
  -86.6598   31.8118    0.1000 C   0  0  0  0  0  0  0  0  0  0  0  0
  -85.2709   31.6465    0.1975 C   0  0  0  0  0  0  0  0  0  0  0  0
  -84.7648   30.6809    1.0777 C   0  0  0  0  0  0  0  0  0  0  0  0
  -83.4121   30.5184    1.1782 C   0  0  0  0  0  0  0  0  0  0  0  0
  -82.5821   31.3215    0.3959 C   0  0  0  0  0  0  0  0  0  0  0  0
  -83.0988   32.2418   -0.4409 N   0  0  0  0  0  0  0  0  0  0  0  0
  -84.4148   32.4174   -0.5523 C   0  0  0  0  0  0  0  0  0  0  0  0
  -84.9316   33.3612   -1.4092 C   0  0  0  0  0  0  0  0  0  0  0  0
  -86.2836   33.5200   -1.5029 C   0  0  0  0  0  0  0  0  0  0  0  0
  -89.5094   32.0718   -0.4366 C   0  0  0  0  0  0  0  0  0  0  0  0
  -88.5379   32.9610   -0.8871 O   0  0  0  0  0  0  0  0  0  0  0  0
  -86.7593   34.4617   -2.3680 O   0  0  0  0  0  0  0  0  0  0  0  0
  -87.7530   34.2072   -3.3404 C   0  0  0  0  0  0  0  0  0  0  0  0
  -87.4478   32.9738   -4.1487 C   0  0  0  0  0  0  0  0  0  0  0  0
  -88.6834   32.5576   -4.8859 C   0  0  0  0  0  0  0  0  0  0  0  0
  -88.9761   31.1407   -4.7668 N   0  0  0  0  0  0  0  0  0  0  0  0
  -90.0494   31.0669   -3.7485 C   0  0  0  0  0  0  0  0  0  0  0  0
  -90.3093   29.6737   -3.2853 C   0  0  0  0  0  0  0  0  0  0  0  0
  -89.1442   28.8958   -3.1559 O   0  0  0  0  0  0  0  0  0  0  0  0
  -88.0926   29.7588   -2.9240 C   0  0  0  0  0  0  0  0  0  0  0  0
  -87.7718   30.5031   -4.2218 C   0  0  0  0  0  0  0  0  0  0  0  0
 37 38  1  0  0  0
 38 27  1  0  0  0
 27 28  2  0  0  0
 28 29  1  0  0  0
 29 30  2  0  0  0
 30 26  1  0  0  0
 26  1  1  0  0  0
  1  2  2  0  0  0
  2  3  1  0  0  0
  3  4  2  0  0  0
  4  8  1  0  0  0
  8  9  1  0  0  0
  9 10  2  0  0  0
  9 12  1  0  0  0
 12 13  1  0  0  0
 13 14  1  0  0  0
 12 15  1  0  0  0
 15 16  2  0  0  0
 15 17  1  0  0  0
 17 19  1  0  0  0
 19 20  2  0  0  0
 20 21  1  0  0  0
 21 22  2  0  0  0
 22 23  1  0  0  0
 22 24  1  0  0  0
 24 25  2  0  0  0
  4  5  1  0  0  0
  5  6  2  0  0  0
  6  7  1  0  0  0
 30 31  1  0  0  0
 31 32  2  0  0  0
 32 33  1  0  0  0
 33 34  2  0  0  0
 34 35  1  0  0  0
 35 36  2  0  0  0
 36 39  1  0  0  0
 39 40  1  0  0  0
 40 41  1  0  0  0
 41 42  1  0  0  0
 42 43  1  0  0  0
 43 44  1  0  0  0
 44 45  1  0  0  0
 45 46  1  0  0  0
 46 47  1  0  0  0
 47 48  1  0  0  0
 36 27  1  0  0  0
 48 43  1  0  0  0
 34 29  1  0  0  0
  6  1  1  0  0  0
 14 12  1  0  0  0
 25 19  1  0  0  0
  8 11  1  0  0  0
 17 18  1  0  0  0
M  END
> <minimizedAffinity>
-10.16288

> <CNNscore>
0.1482782364

> <CNNaffinity>
7.0854363441

> <CNN_VS>
1.0506160259

> <CNNaffinity_variance>
0.6933003068

$$$$
[H]c1nc2c([H])c(OC([H])([H])C([H])([H])C([H])([H])N3C([H])([H])C([H])([H])OC([H])([H])C3([H])[H])c(OC([H])([H])[H])c([H])c2c(Oc2c([H])c([H])c(N([H])C(=O)C3(C(=O)N([H])c4c([H])c([H])c(F)c([H])c4[H])C([H])([H])C3([H])[H])c([H])c2F)c1[H]


 48 53  0  0  0  0  0  0  0  0999 V2000
  -86.3387   28.7210    1.4530 C   0  0  0  0  0  0  0  0  0  0  0  0
  -87.5652   28.8167    0.8139 C   0  0  0  0  0  0  0  0  0  0  0  0
  -88.2461   27.6820    0.3668 C   0  0  0  0  0  0  0  0  0  0  0  0
  -87.7447   26.4138    0.5347 C   0  0  0  0  0  0  0  0  0  0  0  0
  -86.5220   26.3247    1.1727 C   0  0  0  0  0  0  0  0  0  0  0  0
  -85.8298   27.4540    1.6235 C   0  0  0  0  0  0  0  0  0  0  0  0
  -84.6139   27.3134    2.2278 F   0  0  0  0  0  0  0  0  0  0  0  0
  -88.4193   25.2460    0.0710 N   0  0  0  0  0  0  0  0  0  0  0  0
  -89.7504   24.8941    0.3821 C   0  0  0  0  0  0  0  0  0  0  0  0
  -90.4799   25.5602    1.1413 O   0  0  0  0  0  0  0  0  0  0  0  0
  -87.8879   24.5935   -0.5592 H   0  0  0  0  0  0  0  0  0  0  0  0
  -90.3151   23.6507   -0.2731 C   0  0  0  0  0  0  0  0  0  0  0  0
  -90.6163   22.5064    0.6818 C   0  0  0  0  0  0  0  0  0  0  0  0
  -89.3493   22.4954   -0.1538 C   0  0  0  0  0  0  0  0  0  0  0  0
  -91.0726   23.8186   -1.5208 C   0  0  0  0  0  0  0  0  0  0  0  0
  -90.7651   23.0224   -2.5009 O   0  0  0  0  0  0  0  0  0  0  0  0
  -92.0834   24.7577   -1.7681 N   0  0  0  0  0  0  0  0  0  0  0  0
  -92.3192   25.4710   -1.0119 H   0  0  0  0  0  0  0  0  0  0  0  0
  -92.8101   24.8536   -3.0015 C   0  0  0  0  0  0  0  0  0  0  0  0
  -93.7011   23.8900   -3.3391 C   0  0  0  0  0  0  0  0  0  0  0  0
  -94.3660   23.9500   -4.5462 C   0  0  0  0  0  0  0  0  0  0  0  0
  -94.1077   25.0126   -5.4092 C   0  0  0  0  0  0  0  0  0  0  0  0
  -94.7336   25.1352   -6.6132 F   0  0  0  0  0  0  0  0  0  0  0  0
  -93.1949   26.0092   -5.0741 C   0  0  0  0  0  0  0  0  0  0  0  0
  -92.5649   25.9004   -3.8664 C   0  0  0  0  0  0  0  0  0  0  0  0
  -85.7001   29.8907    1.8753 O   0  0  0  0  0  0  0  0  0  0  0  0
  -87.2849   32.6640   -0.6873 C   0  0  0  0  0  0  0  0  0  0  0  0
  -86.7307   31.7354    0.1672 C   0  0  0  0  0  0  0  0  0  0  0  0
  -85.3389   31.5817    0.2397 C   0  0  0  0  0  0  0  0  0  0  0  0
  -84.8084   30.6305    1.1212 C   0  0  0  0  0  0  0  0  0  0  0  0
  -83.4528   30.4793    1.1973 C   0  0  0  0  0  0  0  0  0  0  0  0
  -82.6444   31.2792    0.3896 C   0  0  0  0  0  0  0  0  0  0  0  0
  -83.1843   32.1856   -0.4478 N   0  0  0  0  0  0  0  0  0  0  0  0
  -84.5034   32.3500   -0.5357 C   0  0  0  0  0  0  0  0  0  0  0  0
  -85.0441   33.2796   -1.3934 C   0  0  0  0  0  0  0  0  0  0  0  0
  -86.3988   33.4272   -1.4627 C   0  0  0  0  0  0  0  0  0  0  0  0
  -89.5917   31.9406   -0.3698 C   0  0  0  0  0  0  0  0  0  0  0  0
  -88.6363   32.8587   -0.7965 O   0  0  0  0  0  0  0  0  0  0  0  0
  -86.8984   34.3548   -2.3293 O   0  0  0  0  0  0  0  0  0  0  0  0
  -87.0042   34.1527   -3.7242 C   0  0  0  0  0  0  0  0  0  0  0  0
  -87.2385   32.7055   -4.0679 C   0  0  0  0  0  0  0  0  0  0  0  0
  -88.6529   32.5386   -4.5316 C   0  0  0  0  0  0  0  0  0  0  0  0
  -89.0852   31.1536   -4.5772 N   0  0  0  0  0  0  0  0  0  0  0  0
  -90.2920   31.1121   -3.7191 C   0  0  0  0  0  0  0  0  0  0  0  0
  -90.7376   29.7213   -3.4185 C   0  0  0  0  0  0  0  0  0  0  0  0
  -89.6763   28.8224   -3.2064 O   0  0  0  0  0  0  0  0  0  0  0  0
  -88.5941   29.5553   -2.7633 C   0  0  0  0  0  0  0  0  0  0  0  0
  -88.0305   30.3588   -3.9372 C   0  0  0  0  0  0  0  0  0  0  0  0
 37 38  1  0  0  0
 38 27  1  0  0  0
 27 28  2  0  0  0
 28 29  1  0  0  0
 29 30  2  0  0  0
 30 26  1  0  0  0
 26  1  1  0  0  0
  1  2  2  0  0  0
  2  3  1  0  0  0
  3  4  2  0  0  0
  4  8  1  0  0  0
  8  9  1  0  0  0
  9 10  2  0  0  0
  9 12  1  0  0  0
 12 13  1  0  0  0
 13 14  1  0  0  0
 12 15  1  0  0  0
 15 16  2  0  0  0
 15 17  1  0  0  0
 17 19  1  0  0  0
 19 20  2  0  0  0
 20 21  1  0  0  0
 21 22  2  0  0  0
 22 23  1  0  0  0
 22 24  1  0  0  0
 24 25  2  0  0  0
  4  5  1  0  0  0
  5  6  2  0  0  0
  6  7  1  0  0  0
 30 31  1  0  0  0
 31 32  2  0  0  0
 32 33  1  0  0  0
 33 34  2  0  0  0
 34 35  1  0  0  0
 35 36  2  0  0  0
 36 39  1  0  0  0
 39 40  1  0  0  0
 40 41  1  0  0  0
 41 42  1  0  0  0
 42 43  1  0  0  0
 43 44  1  0  0  0
 44 45  1  0  0  0
 45 46  1  0  0  0
 46 47  1  0  0  0
 47 48  1  0  0  0
 36 27  1  0  0  0
 48 43  1  0  0  0
 34 29  1  0  0  0
  6  1  1  0  0  0
 14 12  1  0  0  0
 25 19  1  0  0  0
  8 11  1  0  0  0
 17 18  1  0  0  0
M  END
> <minimizedAffinity>
-9.21360

> <CNNscore>
0.1205420941

> <CNNaffinity>
7.0013566017

> <CNN_VS>
0.8439581990

> <CNNaffinity_variance>
0.8815954328

$$$$
[H]c1nc2c([H])c(OC([H])([H])C([H])([H])C([H])([H])N3C([H])([H])C([H])([H])OC([H])([H])C3([H])[H])c(OC([H])([H])[H])c([H])c2c(Oc2c([H])c([H])c(N([H])C(=O)C3(C(=O)N([H])c4c([H])c([H])c(F)c([H])c4[H])C([H])([H])C3([H])[H])c([H])c2F)c1[H]


 48 53  0  0  0  0  0  0  0  0999 V2000
  -87.7507   33.1351   -1.5516 C   0  0  0  0  0  0  0  0  0  0  0  0
  -89.0501   33.1647   -2.0339 C   0  0  0  0  0  0  0  0  0  0  0  0
  -89.3616   33.7640   -3.2566 C   0  0  0  0  0  0  0  0  0  0  0  0
  -88.4052   34.3531   -4.0479 C   0  0  0  0  0  0  0  0  0  0  0  0
  -87.1118   34.3200   -3.5620 C   0  0  0  0  0  0  0  0  0  0  0  0
  -86.7877   33.7242   -2.3382 C   0  0  0  0  0  0  0  0  0  0  0  0
  -85.4976   33.7385   -1.8923 F   0  0  0  0  0  0  0  0  0  0  0  0
  -88.7081   34.9824   -5.2912 N   0  0  0  0  0  0  0  0  0  0  0  0
  -88.9932   36.3540   -5.4643 C   0  0  0  0  0  0  0  0  0  0  0  0
  -89.0493   37.1701   -4.5246 O   0  0  0  0  0  0  0  0  0  0  0  0
  -88.7151   34.3809   -6.1535 H   0  0  0  0  0  0  0  0  0  0  0  0
  -89.2132   36.8483   -6.8790 C   0  0  0  0  0  0  0  0  0  0  0  0
  -87.9885   37.4627   -7.5384 C   0  0  0  0  0  0  0  0  0  0  0  0
  -89.0705   38.3504   -6.9509 C   0  0  0  0  0  0  0  0  0  0  0  0
  -90.2586   36.1940   -7.6777 C   0  0  0  0  0  0  0  0  0  0  0  0
  -91.2327   36.9479   -8.0922 O   0  0  0  0  0  0  0  0  0  0  0  0
  -90.3212   34.8382   -8.0275 N   0  0  0  0  0  0  0  0  0  0  0  0
  -89.5760   34.1750   -7.6518 H   0  0  0  0  0  0  0  0  0  0  0  0
  -91.3554   34.2620   -8.8379 C   0  0  0  0  0  0  0  0  0  0  0  0
  -91.2247   34.2380  -10.1865 C   0  0  0  0  0  0  0  0  0  0  0  0
  -92.2372   33.7311  -10.9743 C   0  0  0  0  0  0  0  0  0  0  0  0
  -93.3918   33.2465  -10.3638 C   0  0  0  0  0  0  0  0  0  0  0  0
  -94.4266   32.7274  -11.0823 F   0  0  0  0  0  0  0  0  0  0  0  0
  -93.5384   33.2650   -8.9793 C   0  0  0  0  0  0  0  0  0  0  0  0
  -92.5048   33.7779   -8.2474 C   0  0  0  0  0  0  0  0  0  0  0  0
  -87.4978   32.5255   -0.3192 O   0  0  0  0  0  0  0  0  0  0  0  0
  -89.1550   28.8623   -1.0959 C   0  0  0  0  0  0  0  0  0  0  0  0
  -88.5783   30.0849   -0.8273 C   0  0  0  0  0  0  0  0  0  0  0  0
  -87.2490   30.1594   -0.3874 C   0  0  0  0  0  0  0  0  0  0  0  0
  -86.6925   31.4186   -0.1262 C   0  0  0  0  0  0  0  0  0  0  0  0
  -85.3969   31.4961    0.2998 C   0  0  0  0  0  0  0  0  0  0  0  0
  -84.6742   30.3140    0.4616 C   0  0  0  0  0  0  0  0  0  0  0  0
  -85.2369   29.1182    0.2017 N   0  0  0  0  0  0  0  0  0  0  0  0
  -86.4981   29.0208   -0.2164 C   0  0  0  0  0  0  0  0  0  0  0  0
  -87.0624   27.7943   -0.4800 C   0  0  0  0  0  0  0  0  0  0  0  0
  -88.3563   27.7241   -0.9076 C   0  0  0  0  0  0  0  0  0  0  0  0
  -91.5639   29.0073   -0.7471 C   0  0  0  0  0  0  0  0  0  0  0  0
  -90.4472   28.7306   -1.5308 O   0  0  0  0  0  0  0  0  0  0  0  0
  -88.8835   26.4900   -1.1531 O   0  0  0  0  0  0  0  0  0  0  0  0
  -89.0633   25.4990   -0.1614 C   0  0  0  0  0  0  0  0  0  0  0  0
  -90.1311   25.8806    0.8296 C   0  0  0  0  0  0  0  0  0  0  0  0
  -89.7668   25.3287    2.1735 C   0  0  0  0  0  0  0  0  0  0  0  0
  -89.3940   26.3506    3.1347 N   0  0  0  0  0  0  0  0  0  0  0  0
  -90.0948   25.9627    4.3808 C   0  0  0  0  0  0  0  0  0  0  0  0
  -90.0564   27.0312    5.4200 C   0  0  0  0  0  0  0  0  0  0  0  0
  -90.1898   28.3308    4.8978 O   0  0  0  0  0  0  0  0  0  0  0  0
  -90.8838   28.2312    3.7091 C   0  0  0  0  0  0  0  0  0  0  0  0
  -89.9644   27.6142    2.6531 C   0  0  0  0  0  0  0  0  0  0  0  0
 37 38  1  0  0  0
 38 27  1  0  0  0
 27 28  2  0  0  0
 28 29  1  0  0  0
 29 30  2  0  0  0
 30 26  1  0  0  0
 26  1  1  0  0  0
  1  2  2  0  0  0
  2  3  1  0  0  0
  3  4  2  0  0  0
  4  8  1  0  0  0
  8  9  1  0  0  0
  9 10  2  0  0  0
  9 12  1  0  0  0
 12 13  1  0  0  0
 13 14  1  0  0  0
 12 15  1  0  0  0
 15 16  2  0  0  0
 15 17  1  0  0  0
 17 19  1  0  0  0
 19 20  2  0  0  0
 20 21  1  0  0  0
 21 22  2  0  0  0
 22 23  1  0  0  0
 22 24  1  0  0  0
 24 25  2  0  0  0
  4  5  1  0  0  0
  5  6  2  0  0  0
  6  7  1  0  0  0
 30 31  1  0  0  0
 31 32  2  0  0  0
 32 33  1  0  0  0
 33 34  2  0  0  0
 34 35  1  0  0  0
 35 36  2  0  0  0
 36 39  1  0  0  0
 39 40  1  0  0  0
 40 41  1  0  0  0
 41 42  1  0  0  0
 42 43  1  0  0  0
 43 44  1  0  0  0
 44 45  1  0  0  0
 45 46  1  0  0  0
 46 47  1  0  0  0
 47 48  1  0  0  0
 36 27  1  0  0  0
 48 43  1  0  0  0
 34 29  1  0  0  0
  6  1  1  0  0  0
 14 12  1  0  0  0
 25 19  1  0  0  0
  8 11  1  0  0  0
 17 18  1  0  0  0
M  END
> <minimizedAffinity>
-8.98797

> <CNNscore>
0.0616829395

> <CNNaffinity>
6.4054260254

> <CNN_VS>
0.3951055110

> <CNNaffinity_variance>
0.4949729443

$$$$
[H]c1nc2c([H])c(OC([H])([H])C([H])([H])C([H])([H])N3C([H])([H])C([H])([H])OC([H])([H])C3([H])[H])c(OC([H])([H])[H])c([H])c2c(Oc2c([H])c([H])c(N([H])C(=O)C3(C(=O)N([H])c4c([H])c([H])c(F)c([H])c4[H])C([H])([H])C3([H])[H])c([H])c2F)c1[H]


 48 53  0  0  0  0  0  0  0  0999 V2000
  -87.9007   31.6443   -2.6262 C   0  0  0  0  0  0  0  0  0  0  0  0
  -87.9967   32.1060   -3.9299 C   0  0  0  0  0  0  0  0  0  0  0  0
  -87.6873   33.4273   -4.2612 C   0  0  0  0  0  0  0  0  0  0  0  0
  -87.2709   34.3393   -3.3218 C   0  0  0  0  0  0  0  0  0  0  0  0
  -87.1768   33.8732   -2.0241 C   0  0  0  0  0  0  0  0  0  0  0  0
  -87.4854   32.5526   -1.6798 C   0  0  0  0  0  0  0  0  0  0  0  0
  -87.3979   32.1480   -0.3790 F   0  0  0  0  0  0  0  0  0  0  0  0
  -86.9657   35.6955   -3.6402 N   0  0  0  0  0  0  0  0  0  0  0  0
  -87.9069   36.7427   -3.7403 C   0  0  0  0  0  0  0  0  0  0  0  0
  -89.1339   36.5825   -3.5958 O   0  0  0  0  0  0  0  0  0  0  0  0
  -85.9577   35.9418   -3.8094 H   0  0  0  0  0  0  0  0  0  0  0  0
  -87.3759   38.1350   -4.0115 C   0  0  0  0  0  0  0  0  0  0  0  0
  -87.8948   39.2108   -3.0704 C   0  0  0  0  0  0  0  0  0  0  0  0
  -88.4870   39.0553   -4.4592 C   0  0  0  0  0  0  0  0  0  0  0  0
  -86.0559   38.2525   -4.6459 C   0  0  0  0  0  0  0  0  0  0  0  0
  -85.8225   37.4679   -5.6553 O   0  0  0  0  0  0  0  0  0  0  0  0
  -85.0171   39.1138   -4.2667 N   0  0  0  0  0  0  0  0  0  0  0  0
  -85.1455   39.7260   -3.4036 H   0  0  0  0  0  0  0  0  0  0  0  0
  -83.7568   39.2045   -4.9464 C   0  0  0  0  0  0  0  0  0  0  0  0
  -82.6925   38.4963   -4.4969 C   0  0  0  0  0  0  0  0  0  0  0  0
  -81.4655   38.6175   -5.1152 C   0  0  0  0  0  0  0  0  0  0  0  0
  -81.3383   39.4763   -6.2047 C   0  0  0  0  0  0  0  0  0  0  0  0
  -80.1571   39.6383   -6.8642 F   0  0  0  0  0  0  0  0  0  0  0  0
  -82.4241   40.2092   -6.6766 C   0  0  0  0  0  0  0  0  0  0  0  0
  -83.6158   40.0509   -6.0271 C   0  0  0  0  0  0  0  0  0  0  0  0
  -88.2275   30.3131   -2.3517 O   0  0  0  0  0  0  0  0  0  0  0  0
  -87.8817   28.1352    1.0988 C   0  0  0  0  0  0  0  0  0  0  0  0
  -88.0207   28.8650   -0.0620 C   0  0  0  0  0  0  0  0  0  0  0  0
  -89.2952   29.1373   -0.5789 C   0  0  0  0  0  0  0  0  0  0  0  0
  -89.4009   29.8847   -1.7595 C   0  0  0  0  0  0  0  0  0  0  0  0
  -90.6408   30.1550   -2.2652 C   0  0  0  0  0  0  0  0  0  0  0  0
  -91.7597   29.6729   -1.5858 C   0  0  0  0  0  0  0  0  0  0  0  0
  -91.6258   28.9576   -0.4525 N   0  0  0  0  0  0  0  0  0  0  0  0
  -90.4259   28.6847    0.0583 C   0  0  0  0  0  0  0  0  0  0  0  0
  -90.3008   27.9542    1.2171 C   0  0  0  0  0  0  0  0  0  0  0  0
  -89.0594   27.6899    1.7181 C   0  0  0  0  0  0  0  0  0  0  0  0
  -85.8723   28.7671    2.3270 C   0  0  0  0  0  0  0  0  0  0  0  0
  -86.6624   27.8424    1.6501 O   0  0  0  0  0  0  0  0  0  0  0  0
  -88.9747   26.9574    2.8659 O   0  0  0  0  0  0  0  0  0  0  0  0
  -89.2720   25.5777    2.9433 C   0  0  0  0  0  0  0  0  0  0  0  0
  -90.5295   25.2291    2.1916 C   0  0  0  0  0  0  0  0  0  0  0  0
  -90.5178   23.7648    1.8770 C   0  0  0  0  0  0  0  0  0  0  0  0
  -90.9087   23.4653    0.5114 N   0  0  0  0  0  0  0  0  0  0  0  0
  -89.7022   23.7629   -0.2948 C   0  0  0  0  0  0  0  0  0  0  0  0
  -89.9768   23.7741   -1.7603 C   0  0  0  0  0  0  0  0  0  0  0  0
  -91.2206   24.3390   -2.0967 O   0  0  0  0  0  0  0  0  0  0  0  0
  -91.5602   25.2227   -1.0926 C   0  0  0  0  0  0  0  0  0  0  0  0
  -91.9589   24.4250    0.1507 C   0  0  0  0  0  0  0  0  0  0  0  0
 37 38  1  0  0  0
 38 27  1  0  0  0
 27 28  2  0  0  0
 28 29  1  0  0  0
 29 30  2  0  0  0
 30 26  1  0  0  0
 26  1  1  0  0  0
  1  2  2  0  0  0
  2  3  1  0  0  0
  3  4  2  0  0  0
  4  8  1  0  0  0
  8  9  1  0  0  0
  9 10  2  0  0  0
  9 12  1  0  0  0
 12 13  1  0  0  0
 13 14  1  0  0  0
 12 15  1  0  0  0
 15 16  2  0  0  0
 15 17  1  0  0  0
 17 19  1  0  0  0
 19 20  2  0  0  0
 20 21  1  0  0  0
 21 22  2  0  0  0
 22 23  1  0  0  0
 22 24  1  0  0  0
 24 25  2  0  0  0
  4  5  1  0  0  0
  5  6  2  0  0  0
  6  7  1  0  0  0
 30 31  1  0  0  0
 31 32  2  0  0  0
 32 33  1  0  0  0
 33 34  2  0  0  0
 34 35  1  0  0  0
 35 36  2  0  0  0
 36 39  1  0  0  0
 39 40  1  0  0  0
 40 41  1  0  0  0
 41 42  1  0  0  0
 42 43  1  0  0  0
 43 44  1  0  0  0
 44 45  1  0  0  0
 45 46  1  0  0  0
 46 47  1  0  0  0
 47 48  1  0  0  0
 36 27  1  0  0  0
 48 43  1  0  0  0
 34 29  1  0  0  0
  6  1  1  0  0  0
 14 12  1  0  0  0
 25 19  1  0  0  0
  8 11  1  0  0  0
 17 18  1  0  0  0
M  END
> <minimizedAffinity>
-7.83590

> <CNNscore>
0.0597632304

> <CNNaffinity>
6.4862489700

> <CNN_VS>
0.3876391947

> <CNNaffinity_variance>
0.3471462131

$$$$
[H]c1nc2c([H])c(OC([H])([H])C([H])([H])C([H])([H])N3C([H])([H])C([H])([H])OC([H])([H])C3([H])[H])c(OC([H])([H])[H])c([H])c2c(Oc2c([H])c([H])c(N([H])C(=O)C3(C(=O)N([H])c4c([H])c([H])c(F)c([H])c4[H])C([H])([H])C3([H])[H])c([H])c2F)c1[H]


 48 53  0  0  0  0  0  0  0  0999 V2000
  -88.3123   32.6098   -2.1488 C   0  0  0  0  0  0  0  0  0  0  0  0
  -88.9524   32.8753   -3.3495 C   0  0  0  0  0  0  0  0  0  0  0  0
  -88.5074   33.8844   -4.2067 C   0  0  0  0  0  0  0  0  0  0  0  0
  -87.4161   34.6659   -3.9131 C   0  0  0  0  0  0  0  0  0  0  0  0
  -86.7819   34.3963   -2.7151 C   0  0  0  0  0  0  0  0  0  0  0  0
  -87.2192   33.3894   -1.8476 C   0  0  0  0  0  0  0  0  0  0  0  0
  -86.5712   33.1783   -0.6648 F   0  0  0  0  0  0  0  0  0  0  0  0
  -86.9576   35.7100   -4.7694 N   0  0  0  0  0  0  0  0  0  0  0  0
  -87.1507   37.0908   -4.5494 C   0  0  0  0  0  0  0  0  0  0  0  0
  -87.7885   37.5522   -3.5837 O   0  0  0  0  0  0  0  0  0  0  0  0
  -86.4266   35.4341   -5.6339 H   0  0  0  0  0  0  0  0  0  0  0  0
  -86.5180   38.0502   -5.5360 C   0  0  0  0  0  0  0  0  0  0  0  0
  -87.4978   38.7483   -6.4659 C   0  0  0  0  0  0  0  0  0  0  0  0
  -86.6938   37.5565   -6.9527 C   0  0  0  0  0  0  0  0  0  0  0  0
  -85.2480   38.6838   -5.1559 C   0  0  0  0  0  0  0  0  0  0  0  0
  -85.2178   39.2832   -4.0032 O   0  0  0  0  0  0  0  0  0  0  0  0
  -84.0695   38.7204   -5.9138 N   0  0  0  0  0  0  0  0  0  0  0  0
  -84.0735   38.2971   -6.8921 H   0  0  0  0  0  0  0  0  0  0  0  0
  -82.8475   39.3308   -5.4747 C   0  0  0  0  0  0  0  0  0  0  0  0
  -82.5825   40.6210   -5.7932 C   0  0  0  0  0  0  0  0  0  0  0  0
  -81.3877   41.1987   -5.4172 C   0  0  0  0  0  0  0  0  0  0  0  0
  -80.4614   40.4374   -4.7079 C   0  0  0  0  0  0  0  0  0  0  0  0
  -79.2653   40.9479   -4.3014 F   0  0  0  0  0  0  0  0  0  0  0  0
  -80.7216   39.1110   -4.3741 C   0  0  0  0  0  0  0  0  0  0  0  0
  -81.9205   38.5893   -4.7712 C   0  0  0  0  0  0  0  0  0  0  0  0
  -88.8043   31.5907   -1.3280 O   0  0  0  0  0  0  0  0  0  0  0  0
  -91.4698   28.9474   -2.9641 C   0  0  0  0  0  0  0  0  0  0  0  0
  -90.5588   29.8196   -2.4085 C   0  0  0  0  0  0  0  0  0  0  0  0
  -89.3233   29.3500   -1.9406 C   0  0  0  0  0  0  0  0  0  0  0  0
  -88.4189   30.2642   -1.3840 C   0  0  0  0  0  0  0  0  0  0  0  0
  -87.2128   29.8116   -0.9295 C   0  0  0  0  0  0  0  0  0  0  0  0
  -86.9265   28.4505   -1.0348 C   0  0  0  0  0  0  0  0  0  0  0  0
  -87.8165   27.5962   -1.5753 N   0  0  0  0  0  0  0  0  0  0  0  0
  -88.9973   28.0175   -2.0262 C   0  0  0  0  0  0  0  0  0  0  0  0
  -89.8983   27.1364   -2.5777 C   0  0  0  0  0  0  0  0  0  0  0  0
  -91.1002   27.5955   -3.0320 C   0  0  0  0  0  0  0  0  0  0  0  0
  -93.3872   30.4537   -2.9554 C   0  0  0  0  0  0  0  0  0  0  0  0
  -92.6892   29.3511   -3.4398 O   0  0  0  0  0  0  0  0  0  0  0  0
  -91.9705   26.6912   -3.5669 O   0  0  0  0  0  0  0  0  0  0  0  0
  -93.2767   26.4690   -3.0747 C   0  0  0  0  0  0  0  0  0  0  0  0
  -93.2662   25.9653   -1.6557 C   0  0  0  0  0  0  0  0  0  0  0  0
  -92.6245   24.6123   -1.6247 C   0  0  0  0  0  0  0  0  0  0  0  0
  -91.9631   24.3165   -0.3668 N   0  0  0  0  0  0  0  0  0  0  0  0
  -91.6917   25.6439    0.2321 C   0  0  0  0  0  0  0  0  0  0  0  0
  -90.7770   25.5697    1.4073 C   0  0  0  0  0  0  0  0  0  0  0  0
  -89.7444   24.6257    1.2595 O   0  0  0  0  0  0  0  0  0  0  0  0
  -89.5161   24.4685   -0.0925 C   0  0  0  0  0  0  0  0  0  0  0  0
  -90.6811   23.6845   -0.7001 C   0  0  0  0  0  0  0  0  0  0  0  0
 37 38  1  0  0  0
 38 27  1  0  0  0
 27 28  2  0  0  0
 28 29  1  0  0  0
 29 30  2  0  0  0
 30 26  1  0  0  0
 26  1  1  0  0  0
  1  2  2  0  0  0
  2  3  1  0  0  0
  3  4  2  0  0  0
  4  8  1  0  0  0
  8  9  1  0  0  0
  9 10  2  0  0  0
  9 12  1  0  0  0
 12 13  1  0  0  0
 13 14  1  0  0  0
 12 15  1  0  0  0
 15 16  2  0  0  0
 15 17  1  0  0  0
 17 19  1  0  0  0
 19 20  2  0  0  0
 20 21  1  0  0  0
 21 22  2  0  0  0
 22 23  1  0  0  0
 22 24  1  0  0  0
 24 25  2  0  0  0
  4  5  1  0  0  0
  5  6  2  0  0  0
  6  7  1  0  0  0
 30 31  1  0  0  0
 31 32  2  0  0  0
 32 33  1  0  0  0
 33 34  2  0  0  0
 34 35  1  0  0  0
 35 36  2  0  0  0
 36 39  1  0  0  0
 39 40  1  0  0  0
 40 41  1  0  0  0
 41 42  1  0  0  0
 42 43  1  0  0  0
 43 44  1  0  0  0
 44 45  1  0  0  0
 45 46  1  0  0  0
 46 47  1  0  0  0
 47 48  1  0  0  0
 36 27  1  0  0  0
 48 43  1  0  0  0
 34 29  1  0  0  0
  6  1  1  0  0  0
 14 12  1  0  0  0
 25 19  1  0  0  0
  8 11  1  0  0  0
 17 18  1  0  0  0
M  END
> <minimizedAffinity>
-7.21964

> <CNNscore>
0.0537605137

> <CNNaffinity>
6.1437473297

> <CNN_VS>
0.3302910030

> <CNNaffinity_variance>
0.5251179338

$$$$
[H]c1nc2c([H])c(OC([H])([H])C([H])([H])C([H])([H])N3C([H])([H])C([H])([H])OC([H])([H])C3([H])[H])c(OC([H])([H])[H])c([H])c2c(Oc2c([H])c([H])c(N([H])C(=O)C3(C(=O)N([H])c4c([H])c([H])c(F)c([H])c4[H])C([H])([H])C3([H])[H])c([H])c2F)c1[H]


 48 53  0  0  0  0  0  0  0  0999 V2000
  -88.6566   34.0440   -2.6588 C   0  0  0  0  0  0  0  0  0  0  0  0
  -89.4184   35.1235   -3.0788 C   0  0  0  0  0  0  0  0  0  0  0  0
  -88.8631   36.1593   -3.8337 C   0  0  0  0  0  0  0  0  0  0  0  0
  -87.5397   36.1679   -4.2031 C   0  0  0  0  0  0  0  0  0  0  0  0
  -86.7856   35.0890   -3.7819 C   0  0  0  0  0  0  0  0  0  0  0  0
  -87.3300   34.0464   -3.0242 C   0  0  0  0  0  0  0  0  0  0  0  0
  -86.5366   33.0144   -2.6134 F   0  0  0  0  0  0  0  0  0  0  0  0
  -86.9533   37.2244   -4.9605 N   0  0  0  0  0  0  0  0  0  0  0  0
  -86.7732   37.2233   -6.3605 C   0  0  0  0  0  0  0  0  0  0  0  0
  -87.0787   36.2636   -7.0938 O   0  0  0  0  0  0  0  0  0  0  0  0
  -86.6325   38.0789   -4.4386 H   0  0  0  0  0  0  0  0  0  0  0  0
  -86.2016   38.4758   -6.9918 C   0  0  0  0  0  0  0  0  0  0  0  0
  -87.2368   39.5002   -7.4287 C   0  0  0  0  0  0  0  0  0  0  0  0
  -86.5981   38.5726   -8.4462 C   0  0  0  0  0  0  0  0  0  0  0  0
  -84.8475   38.8854   -6.5950 C   0  0  0  0  0  0  0  0  0  0  0  0
  -83.9784   39.0288   -7.5506 O   0  0  0  0  0  0  0  0  0  0  0  0
  -84.3923   39.1246   -5.2911 N   0  0  0  0  0  0  0  0  0  0  0  0
  -85.0564   38.9544   -4.4749 H   0  0  0  0  0  0  0  0  0  0  0  0
  -83.0616   39.5531   -4.9680 C   0  0  0  0  0  0  0  0  0  0  0  0
  -82.0634   38.6425   -4.8644 C   0  0  0  0  0  0  0  0  0  0  0  0
  -80.7929   39.0415   -4.5049 C   0  0  0  0  0  0  0  0  0  0  0  0
  -80.5534   40.3901   -4.2509 C   0  0  0  0  0  0  0  0  0  0  0  0
  -79.3212   40.8519   -3.8974 F   0  0  0  0  0  0  0  0  0  0  0  0
  -81.5701   41.3357   -4.3542 C   0  0  0  0  0  0  0  0  0  0  0  0
  -82.8092   40.8856   -4.7138 C   0  0  0  0  0  0  0  0  0  0  0  0
  -89.2641   33.0381   -1.9016 O   0  0  0  0  0  0  0  0  0  0  0  0
  -87.2800   29.8755   -0.2191 C   0  0  0  0  0  0  0  0  0  0  0  0
  -87.9582   30.9255   -0.7998 C   0  0  0  0  0  0  0  0  0  0  0  0
  -88.9147   30.6860   -1.7965 C   0  0  0  0  0  0  0  0  0  0  0  0
  -89.5881   31.7761   -2.3637 C   0  0  0  0  0  0  0  0  0  0  0  0
  -90.5230   31.5473   -3.3331 C   0  0  0  0  0  0  0  0  0  0  0  0
  -90.7717   30.2319   -3.7252 C   0  0  0  0  0  0  0  0  0  0  0  0
  -90.1083   29.2047   -3.1605 N   0  0  0  0  0  0  0  0  0  0  0  0
  -89.1943   29.4061   -2.2124 C   0  0  0  0  0  0  0  0  0  0  0  0
  -88.5236   28.3494   -1.6416 C   0  0  0  0  0  0  0  0  0  0  0  0
  -87.5927   28.5848   -0.6721 C   0  0  0  0  0  0  0  0  0  0  0  0
  -85.0443   30.5049    0.5229 C   0  0  0  0  0  0  0  0  0  0  0  0
  -86.3385   30.0507    0.7602 O   0  0  0  0  0  0  0  0  0  0  0  0
  -86.9436   27.5124   -0.1337 O   0  0  0  0  0  0  0  0  0  0  0  0
  -87.5714   26.2830    0.1699 C   0  0  0  0  0  0  0  0  0  0  0  0
  -88.2304   26.3059    1.5237 C   0  0  0  0  0  0  0  0  0  0  0  0
  -89.7139   26.2044    1.3442 C   0  0  0  0  0  0  0  0  0  0  0  0
  -90.4636   26.5312    2.5435 N   0  0  0  0  0  0  0  0  0  0  0  0
  -89.6399   27.5529    3.2304 C   0  0  0  0  0  0  0  0  0  0  0  0
  -90.1046   27.8286    4.6201 C   0  0  0  0  0  0  0  0  0  0  0  0
  -90.5422   26.6812    5.3065 O   0  0  0  0  0  0  0  0  0  0  0  0
  -89.8948   25.5948    4.7539 C   0  0  0  0  0  0  0  0  0  0  0  0
  -90.4891   25.3194    3.3711 C   0  0  0  0  0  0  0  0  0  0  0  0
 37 38  1  0  0  0
 38 27  1  0  0  0
 27 28  2  0  0  0
 28 29  1  0  0  0
 29 30  2  0  0  0
 30 26  1  0  0  0
 26  1  1  0  0  0
  1  2  2  0  0  0
  2  3  1  0  0  0
  3  4  2  0  0  0
  4  8  1  0  0  0
  8  9  1  0  0  0
  9 10  2  0  0  0
  9 12  1  0  0  0
 12 13  1  0  0  0
 13 14  1  0  0  0
 12 15  1  0  0  0
 15 16  2  0  0  0
 15 17  1  0  0  0
 17 19  1  0  0  0
 19 20  2  0  0  0
 20 21  1  0  0  0
 21 22  2  0  0  0
 22 23  1  0  0  0
 22 24  1  0  0  0
 24 25  2  0  0  0
  4  5  1  0  0  0
  5  6  2  0  0  0
  6  7  1  0  0  0
 30 31  1  0  0  0
 31 32  2  0  0  0
 32 33  1  0  0  0
 33 34  2  0  0  0
 34 35  1  0  0  0
 35 36  2  0  0  0
 36 39  1  0  0  0
 39 40  1  0  0  0
 40 41  1  0  0  0
 41 42  1  0  0  0
 42 43  1  0  0  0
 43 44  1  0  0  0
 44 45  1  0  0  0
 45 46  1  0  0  0
 46 47  1  0  0  0
 47 48  1  0  0  0
 36 27  1  0  0  0
 48 43  1  0  0  0
 34 29  1  0  0  0
  6  1  1  0  0  0
 14 12  1  0  0  0
 25 19  1  0  0  0
  8 11  1  0  0  0
 17 18  1  0  0  0
M  END
> <minimizedAffinity>
-8.88505

> <CNNscore>
0.0501792878

> <CNNaffinity>
6.4515709877

> <CNN_VS>
0.3237352371

> <CNNaffinity_variance>
0.4116517603

$$$$
[H]c1c([H])c([H])c2c(c1[H])c1c3c(c4c5c([H])c([H])c([H])c([H])c5n5c4c1n2[C@@]1([H])O[C@]5(C([H])([H])[H])[C@@]([H])(OC([H])([H])[H])[C@@]([H])(N([H])C([H])([H])[H])C1([H])[H])C([H])([H])N([H])C3=O


 37 44  0  0  0  0  0  0  0  0999 V2000
  -88.1855   25.9693   -0.1464 C   0  0  0  0  0  0  0  0  0  0  0  0
  -87.1306   26.4856    0.7424 C   0  0  0  0  0  0  0  0  0  0  0  0
  -87.5406   27.6169    1.6271 C   0  0  0  0  0  0  0  0  0  0  0  0
  -88.8074   27.9025    1.7650 O   0  0  0  0  0  0  0  0  0  0  0  0
  -89.7549   27.7392    0.7809 C   0  0  0  0  0  0  0  0  0  0  0  0
  -91.0483   27.7442    1.6219 C   0  0  0  0  0  0  0  0  0  0  0  0
  -89.5935   26.4228    0.1679 C   0  0  0  0  0  0  0  0  0  0  0  0
  -89.7079   28.8952   -0.0988 N   0  0  0  0  0  0  0  0  0  0  0  0
  -90.6811   29.4021   -0.8623 C   0  0  0  0  0  0  0  0  0  0  0  0
  -91.9654   29.0072   -1.0900 C   0  0  0  0  0  0  0  0  0  0  0  0
  -92.7801   29.7287   -1.9497 C   0  0  0  0  0  0  0  0  0  0  0  0
  -92.3513   30.8563   -2.6065 C   0  0  0  0  0  0  0  0  0  0  0  0
  -91.0374   31.2721   -2.3827 C   0  0  0  0  0  0  0  0  0  0  0  0
  -90.2531   30.5367   -1.5249 C   0  0  0  0  0  0  0  0  0  0  0  0
  -88.9379   30.7345   -1.1439 C   0  0  0  0  0  0  0  0  0  0  0  0
  -87.9883   31.6962   -1.4600 C   0  0  0  0  0  0  0  0  0  0  0  0
  -88.1089   32.8716   -2.3752 C   0  0  0  0  0  0  0  0  0  0  0  0
  -86.8393   33.5372   -2.3149 N   0  0  0  0  0  0  0  0  0  0  0  0
  -85.9657   32.8218   -1.4453 C   0  0  0  0  0  0  0  0  0  0  0  0
  -84.8075   33.1954   -1.2438 O   0  0  0  0  0  0  0  0  0  0  0  0
  -86.7131   31.6874   -0.9338 C   0  0  0  0  0  0  0  0  0  0  0  0
  -86.4236   30.6561   -0.0648 C   0  0  0  0  0  0  0  0  0  0  0  0
  -85.2952   30.2959    0.6409 C   0  0  0  0  0  0  0  0  0  0  0  0
  -84.0417   30.8253    0.7605 C   0  0  0  0  0  0  0  0  0  0  0  0
  -83.1197   30.1846    1.5873 C   0  0  0  0  0  0  0  0  0  0  0  0
  -83.4196   29.0381    2.2901 C   0  0  0  0  0  0  0  0  0  0  0  0
  -84.6860   28.5050    2.1676 C   0  0  0  0  0  0  0  0  0  0  0  0
  -85.5848   29.1286    1.3624 C   0  0  0  0  0  0  0  0  0  0  0  0
  -86.8509   28.8044    1.0929 N   0  0  0  0  0  0  0  0  0  0  0  0
  -87.3720   29.6986    0.2480 C   0  0  0  0  0  0  0  0  0  0  0  0
  -88.6430   29.7356   -0.2929 C   0  0  0  0  0  0  0  0  0  0  0  0
  -86.6027   34.4272   -2.8445 H   0  0  0  0  0  0  0  0  0  0  0  0
  -86.6321   26.9423   -1.5989 C   0  0  0  0  0  0  0  0  0  0  0  0
  -87.9132   26.2680   -1.5586 N   0  0  0  0  0  0  0  0  0  0  0  0
  -87.8403   25.4272   -2.1385 H   0  0  0  0  0  0  0  0  0  0  0  0
  -90.3044   26.1510   -0.9906 O   0  0  0  0  0  0  0  0  0  0  0  0
  -91.2256   25.1456   -0.8985 C   0  0  0  0  0  0  0  0  0  0  0  0
 33 34  1  0  0  0
 34  1  1  0  0  0
  1  2  1  0  0  0
  2  3  1  0  0  0
  3  4  1  0  0  0
  4  5  1  0  0  0
  5  6  1  0  0  0
  5  7  1  0  0  0
  7 36  1  0  0  0
 36 37  1  0  0  0
  5  8  1  0  0  0
  8  9  1  0  0  0
  9 10  2  0  0  0
 10 11  1  0  0  0
 11 12  2  0  0  0
 12 13  1  0  0  0
 13 14  2  0  0  0
 14 15  1  0  0  0
 15 16  2  0  0  0
 16 17  1  0  0  0
 17 18  1  0  0  0
 18 19  1  0  0  0
 19 20  2  0  0  0
 19 21  1  0  0  0
 21 22  2  0  0  0
 22 23  1  0  0  0
 23 24  2  0  0  0
 24 25  1  0  0  0
 25 26  2  0  0  0
 26 27  1  0  0  0
 27 28  2  0  0  0
 28 29  1  0  0  0
 29 30  1  0  0  0
 30 31  2  0  0  0
  7  1  1  0  0  0
 31  8  1  0  0  0
 29  3  1  0  0  0
 14  9  1  0  0  0
 31 15  1  0  0  0
 21 16  1  0  0  0
 30 22  1  0  0  0
 28 23  1  0  0  0
 34 35  1  0  0  0
 18 32  1  0  0  0
M  END
> <minimizedAffinity>
-10.88776

> <CNNscore>
0.4939234257

> <CNNaffinity>
6.9002966881

> <CNN_VS>
3.4082181454

> <CNNaffinity_variance>
0.1545022726

$$$$
[H]c1c([H])c([H])c2c(c1[H])c1c3c(c4c5c([H])c([H])c([H])c([H])c5n5c4c1n2[C@@]1([H])O[C@]5(C([H])([H])[H])[C@@]([H])(OC([H])([H])[H])[C@@]([H])(N([H])C([H])([H])[H])C1([H])[H])C([H])([H])N([H])C3=O


 37 44  0  0  0  0  0  0  0  0999 V2000
  -88.3905   27.3909   -1.3457 C   0  0  0  0  0  0  0  0  0  0  0  0
  -87.5705   27.1197   -0.1527 C   0  0  0  0  0  0  0  0  0  0  0  0
  -87.7299   28.0973    0.9652 C   0  0  0  0  0  0  0  0  0  0  0  0
  -88.7267   28.9407    0.9484 O   0  0  0  0  0  0  0  0  0  0  0  0
  -89.2761   29.4754   -0.1941 C   0  0  0  0  0  0  0  0  0  0  0  0
  -90.6431   29.9522    0.3390 C   0  0  0  0  0  0  0  0  0  0  0  0
  -89.4937   28.4103   -1.1702 C   0  0  0  0  0  0  0  0  0  0  0  0
  -88.4625   30.6056   -0.6099 N   0  0  0  0  0  0  0  0  0  0  0  0
  -88.8235   31.6731   -1.3291 C   0  0  0  0  0  0  0  0  0  0  0  0
  -90.0024   32.0261   -1.9146 C   0  0  0  0  0  0  0  0  0  0  0  0
  -90.1075   33.2152   -2.6207 C   0  0  0  0  0  0  0  0  0  0  0  0
  -89.0556   34.0860   -2.7681 C   0  0  0  0  0  0  0  0  0  0  0  0
  -87.8416   33.7366   -2.1736 C   0  0  0  0  0  0  0  0  0  0  0  0
  -87.7674   32.5514   -1.4796 C   0  0  0  0  0  0  0  0  0  0  0  0
  -86.6954   31.9855   -0.8128 C   0  0  0  0  0  0  0  0  0  0  0  0
  -85.3837   32.3878   -0.6027 C   0  0  0  0  0  0  0  0  0  0  0  0
  -84.6921   33.6250   -1.0766 C   0  0  0  0  0  0  0  0  0  0  0  0
  -83.3571   33.5417   -0.5577 N   0  0  0  0  0  0  0  0  0  0  0  0
  -83.2028   32.3264    0.1707 C   0  0  0  0  0  0  0  0  0  0  0  0
  -82.1311   32.0236    0.7011 O   0  0  0  0  0  0  0  0  0  0  0  0
  -84.4799   31.6382    0.1214 C   0  0  0  0  0  0  0  0  0  0  0  0
  -84.9527   30.4476    0.6329 C   0  0  0  0  0  0  0  0  0  0  0  0
  -84.3797   29.4383    1.3772 C   0  0  0  0  0  0  0  0  0  0  0  0
  -83.1350   29.2361    1.9022 C   0  0  0  0  0  0  0  0  0  0  0  0
  -82.8943   28.0683    2.6253 C   0  0  0  0  0  0  0  0  0  0  0  0
  -83.8602   27.1081    2.8332 C   0  0  0  0  0  0  0  0  0  0  0  0
  -85.1165   27.3143    2.3019 C   0  0  0  0  0  0  0  0  0  0  0  0
  -85.3517   28.4515    1.5974 C   0  0  0  0  0  0  0  0  0  0  0  0
  -86.4718   28.8637    1.0004 N   0  0  0  0  0  0  0  0  0  0  0  0
  -86.2606   30.0490    0.4214 C   0  0  0  0  0  0  0  0  0  0  0  0
  -87.1441   30.8233   -0.3060 C   0  0  0  0  0  0  0  0  0  0  0  0
  -82.6094   34.2820   -0.7036 H   0  0  0  0  0  0  0  0  0  0  0  0
  -86.1922   27.5744   -2.1222 C   0  0  0  0  0  0  0  0  0  0  0  0
  -87.5735   27.7949   -2.4977 N   0  0  0  0  0  0  0  0  0  0  0  0
  -87.7606   27.2373   -3.3360 H   0  0  0  0  0  0  0  0  0  0  0  0
  -89.8318   28.7712   -2.4652 O   0  0  0  0  0  0  0  0  0  0  0  0
  -91.1087   28.4719   -2.8497 C   0  0  0  0  0  0  0  0  0  0  0  0
 33 34  1  0  0  0
 34  1  1  0  0  0
  1  2  1  0  0  0
  2  3  1  0  0  0
  3  4  1  0  0  0
  4  5  1  0  0  0
  5  6  1  0  0  0
  5  7  1  0  0  0
  7 36  1  0  0  0
 36 37  1  0  0  0
  5  8  1  0  0  0
  8  9  1  0  0  0
  9 10  2  0  0  0
 10 11  1  0  0  0
 11 12  2  0  0  0
 12 13  1  0  0  0
 13 14  2  0  0  0
 14 15  1  0  0  0
 15 16  2  0  0  0
 16 17  1  0  0  0
 17 18  1  0  0  0
 18 19  1  0  0  0
 19 20  2  0  0  0
 19 21  1  0  0  0
 21 22  2  0  0  0
 22 23  1  0  0  0
 23 24  2  0  0  0
 24 25  1  0  0  0
 25 26  2  0  0  0
 26 27  1  0  0  0
 27 28  2  0  0  0
 28 29  1  0  0  0
 29 30  1  0  0  0
 30 31  2  0  0  0
  7  1  1  0  0  0
 31  8  1  0  0  0
 29  3  1  0  0  0
 14  9  1  0  0  0
 31 15  1  0  0  0
 21 16  1  0  0  0
 30 22  1  0  0  0
 28 23  1  0  0  0
 34 35  1  0  0  0
 18 32  1  0  0  0
M  END
> <minimizedAffinity>
-9.95777

> <CNNscore>
0.2291288078

> <CNNaffinity>
6.5785737038

> <CNN_VS>
1.5073407888

> <CNNaffinity_variance>
0.5726304054

$$$$
[H]c1c([H])c([H])c2c(c1[H])c1c3c(c4c5c([H])c([H])c([H])c([H])c5n5c4c1n2[C@@]1([H])O[C@]5(C([H])([H])[H])[C@@]([H])(OC([H])([H])[H])[C@@]([H])(N([H])C([H])([H])[H])C1([H])[H])C([H])([H])N([H])C3=O


 37 44  0  0  0  0  0  0  0  0999 V2000
  -89.1233   30.2082   -3.1858 C   0  0  0  0  0  0  0  0  0  0  0  0
  -89.8584   29.3425   -2.2479 C   0  0  0  0  0  0  0  0  0  0  0  0
  -89.9411   29.8490   -0.8453 C   0  0  0  0  0  0  0  0  0  0  0  0
  -89.6173   31.0871   -0.5856 O   0  0  0  0  0  0  0  0  0  0  0  0
  -88.6528   31.7987   -1.2611 C   0  0  0  0  0  0  0  0  0  0  0  0
  -89.0497   33.2435   -0.8937 C   0  0  0  0  0  0  0  0  0  0  0  0
  -88.8306   31.6097   -2.6989 C   0  0  0  0  0  0  0  0  0  0  0  0
  -87.3553   31.4621   -0.6993 N   0  0  0  0  0  0  0  0  0  0  0  0
  -86.2370   32.1944   -0.6860 C   0  0  0  0  0  0  0  0  0  0  0  0
  -85.9407   33.4219   -1.1985 C   0  0  0  0  0  0  0  0  0  0  0  0
  -84.6728   33.9615   -1.0406 C   0  0  0  0  0  0  0  0  0  0  0  0
  -83.6655   33.3067   -0.3749 C   0  0  0  0  0  0  0  0  0  0  0  0
  -83.9552   32.0479    0.1550 C   0  0  0  0  0  0  0  0  0  0  0  0
  -85.2212   31.5385   -0.0172 C   0  0  0  0  0  0  0  0  0  0  0  0
  -85.7507   30.3313    0.4028 C   0  0  0  0  0  0  0  0  0  0  0  0
  -85.2327   29.2608    1.1186 C   0  0  0  0  0  0  0  0  0  0  0  0
  -83.8566   29.0774    1.6719 C   0  0  0  0  0  0  0  0  0  0  0  0
  -83.8753   27.8047    2.3341 N   0  0  0  0  0  0  0  0  0  0  0  0
  -85.1622   27.2097    2.1892 C   0  0  0  0  0  0  0  0  0  0  0  0
  -85.4176   26.1004    2.6645 O   0  0  0  0  0  0  0  0  0  0  0  0
  -85.9766   28.1417    1.4308 C   0  0  0  0  0  0  0  0  0  0  0  0
  -87.2824   28.1392    0.9864 C   0  0  0  0  0  0  0  0  0  0  0  0
  -88.3161   27.2313    1.0779 C   0  0  0  0  0  0  0  0  0  0  0  0
  -88.4481   25.9986    1.6513 C   0  0  0  0  0  0  0  0  0  0  0  0
  -89.6737   25.3410    1.5517 C   0  0  0  0  0  0  0  0  0  0  0  0
  -90.7591   25.8825    0.8983 C   0  0  0  0  0  0  0  0  0  0  0  0
  -90.6234   27.1275    0.3198 C   0  0  0  0  0  0  0  0  0  0  0  0
  -89.4299   27.7688    0.4164 C   0  0  0  0  0  0  0  0  0  0  0  0
  -89.0678   28.9635   -0.0549 N   0  0  0  0  0  0  0  0  0  0  0  0
  -87.7958   29.2074    0.2727 C   0  0  0  0  0  0  0  0  0  0  0  0
  -87.0266   30.3168   -0.0223 C   0  0  0  0  0  0  0  0  0  0  0  0
  -83.0470   27.3843    2.8495 H   0  0  0  0  0  0  0  0  0  0  0  0
  -87.8335   28.2604   -3.0764 C   0  0  0  0  0  0  0  0  0  0  0  0
  -87.8584   29.6018   -3.6217 N   0  0  0  0  0  0  0  0  0  0  0  0
  -87.7816   29.5249   -4.6400 H   0  0  0  0  0  0  0  0  0  0  0  0
  -87.8296   32.0610   -3.5450 O   0  0  0  0  0  0  0  0  0  0  0  0
  -88.1761   33.0871   -4.3786 C   0  0  0  0  0  0  0  0  0  0  0  0
 33 34  1  0  0  0
 34  1  1  0  0  0
  1  2  1  0  0  0
  2  3  1  0  0  0
  3  4  1  0  0  0
  4  5  1  0  0  0
  5  6  1  0  0  0
  5  7  1  0  0  0
  7 36  1  0  0  0
 36 37  1  0  0  0
  5  8  1  0  0  0
  8  9  1  0  0  0
  9 10  2  0  0  0
 10 11  1  0  0  0
 11 12  2  0  0  0
 12 13  1  0  0  0
 13 14  2  0  0  0
 14 15  1  0  0  0
 15 16  2  0  0  0
 16 17  1  0  0  0
 17 18  1  0  0  0
 18 19  1  0  0  0
 19 20  2  0  0  0
 19 21  1  0  0  0
 21 22  2  0  0  0
 22 23  1  0  0  0
 23 24  2  0  0  0
 24 25  1  0  0  0
 25 26  2  0  0  0
 26 27  1  0  0  0
 27 28  2  0  0  0
 28 29  1  0  0  0
 29 30  1  0  0  0
 30 31  2  0  0  0
  7  1  1  0  0  0
 31  8  1  0  0  0
 29  3  1  0  0  0
 14  9  1  0  0  0
 31 15  1  0  0  0
 21 16  1  0  0  0
 30 22  1  0  0  0
 28 23  1  0  0  0
 34 35  1  0  0  0
 18 32  1  0  0  0
M  END
> <minimizedAffinity>
-10.22291

> <CNNscore>
0.2255734354

> <CNNaffinity>
6.7412385941

> <CNN_VS>
1.5206443071

> <CNNaffinity_variance>
0.1352533698

$$$$
[H]c1c([H])c([H])c2c(c1[H])c1c3c(c4c5c([H])c([H])c([H])c([H])c5n5c4c1n2[C@@]1([H])O[C@]5(C([H])([H])[H])[C@@]([H])(OC([H])([H])[H])[C@@]([H])(N([H])C([H])([H])[H])C1([H])[H])C([H])([H])N([H])C3=O


 37 44  0  0  0  0  0  0  0  0999 V2000
  -90.8335   29.7277   -1.1477 C   0  0  0  0  0  0  0  0  0  0  0  0
  -90.4437   30.6047   -2.2650 C   0  0  0  0  0  0  0  0  0  0  0  0
  -89.2458   30.1580   -3.0372 C   0  0  0  0  0  0  0  0  0  0  0  0
  -88.7874   28.9462   -2.8742 O   0  0  0  0  0  0  0  0  0  0  0  0
  -88.8445   28.2436   -1.6926 C   0  0  0  0  0  0  0  0  0  0  0  0
  -88.6432   26.8020   -2.2041 C   0  0  0  0  0  0  0  0  0  0  0  0
  -90.1852   28.3616   -1.1241 C   0  0  0  0  0  0  0  0  0  0  0  0
  -87.7276   28.6551   -0.8587 N   0  0  0  0  0  0  0  0  0  0  0  0
  -87.1119   27.9682    0.1089 C   0  0  0  0  0  0  0  0  0  0  0  0
  -87.3342   26.7317    0.6370 C   0  0  0  0  0  0  0  0  0  0  0  0
  -86.5299   26.2496    1.6589 C   0  0  0  0  0  0  0  0  0  0  0  0
  -85.4875   26.9720    2.1862 C   0  0  0  0  0  0  0  0  0  0  0  0
  -85.2487   28.2408    1.6547 C   0  0  0  0  0  0  0  0  0  0  0  0
  -86.0626   28.6922    0.6420 C   0  0  0  0  0  0  0  0  0  0  0  0
  -86.0362   29.8953   -0.0406 C   0  0  0  0  0  0  0  0  0  0  0  0
  -85.2204   31.0158    0.0340 C   0  0  0  0  0  0  0  0  0  0  0  0
  -84.0624   31.2771    0.9419 C   0  0  0  0  0  0  0  0  0  0  0  0
  -83.5742   32.5761    0.5777 N   0  0  0  0  0  0  0  0  0  0  0  0
  -84.3801   33.1135   -0.4678 C   0  0  0  0  0  0  0  0  0  0  0  0
  -84.1626   34.2319   -0.9404 O   0  0  0  0  0  0  0  0  0  0  0  0
  -85.3895   32.1177   -0.7786 C   0  0  0  0  0  0  0  0  0  0  0  0
  -86.4290   32.0496   -1.6827 C   0  0  0  0  0  0  0  0  0  0  0  0
  -86.9218   32.9197   -2.6321 C   0  0  0  0  0  0  0  0  0  0  0  0
  -86.5648   34.1705   -3.0490 C   0  0  0  0  0  0  0  0  0  0  0  0
  -87.3045   34.7748   -4.0650 C   0  0  0  0  0  0  0  0  0  0  0  0
  -88.3820   34.1629   -4.6673 C   0  0  0  0  0  0  0  0  0  0  0  0
  -88.7409   32.8998   -4.2445 C   0  0  0  0  0  0  0  0  0  0  0  0
  -88.0209   32.3104   -3.2549 C   0  0  0  0  0  0  0  0  0  0  0  0
  -88.1765   31.1110   -2.6911 N   0  0  0  0  0  0  0  0  0  0  0  0
  -87.2408   30.9316   -1.7545 C   0  0  0  0  0  0  0  0  0  0  0  0
  -87.0447   29.8411   -0.9289 C   0  0  0  0  0  0  0  0  0  0  0  0
  -82.7378   33.0510    1.0288 H   0  0  0  0  0  0  0  0  0  0  0  0
  -90.0631   31.6772   -0.1109 C   0  0  0  0  0  0  0  0  0  0  0  0
  -90.6093   30.3630    0.1576 N   0  0  0  0  0  0  0  0  0  0  0  0
  -91.4720   30.4887    0.6947 H   0  0  0  0  0  0  0  0  0  0  0  0
  -90.3863   27.9127    0.1718 O   0  0  0  0  0  0  0  0  0  0  0  0
  -91.3131   26.9190    0.3177 C   0  0  0  0  0  0  0  0  0  0  0  0
 33 34  1  0  0  0
 34  1  1  0  0  0
  1  2  1  0  0  0
  2  3  1  0  0  0
  3  4  1  0  0  0
  4  5  1  0  0  0
  5  6  1  0  0  0
  5  7  1  0  0  0
  7 36  1  0  0  0
 36 37  1  0  0  0
  5  8  1  0  0  0
  8  9  1  0  0  0
  9 10  2  0  0  0
 10 11  1  0  0  0
 11 12  2  0  0  0
 12 13  1  0  0  0
 13 14  2  0  0  0
 14 15  1  0  0  0
 15 16  2  0  0  0
 16 17  1  0  0  0
 17 18  1  0  0  0
 18 19  1  0  0  0
 19 20  2  0  0  0
 19 21  1  0  0  0
 21 22  2  0  0  0
 22 23  1  0  0  0
 23 24  2  0  0  0
 24 25  1  0  0  0
 25 26  2  0  0  0
 26 27  1  0  0  0
 27 28  2  0  0  0
 28 29  1  0  0  0
 29 30  1  0  0  0
 30 31  2  0  0  0
  7  1  1  0  0  0
 31  8  1  0  0  0
 29  3  1  0  0  0
 14  9  1  0  0  0
 31 15  1  0  0  0
 21 16  1  0  0  0
 30 22  1  0  0  0
 28 23  1  0  0  0
 34 35  1  0  0  0
 18 32  1  0  0  0
M  END
> <minimizedAffinity>
-8.67784

> <CNNscore>
0.2188499868

> <CNNaffinity>
6.3617639542

> <CNN_VS>
1.3922719955

> <CNNaffinity_variance>
0.4248330593

$$$$
[H]c1c([H])c([H])c2c(c1[H])c1c3c(c4c5c([H])c([H])c([H])c([H])c5n5c4c1n2[C@@]1([H])O[C@]5(C([H])([H])[H])[C@@]([H])(OC([H])([H])[H])[C@@]([H])(N([H])C([H])([H])[H])C1([H])[H])C([H])([H])N([H])C3=O


 37 44  0  0  0  0  0  0  0  0999 V2000
  -93.4637   23.4724   -3.7476 C   0  0  0  0  0  0  0  0  0  0  0  0
  -94.1053   22.4597   -2.8920 C   0  0  0  0  0  0  0  0  0  0  0  0
  -94.7809   22.9929   -1.6712 C   0  0  0  0  0  0  0  0  0  0  0  0
  -94.9980   24.2758   -1.5617 O   0  0  0  0  0  0  0  0  0  0  0  0
  -94.1798   25.2521   -2.0817 C   0  0  0  0  0  0  0  0  0  0  0  0
  -95.1410   26.4588   -2.0921 C   0  0  0  0  0  0  0  0  0  0  0  0
  -93.8340   24.9100   -3.4593 C   0  0  0  0  0  0  0  0  0  0  0  0
  -93.0833   25.4749   -1.1541 N   0  0  0  0  0  0  0  0  0  0  0  0
  -92.3459   26.5768   -0.9839 C   0  0  0  0  0  0  0  0  0  0  0  0
  -92.3482   27.7858   -1.6129 C   0  0  0  0  0  0  0  0  0  0  0  0
  -91.4558   28.7770   -1.2327 C   0  0  0  0  0  0  0  0  0  0  0  0
  -90.5393   28.6031   -0.2245 C   0  0  0  0  0  0  0  0  0  0  0  0
  -90.5256   27.3691    0.4283 C   0  0  0  0  0  0  0  0  0  0  0  0
  -91.4224   26.4054    0.0296 C   0  0  0  0  0  0  0  0  0  0  0  0
  -91.6059   25.1199    0.5071 C   0  0  0  0  0  0  0  0  0  0  0  0
  -90.9964   24.3800    1.5108 C   0  0  0  0  0  0  0  0  0  0  0  0
  -89.8801   24.7733    2.4233 C   0  0  0  0  0  0  0  0  0  0  0  0
  -89.6614   23.6388    3.2740 N   0  0  0  0  0  0  0  0  0  0  0  0
  -90.5556   22.5901    2.9109 C   0  0  0  0  0  0  0  0  0  0  0  0
  -90.5462   21.5032    3.4941 O   0  0  0  0  0  0  0  0  0  0  0  0
  -91.3678   23.0866    1.8150 C   0  0  0  0  0  0  0  0  0  0  0  0
  -92.3910   22.5561    1.0573 C   0  0  0  0  0  0  0  0  0  0  0  0
  -93.0249   21.3319    1.0397 C   0  0  0  0  0  0  0  0  0  0  0  0
  -92.8935   20.1849    1.7697 C   0  0  0  0  0  0  0  0  0  0  0  0
  -93.7255   19.1049    1.4767 C   0  0  0  0  0  0  0  0  0  0  0  0
  -94.6763   19.1455    0.4803 C   0  0  0  0  0  0  0  0  0  0  0  0
  -94.8071   20.3048   -0.2558 C   0  0  0  0  0  0  0  0  0  0  0  0
  -93.9970   21.3572    0.0290 C   0  0  0  0  0  0  0  0  0  0  0  0
  -93.9422   22.5639   -0.5381 N   0  0  0  0  0  0  0  0  0  0  0  0
  -92.9963   23.2960    0.0570 C   0  0  0  0  0  0  0  0  0  0  0  0
  -92.6044   24.5912   -0.2226 C   0  0  0  0  0  0  0  0  0  0  0  0
  -88.9385   23.6024    4.0515 H   0  0  0  0  0  0  0  0  0  0  0  0
  -91.6892   22.0268   -3.2678 C   0  0  0  0  0  0  0  0  0  0  0  0
  -91.9989   23.3646   -3.7280 N   0  0  0  0  0  0  0  0  0  0  0  0
  -91.5769   23.4804   -4.6538 H   0  0  0  0  0  0  0  0  0  0  0  0
  -92.8419   25.6483   -4.0856 O   0  0  0  0  0  0  0  0  0  0  0  0
  -91.6800   25.7969   -3.3815 C   0  0  0  0  0  0  0  0  0  0  0  0
 33 34  1  0  0  0
 34  1  1  0  0  0
  1  2  1  0  0  0
  2  3  1  0  0  0
  3  4  1  0  0  0
  4  5  1  0  0  0
  5  6  1  0  0  0
  5  7  1  0  0  0
  7 36  1  0  0  0
 36 37  1  0  0  0
  5  8  1  0  0  0
  8  9  1  0  0  0
  9 10  2  0  0  0
 10 11  1  0  0  0
 11 12  2  0  0  0
 12 13  1  0  0  0
 13 14  2  0  0  0
 14 15  1  0  0  0
 15 16  2  0  0  0
 16 17  1  0  0  0
 17 18  1  0  0  0
 18 19  1  0  0  0
 19 20  2  0  0  0
 19 21  1  0  0  0
 21 22  2  0  0  0
 22 23  1  0  0  0
 23 24  2  0  0  0
 24 25  1  0  0  0
 25 26  2  0  0  0
 26 27  1  0  0  0
 27 28  2  0  0  0
 28 29  1  0  0  0
 29 30  1  0  0  0
 30 31  2  0  0  0
  7  1  1  0  0  0
 31  8  1  0  0  0
 29  3  1  0  0  0
 14  9  1  0  0  0
 31 15  1  0  0  0
 21 16  1  0  0  0
 30 22  1  0  0  0
 28 23  1  0  0  0
 34 35  1  0  0  0
 18 32  1  0  0  0
M  END
> <minimizedAffinity>
-3.28389

> <CNNscore>
0.2124501616

> <CNNaffinity>
5.4091215134

> <CNN_VS>
1.1491687298

> <CNNaffinity_variance>
0.1761521995

$$$$
[H]c1c([H])c([H])c2c(c1[H])c1c3c(c4c5c([H])c([H])c([H])c([H])c5n5c4c1n2[C@@]1([H])O[C@]5(C([H])([H])[H])[C@@]([H])(OC([H])([H])[H])[C@@]([H])(N([H])C([H])([H])[H])C1([H])[H])C([H])([H])N([H])C3=O


 37 44  0  0  0  0  0  0  0  0999 V2000
  -89.4137   27.1419   -2.0216 C   0  0  0  0  0  0  0  0  0  0  0  0
  -88.6711   27.2675   -0.7558 C   0  0  0  0  0  0  0  0  0  0  0  0
  -89.1448   28.3519    0.1554 C   0  0  0  0  0  0  0  0  0  0  0  0
  -90.2951   28.9277   -0.0693 O   0  0  0  0  0  0  0  0  0  0  0  0
  -90.8370   29.1256   -1.3183 C   0  0  0  0  0  0  0  0  0  0  0  0
  -92.3192   29.3548   -0.9569 C   0  0  0  0  0  0  0  0  0  0  0  0
  -90.7239   27.8934   -2.0953 C   0  0  0  0  0  0  0  0  0  0  0  0
  -90.2534   30.3290   -1.8871 N   0  0  0  0  0  0  0  0  0  0  0  0
  -90.7683   31.1510   -2.8070 C   0  0  0  0  0  0  0  0  0  0  0  0
  -91.9348   31.1209   -3.5110 C   0  0  0  0  0  0  0  0  0  0  0  0
  -92.2289   32.1208   -4.4260 C   0  0  0  0  0  0  0  0  0  0  0  0
  -91.3826   33.1746   -4.6709 C   0  0  0  0  0  0  0  0  0  0  0  0
  -90.1837   33.2178   -3.9568 C   0  0  0  0  0  0  0  0  0  0  0  0
  -89.9193   32.2125   -3.0561 C   0  0  0  0  0  0  0  0  0  0  0  0
  -88.8180   32.0271   -2.2396 C   0  0  0  0  0  0  0  0  0  0  0  0
  -87.6513   32.7504   -2.0341 C   0  0  0  0  0  0  0  0  0  0  0  0
  -87.2040   34.0187   -2.6860 C   0  0  0  0  0  0  0  0  0  0  0  0
  -85.9383   34.3325   -2.0878 N   0  0  0  0  0  0  0  0  0  0  0  0
  -85.5927   33.3226   -1.1434 C   0  0  0  0  0  0  0  0  0  0  0  0
  -84.5361   33.3669   -0.5086 O   0  0  0  0  0  0  0  0  0  0  0  0
  -86.6788   32.3594   -1.1371 C   0  0  0  0  0  0  0  0  0  0  0  0
  -86.9274   31.1927   -0.4448 C   0  0  0  0  0  0  0  0  0  0  0  0
  -86.2216   30.4795    0.5009 C   0  0  0  0  0  0  0  0  0  0  0  0
  -85.0182   30.6595    1.1217 C   0  0  0  0  0  0  0  0  0  0  0  0
  -84.5987   29.7142    2.0571 C   0  0  0  0  0  0  0  0  0  0  0  0
  -85.3476   28.6044    2.3824 C   0  0  0  0  0  0  0  0  0  0  0  0
  -86.5624   28.4246    1.7540 C   0  0  0  0  0  0  0  0  0  0  0  0
  -86.9718   29.3449    0.8428 C   0  0  0  0  0  0  0  0  0  0  0  0
  -88.0929   29.3832    0.1200 N   0  0  0  0  0  0  0  0  0  0  0  0
  -88.0910   30.4735   -0.6521 C   0  0  0  0  0  0  0  0  0  0  0  0
  -89.0488   30.8923   -1.5556 C   0  0  0  0  0  0  0  0  0  0  0  0
  -85.3592   35.1912   -2.3244 H   0  0  0  0  0  0  0  0  0  0  0  0
  -87.2783   27.8380   -2.6731 C   0  0  0  0  0  0  0  0  0  0  0  0
  -88.5988   27.5286   -3.1810 N   0  0  0  0  0  0  0  0  0  0  0  0
  -88.4990   26.7763   -3.8686 H   0  0  0  0  0  0  0  0  0  0  0  0
  -91.0081   27.9485   -3.4509 O   0  0  0  0  0  0  0  0  0  0  0  0
  -92.0729   27.1979   -3.8641 C   0  0  0  0  0  0  0  0  0  0  0  0
 33 34  1  0  0  0
 34  1  1  0  0  0
  1  2  1  0  0  0
  2  3  1  0  0  0
  3  4  1  0  0  0
  4  5  1  0  0  0
  5  6  1  0  0  0
  5  7  1  0  0  0
  7 36  1  0  0  0
 36 37  1  0  0  0
  5  8  1  0  0  0
  8  9  1  0  0  0
  9 10  2  0  0  0
 10 11  1  0  0  0
 11 12  2  0  0  0
 12 13  1  0  0  0
 13 14  2  0  0  0
 14 15  1  0  0  0
 15 16  2  0  0  0
 16 17  1  0  0  0
 17 18  1  0  0  0
 18 19  1  0  0  0
 19 20  2  0  0  0
 19 21  1  0  0  0
 21 22  2  0  0  0
 22 23  1  0  0  0
 23 24  2  0  0  0
 24 25  1  0  0  0
 25 26  2  0  0  0
 26 27  1  0  0  0
 27 28  2  0  0  0
 28 29  1  0  0  0
 29 30  1  0  0  0
 30 31  2  0  0  0
  7  1  1  0  0  0
 31  8  1  0  0  0
 29  3  1  0  0  0
 14  9  1  0  0  0
 31 15  1  0  0  0
 21 16  1  0  0  0
 30 22  1  0  0  0
 28 23  1  0  0  0
 34 35  1  0  0  0
 18 32  1  0  0  0
M  END
> <minimizedAffinity>
-9.68581

> <CNNscore>
0.1722070724

> <CNNaffinity>
6.3327403069

> <CNN_VS>
1.0905426741

> <CNNaffinity_variance>
0.1618671715

$$$$
[H]c1c([H])c([H])c2c(c1[H])c1c3c(c4c5c([H])c([H])c([H])c([H])c5n5c4c1n2[C@@]1([H])O[C@]5(C([H])([H])[H])[C@@]([H])(OC([H])([H])[H])[C@@]([H])(N([H])C([H])([H])[H])C1([H])[H])C([H])([H])N([H])C3=O


 37 44  0  0  0  0  0  0  0  0999 V2000
  -90.3219   23.8877   -0.4850 C   0  0  0  0  0  0  0  0  0  0  0  0
  -90.1460   25.2516    0.0427 C   0  0  0  0  0  0  0  0  0  0  0  0
  -91.4031   26.0444    0.1901 C   0  0  0  0  0  0  0  0  0  0  0  0
  -92.5592   25.4425    0.1104 O   0  0  0  0  0  0  0  0  0  0  0  0
  -92.8137   24.3445   -0.6787 C   0  0  0  0  0  0  0  0  0  0  0  0
  -94.0959   23.8022   -0.0138 C   0  0  0  0  0  0  0  0  0  0  0  0
  -91.7415   23.3670   -0.5074 C   0  0  0  0  0  0  0  0  0  0  0  0
  -93.0886   24.8035   -2.0300 N   0  0  0  0  0  0  0  0  0  0  0  0
  -93.8129   24.2068   -2.9821 C   0  0  0  0  0  0  0  0  0  0  0  0
  -94.4722   23.0147   -3.0185 C   0  0  0  0  0  0  0  0  0  0  0  0
  -95.1603   22.6272   -4.1587 C   0  0  0  0  0  0  0  0  0  0  0  0
  -95.2166   23.4030   -5.2908 C   0  0  0  0  0  0  0  0  0  0  0  0
  -94.5452   24.6269   -5.2675 C   0  0  0  0  0  0  0  0  0  0  0  0
  -93.8714   24.9844   -4.1229 C   0  0  0  0  0  0  0  0  0  0  0  0
  -93.1373   26.1253   -3.8517 C   0  0  0  0  0  0  0  0  0  0  0  0
  -92.8388   27.2639   -4.5873 C   0  0  0  0  0  0  0  0  0  0  0  0
  -93.2366   27.6113   -5.9853 C   0  0  0  0  0  0  0  0  0  0  0  0
  -92.6752   28.9082   -6.2335 N   0  0  0  0  0  0  0  0  0  0  0  0
  -91.9501   29.3423   -5.0859 C   0  0  0  0  0  0  0  0  0  0  0  0
  -91.3637   30.4273   -5.0654 O   0  0  0  0  0  0  0  0  0  0  0  0
  -92.0747   28.2974   -4.0860 C   0  0  0  0  0  0  0  0  0  0  0  0
  -91.6126   28.1386   -2.7961 C   0  0  0  0  0  0  0  0  0  0  0  0
  -90.8315   28.9122   -1.9640 C   0  0  0  0  0  0  0  0  0  0  0  0
  -90.2292   30.1316   -2.0911 C   0  0  0  0  0  0  0  0  0  0  0  0
  -89.4931   30.6306   -1.0171 C   0  0  0  0  0  0  0  0  0  0  0  0
  -89.3471   29.9449    0.1690 C   0  0  0  0  0  0  0  0  0  0  0  0
  -89.9560   28.7135    0.2950 C   0  0  0  0  0  0  0  0  0  0  0  0
  -90.6733   28.2267   -0.7507 C   0  0  0  0  0  0  0  0  0  0  0  0
  -91.3424   27.0773   -0.8591 N   0  0  0  0  0  0  0  0  0  0  0  0
  -91.9113   27.0023   -2.0655 C   0  0  0  0  0  0  0  0  0  0  0  0
  -92.6823   25.9846   -2.5939 C   0  0  0  0  0  0  0  0  0  0  0  0
  -92.7917   29.4489   -7.1404 H   0  0  0  0  0  0  0  0  0  0  0  0
  -89.0153   24.9527   -2.1060 C   0  0  0  0  0  0  0  0  0  0  0  0
  -89.7592   23.7403   -1.8338 N   0  0  0  0  0  0  0  0  0  0  0  0
  -89.1095   22.9527   -1.9123 H   0  0  0  0  0  0  0  0  0  0  0  0
  -91.6946   22.2905   -1.3794 O   0  0  0  0  0  0  0  0  0  0  0  0
  -92.2637   21.1342   -0.9246 C   0  0  0  0  0  0  0  0  0  0  0  0
 33 34  1  0  0  0
 34  1  1  0  0  0
  1  2  1  0  0  0
  2  3  1  0  0  0
  3  4  1  0  0  0
  4  5  1  0  0  0
  5  6  1  0  0  0
  5  7  1  0  0  0
  7 36  1  0  0  0
 36 37  1  0  0  0
  5  8  1  0  0  0
  8  9  1  0  0  0
  9 10  2  0  0  0
 10 11  1  0  0  0
 11 12  2  0  0  0
 12 13  1  0  0  0
 13 14  2  0  0  0
 14 15  1  0  0  0
 15 16  2  0  0  0
 16 17  1  0  0  0
 17 18  1  0  0  0
 18 19  1  0  0  0
 19 20  2  0  0  0
 19 21  1  0  0  0
 21 22  2  0  0  0
 22 23  1  0  0  0
 23 24  2  0  0  0
 24 25  1  0  0  0
 25 26  2  0  0  0
 26 27  1  0  0  0
 27 28  2  0  0  0
 28 29  1  0  0  0
 29 30  1  0  0  0
 30 31  2  0  0  0
  7  1  1  0  0  0
 31  8  1  0  0  0
 29  3  1  0  0  0
 14  9  1  0  0  0
 31 15  1  0  0  0
 21 16  1  0  0  0
 30 22  1  0  0  0
 28 23  1  0  0  0
 34 35  1  0  0  0
 18 32  1  0  0  0
M  END
> <minimizedAffinity>
-6.12538

> <CNNscore>
0.0811601579

> <CNNaffinity>
5.5181584358

> <CNN_VS>
0.4478546083

> <CNNaffinity_variance>
0.0680447817

$$$$
[H]c1c([H])c([H])c2c(c1[H])c1c3c(c4c5c([H])c([H])c([H])c([H])c5n5c4c1n2[C@@]1([H])O[C@]5(C([H])([H])[H])[C@@]([H])(OC([H])([H])[H])[C@@]([H])(N([H])C([H])([H])[H])C1([H])[H])C([H])([H])N([H])C3=O


 37 44  0  0  0  0  0  0  0  0999 V2000
  -87.4908   26.2538   -0.1466 C   0  0  0  0  0  0  0  0  0  0  0  0
  -86.8517   27.4528    0.4220 C   0  0  0  0  0  0  0  0  0  0  0  0
  -87.7633   28.3620    1.1791 C   0  0  0  0  0  0  0  0  0  0  0  0
  -88.9540   27.9466    1.5181 O   0  0  0  0  0  0  0  0  0  0  0  0
  -89.7123   27.0673    0.7800 C   0  0  0  0  0  0  0  0  0  0  0  0
  -90.7131   26.5815    1.8489 C   0  0  0  0  0  0  0  0  0  0  0  0
  -88.8793   25.9412    0.3643 C   0  0  0  0  0  0  0  0  0  0  0  0
  -90.3951   27.8132   -0.2639 N   0  0  0  0  0  0  0  0  0  0  0  0
  -91.5380   27.5154   -0.8901 C   0  0  0  0  0  0  0  0  0  0  0  0
  -92.3846   26.4518   -0.7930 C   0  0  0  0  0  0  0  0  0  0  0  0
  -93.5264   26.3892   -1.5778 C   0  0  0  0  0  0  0  0  0  0  0  0
  -93.8633   27.3711   -2.4772 C   0  0  0  0  0  0  0  0  0  0  0  0
  -93.0045   28.4665   -2.5873 C   0  0  0  0  0  0  0  0  0  0  0  0
  -91.8799   28.5012   -1.7961 C   0  0  0  0  0  0  0  0  0  0  0  0
  -90.8847   29.4591   -1.7197 C   0  0  0  0  0  0  0  0  0  0  0  0
  -90.6748   30.6692   -2.3665 C   0  0  0  0  0  0  0  0  0  0  0  0
  -91.5087   31.3322   -3.4146 C   0  0  0  0  0  0  0  0  0  0  0  0
  -90.8403   32.5660   -3.7137 N   0  0  0  0  0  0  0  0  0  0  0  0
  -89.6529   32.6677   -2.9321 C   0  0  0  0  0  0  0  0  0  0  0  0
  -88.8996   33.6399   -3.0261 O   0  0  0  0  0  0  0  0  0  0  0  0
  -89.5844   31.4740   -2.1089 C   0  0  0  0  0  0  0  0  0  0  0  0
  -88.6971   31.0068   -1.1618 C   0  0  0  0  0  0  0  0  0  0  0  0
  -87.5144   31.4924   -0.6456 C   0  0  0  0  0  0  0  0  0  0  0  0
  -86.7775   32.6219   -0.8625 C   0  0  0  0  0  0  0  0  0  0  0  0
  -85.5959   32.7995   -0.1437 C   0  0  0  0  0  0  0  0  0  0  0  0
  -85.1392   31.8826    0.7777 C   0  0  0  0  0  0  0  0  0  0  0  0
  -85.8849   30.7425    0.9950 C   0  0  0  0  0  0  0  0  0  0  0  0
  -87.0360   30.5688    0.2951 C   0  0  0  0  0  0  0  0  0  0  0  0
  -87.9109   29.5621    0.3369 N   0  0  0  0  0  0  0  0  0  0  0  0
  -88.9086   29.8000   -0.5191 C   0  0  0  0  0  0  0  0  0  0  0  0
  -90.0127   29.0167   -0.7963 C   0  0  0  0  0  0  0  0  0  0  0  0
  -91.1905   33.2837   -4.4143 H   0  0  0  0  0  0  0  0  0  0  0  0
  -86.8935   27.5301   -2.0130 C   0  0  0  0  0  0  0  0  0  0  0  0
  -87.5425   26.2984   -1.6139 N   0  0  0  0  0  0  0  0  0  0  0  0
  -87.0386   25.5242   -2.0557 H   0  0  0  0  0  0  0  0  0  0  0  0
  -89.3951   25.0588   -0.5721 O   0  0  0  0  0  0  0  0  0  0  0  0
  -89.6718   23.8018   -0.1124 C   0  0  0  0  0  0  0  0  0  0  0  0
 33 34  1  0  0  0
 34  1  1  0  0  0
  1  2  1  0  0  0
  2  3  1  0  0  0
  3  4  1  0  0  0
  4  5  1  0  0  0
  5  6  1  0  0  0
  5  7  1  0  0  0
  7 36  1  0  0  0
 36 37  1  0  0  0
  5  8  1  0  0  0
  8  9  1  0  0  0
  9 10  2  0  0  0
 10 11  1  0  0  0
 11 12  2  0  0  0
 12 13  1  0  0  0
 13 14  2  0  0  0
 14 15  1  0  0  0
 15 16  2  0  0  0
 16 17  1  0  0  0
 17 18  1  0  0  0
 18 19  1  0  0  0
 19 20  2  0  0  0
 19 21  1  0  0  0
 21 22  2  0  0  0
 22 23  1  0  0  0
 23 24  2  0  0  0
 24 25  1  0  0  0
 25 26  2  0  0  0
 26 27  1  0  0  0
 27 28  2  0  0  0
 28 29  1  0  0  0
 29 30  1  0  0  0
 30 31  2  0  0  0
  7  1  1  0  0  0
 31  8  1  0  0  0
 29  3  1  0  0  0
 14  9  1  0  0  0
 31 15  1  0  0  0
 21 16  1  0  0  0
 30 22  1  0  0  0
 28 23  1  0  0  0
 34 35  1  0  0  0
 18 32  1  0  0  0
M  END
> <minimizedAffinity>
-8.96314

> <CNNscore>
0.0788697377

> <CNNaffinity>
5.9812517166

> <CNN_VS>
0.4717397392

> <CNNaffinity_variance>
0.3570260406

$$$$
[H]c1c([H])c([H])c2c(c1[H])c1c3c(c4c5c([H])c([H])c([H])c([H])c5n5c4c1n2[C@@]1([H])O[C@]5(C([H])([H])[H])[C@@]([H])(OC([H])([H])[H])[C@@]([H])(N([H])C([H])([H])[H])C1([H])[H])C([H])([H])N([H])C3=O


 37 44  0  0  0  0  0  0  0  0999 V2000
  -89.2286   33.0555   -1.9979 C   0  0  0  0  0  0  0  0  0  0  0  0
  -87.7899   33.1379   -1.6935 C   0  0  0  0  0  0  0  0  0  0  0  0
  -86.9353   32.1204   -2.3756 C   0  0  0  0  0  0  0  0  0  0  0  0
  -87.4277   31.4199   -3.3616 O   0  0  0  0  0  0  0  0  0  0  0  0
  -88.7454   31.0377   -3.4644 C   0  0  0  0  0  0  0  0  0  0  0  0
  -88.8352   30.7136   -4.9700 C   0  0  0  0  0  0  0  0  0  0  0  0
  -89.6051   32.1828   -3.1742 C   0  0  0  0  0  0  0  0  0  0  0  0
  -88.9397   29.8384   -2.6667 N   0  0  0  0  0  0  0  0  0  0  0  0
  -89.8562   28.8768   -2.8163 C   0  0  0  0  0  0  0  0  0  0  0  0
  -90.8852   28.7222   -3.6963 C   0  0  0  0  0  0  0  0  0  0  0  0
  -91.7051   27.6056   -3.6291 C   0  0  0  0  0  0  0  0  0  0  0  0
  -91.5328   26.6139   -2.6945 C   0  0  0  0  0  0  0  0  0  0  0  0
  -90.4824   26.7597   -1.7862 C   0  0  0  0  0  0  0  0  0  0  0  0
  -89.6861   27.8774   -1.8773 C   0  0  0  0  0  0  0  0  0  0  0  0
  -88.6000   28.2516   -1.1063 C   0  0  0  0  0  0  0  0  0  0  0  0
  -87.9481   27.6658   -0.0300 C   0  0  0  0  0  0  0  0  0  0  0  0
  -88.2543   26.3806    0.6687 C   0  0  0  0  0  0  0  0  0  0  0  0
  -87.2564   26.2521    1.6915 N   0  0  0  0  0  0  0  0  0  0  0  0
  -86.3943   27.3866    1.6630 C   0  0  0  0  0  0  0  0  0  0  0  0
  -85.4627   27.5095    2.4620 O   0  0  0  0  0  0  0  0  0  0  0  0
  -86.8537   28.2404    0.5826 C   0  0  0  0  0  0  0  0  0  0  0  0
  -86.4342   29.4479    0.0643 C   0  0  0  0  0  0  0  0  0  0  0  0
  -85.4195   30.3220    0.3919 C   0  0  0  0  0  0  0  0  0  0  0  0
  -84.4375   30.3227    1.3414 C   0  0  0  0  0  0  0  0  0  0  0  0
  -83.5523   31.3991    1.3892 C   0  0  0  0  0  0  0  0  0  0  0  0
  -83.6261   32.4640    0.5180 C   0  0  0  0  0  0  0  0  0  0  0  0
  -84.6188   32.4613   -0.4399 C   0  0  0  0  0  0  0  0  0  0  0  0
  -85.4815   31.4131   -0.4871 C   0  0  0  0  0  0  0  0  0  0  0  0
  -86.5049   31.1929   -1.3146 N   0  0  0  0  0  0  0  0  0  0  0  0
  -87.0863   30.0297   -1.0083 C   0  0  0  0  0  0  0  0  0  0  0  0
  -88.1786   29.4282   -1.6034 C   0  0  0  0  0  0  0  0  0  0  0  0
  -87.1851   25.4298    2.3603 H   0  0  0  0  0  0  0  0  0  0  0  0
  -89.0821   32.4686    0.2611 C   0  0  0  0  0  0  0  0  0  0  0  0
  -90.0153   32.6214   -0.8359 N   0  0  0  0  0  0  0  0  0  0  0  0
  -90.7201   33.3075   -0.5511 H   0  0  0  0  0  0  0  0  0  0  0  0
  -90.9620   31.9541   -3.0067 O   0  0  0  0  0  0  0  0  0  0  0  0
  -91.7584   32.3182   -4.0561 C   0  0  0  0  0  0  0  0  0  0  0  0
 33 34  1  0  0  0
 34  1  1  0  0  0
  1  2  1  0  0  0
  2  3  1  0  0  0
  3  4  1  0  0  0
  4  5  1  0  0  0
  5  6  1  0  0  0
  5  7  1  0  0  0
  7 36  1  0  0  0
 36 37  1  0  0  0
  5  8  1  0  0  0
  8  9  1  0  0  0
  9 10  2  0  0  0
 10 11  1  0  0  0
 11 12  2  0  0  0
 12 13  1  0  0  0
 13 14  2  0  0  0
 14 15  1  0  0  0
 15 16  2  0  0  0
 16 17  1  0  0  0
 17 18  1  0  0  0
 18 19  1  0  0  0
 19 20  2  0  0  0
 19 21  1  0  0  0
 21 22  2  0  0  0
 22 23  1  0  0  0
 23 24  2  0  0  0
 24 25  1  0  0  0
 25 26  2  0  0  0
 26 27  1  0  0  0
 27 28  2  0  0  0
 28 29  1  0  0  0
 29 30  1  0  0  0
 30 31  2  0  0  0
  7  1  1  0  0  0
 31  8  1  0  0  0
 29  3  1  0  0  0
 14  9  1  0  0  0
 31 15  1  0  0  0
 21 16  1  0  0  0
 30 22  1  0  0  0
 28 23  1  0  0  0
 34 35  1  0  0  0
 18 32  1  0  0  0
M  END
> <minimizedAffinity>
-7.71797

> <CNNscore>
0.0640811324

> <CNNaffinity>
5.8786001205

> <CNN_VS>
0.3767073452

> <CNNaffinity_variance>
0.6747230291

$$$$
[H]c1nc2c([H])c(OC([H])([H])C([H])([H])C([H])([H])N3C([H])([H])C([H])([H])C([H])([H])C([H])([H])C3([H])[H])c(OC([H])([H])[H])c([H])c2c(Oc2c([H])c([H])c(N([H])C(=O)C3(C(=O)N([H])c4c([H])c([H])c(F)c([H])c4[H])C([H])([H])C3([H])[H])c([H])c2F)c1[H]


 48 53  0  0  0  0  0  0  0  0999 V2000
  -86.3368   28.8520    0.8048 C   0  0  0  0  0  0  0  0  0  0  0  0
  -86.6000   28.4203   -0.4745 C   0  0  0  0  0  0  0  0  0  0  0  0
  -87.3004   27.2461   -0.7585 C   0  0  0  0  0  0  0  0  0  0  0  0
  -87.7753   26.4416    0.2570 C   0  0  0  0  0  0  0  0  0  0  0  0
  -87.5210   26.8580    1.5373 C   0  0  0  0  0  0  0  0  0  0  0  0
  -86.8344   28.0081    1.8281 C   0  0  0  0  0  0  0  0  0  0  0  0
  -86.6114   28.3594    3.1134 F   0  0  0  0  0  0  0  0  0  0  0  0
  -88.5366   25.2790   -0.0561 N   0  0  0  0  0  0  0  0  0  0  0  0
  -89.9181   25.1501   -0.0039 C   0  0  0  0  0  0  0  0  0  0  0  0
  -90.6448   26.0966    0.3886 O   0  0  0  0  0  0  0  0  0  0  0  0
  -87.9490   24.4160   -0.3119 H   0  0  0  0  0  0  0  0  0  0  0  0
  -90.6020   23.9035   -0.3882 C   0  0  0  0  0  0  0  0  0  0  0  0
  -89.9704   22.6125    0.0358 C   0  0  0  0  0  0  0  0  0  0  0  0
  -91.1814   23.0569    0.7200 C   0  0  0  0  0  0  0  0  0  0  0  0
  -91.2843   23.8703   -1.7022 C   0  0  0  0  0  0  0  0  0  0  0  0
  -90.9946   22.9007   -2.4629 O   0  0  0  0  0  0  0  0  0  0  0  0
  -92.2096   24.8505   -2.0845 N   0  0  0  0  0  0  0  0  0  0  0  0
  -92.4391   25.5672   -1.3089 H   0  0  0  0  0  0  0  0  0  0  0  0
  -92.8984   24.9600   -3.3027 C   0  0  0  0  0  0  0  0  0  0  0  0
  -93.8296   24.0915   -3.7649 C   0  0  0  0  0  0  0  0  0  0  0  0
  -94.4778   24.2608   -4.9825 C   0  0  0  0  0  0  0  0  0  0  0  0
  -94.1481   25.3600   -5.7368 C   0  0  0  0  0  0  0  0  0  0  0  0
  -94.7285   25.6194   -6.9560 F   0  0  0  0  0  0  0  0  0  0  0  0
  -93.2103   26.2549   -5.2944 C   0  0  0  0  0  0  0  0  0  0  0  0
  -92.5958   26.0554   -4.0942 C   0  0  0  0  0  0  0  0  0  0  0  0
  -85.6740   29.9566    1.1483 O   0  0  0  0  0  0  0  0  0  0  0  0
  -87.5182   32.7451   -1.0735 C   0  0  0  0  0  0  0  0  0  0  0  0
  -86.8637   31.7816   -0.2913 C   0  0  0  0  0  0  0  0  0  0  0  0
  -85.4958   31.8833   -0.1335 C   0  0  0  0  0  0  0  0  0  0  0  0
  -84.8672   30.8773    0.6502 C   0  0  0  0  0  0  0  0  0  0  0  0
  -83.5091   30.9997    0.7723 C   0  0  0  0  0  0  0  0  0  0  0  0
  -82.8386   32.0422    0.1581 C   0  0  0  0  0  0  0  0  0  0  0  0
  -83.4657   32.9693   -0.5724 N   0  0  0  0  0  0  0  0  0  0  0  0
  -84.7863   32.8977   -0.7232 C   0  0  0  0  0  0  0  0  0  0  0  0
  -85.4577   33.8481   -1.5003 C   0  0  0  0  0  0  0  0  0  0  0  0
  -86.8186   33.7859   -1.6843 C   0  0  0  0  0  0  0  0  0  0  0  0
  -89.6000   31.5944   -0.6997 C   0  0  0  0  0  0  0  0  0  0  0  0
  -88.8854   32.6793   -1.2559 O   0  0  0  0  0  0  0  0  0  0  0  0
  -87.5406   34.6603   -2.4159 O   0  0  0  0  0  0  0  0  0  0  0  0
  -87.7011   34.8415   -3.7681 C   0  0  0  0  0  0  0  0  0  0  0  0
  -87.5652   36.2491   -4.2856 C   0  0  0  0  0  0  0  0  0  0  0  0
  -87.2534   36.1576   -5.7675 C   0  0  0  0  0  0  0  0  0  0  0  0
  -86.6346   37.2961   -6.2989 N   0  0  0  0  0  0  0  0  0  0  0  0
  -85.6703   37.9664   -5.5298 C   0  0  0  0  0  0  0  0  0  0  0  0
  -85.0107   39.1178   -6.1916 C   0  0  0  0  0  0  0  0  0  0  0  0
  -85.1723   39.1850   -7.6741 C   0  0  0  0  0  0  0  0  0  0  0  0
  -86.4951   38.7074   -8.1855 C   0  0  0  0  0  0  0  0  0  0  0  0
  -87.4029   38.2038   -7.0812 C   0  0  0  0  0  0  0  0  0  0  0  0
 37 38  1  0  0  0
 38 27  1  0  0  0
 27 28  2  0  0  0
 28 29  1  0  0  0
 29 30  2  0  0  0
 30 26  1  0  0  0
 26  1  1  0  0  0
  1  2  2  0  0  0
  2  3  1  0  0  0
  3  4  2  0  0  0
  4  8  1  0  0  0
  8  9  1  0  0  0
  9 10  2  0  0  0
  9 12  1  0  0  0
 12 13  1  0  0  0
 13 14  1  0  0  0
 12 15  1  0  0  0
 15 16  2  0  0  0
 15 17  1  0  0  0
 17 19  1  0  0  0
 19 20  2  0  0  0
 20 21  1  0  0  0
 21 22  2  0  0  0
 22 23  1  0  0  0
 22 24  1  0  0  0
 24 25  2  0  0  0
  4  5  1  0  0  0
  5  6  2  0  0  0
  6  7  1  0  0  0
 30 31  1  0  0  0
 31 32  2  0  0  0
 32 33  1  0  0  0
 33 34  2  0  0  0
 34 35  1  0  0  0
 35 36  2  0  0  0
 36 39  1  0  0  0
 39 40  1  0  0  0
 40 41  1  0  0  0
 41 42  1  0  0  0
 42 43  1  0  0  0
 43 44  1  0  0  0
 44 45  1  0  0  0
 45 46  1  0  0  0
 46 47  1  0  0  0
 47 48  1  0  0  0
 36 27  1  0  0  0
 48 43  1  0  0  0
 34 29  1  0  0  0
  6  1  1  0  0  0
 14 12  1  0  0  0
 25 19  1  0  0  0
  8 11  1  0  0  0
 17 18  1  0  0  0
M  END
> <minimizedAffinity>
-9.04987

> <CNNscore>
0.4728241563

> <CNNaffinity>
7.3188004494

> <CNN_VS>
3.4605057240

> <CNNaffinity_variance>
0.1550202817

$$$$
[H]c1nc2c([H])c(OC([H])([H])C([H])([H])C([H])([H])N3C([H])([H])C([H])([H])C([H])([H])C([H])([H])C3([H])[H])c(OC([H])([H])[H])c([H])c2c(Oc2c([H])c([H])c(N([H])C(=O)C3(C(=O)N([H])c4c([H])c([H])c(F)c([H])c4[H])C([H])([H])C3([H])[H])c([H])c2F)c1[H]


 48 53  0  0  0  0  0  0  0  0999 V2000
  -86.5202   28.5879    1.2186 C   0  0  0  0  0  0  0  0  0  0  0  0
  -87.1760   27.7960    2.1325 C   0  0  0  0  0  0  0  0  0  0  0  0
  -87.8470   26.6213    1.7870 C   0  0  0  0  0  0  0  0  0  0  0  0
  -87.8851   26.1862    0.4781 C   0  0  0  0  0  0  0  0  0  0  0  0
  -87.2365   26.9642   -0.4445 C   0  0  0  0  0  0  0  0  0  0  0  0
  -86.5750   28.1193   -0.1172 C   0  0  0  0  0  0  0  0  0  0  0  0
  -85.9601   28.8449   -1.0766 F   0  0  0  0  0  0  0  0  0  0  0  0
  -88.5263   24.9552    0.1580 N   0  0  0  0  0  0  0  0  0  0  0  0
  -89.8212   24.7899   -0.3155 C   0  0  0  0  0  0  0  0  0  0  0  0
  -90.5880   25.7732   -0.4674 O   0  0  0  0  0  0  0  0  0  0  0  0
  -87.9362   24.0791    0.3576 H   0  0  0  0  0  0  0  0  0  0  0  0
  -90.3682   23.4638   -0.6494 C   0  0  0  0  0  0  0  0  0  0  0  0
  -91.7828   23.4060   -1.1403 C   0  0  0  0  0  0  0  0  0  0  0  0
  -90.7008   23.1920   -2.0972 C   0  0  0  0  0  0  0  0  0  0  0  0
  -89.9414   22.3146    0.1815 C   0  0  0  0  0  0  0  0  0  0  0  0
  -89.1473   21.4914   -0.3611 O   0  0  0  0  0  0  0  0  0  0  0  0
  -90.3810   22.1475    1.5013 N   0  0  0  0  0  0  0  0  0  0  0  0
  -90.9767   22.9680    1.8754 H   0  0  0  0  0  0  0  0  0  0  0  0
  -90.0860   21.0963    2.3837 C   0  0  0  0  0  0  0  0  0  0  0  0
  -90.4962   19.8124    2.2485 C   0  0  0  0  0  0  0  0  0  0  0  0
  -90.1654   18.8169    3.1600 C   0  0  0  0  0  0  0  0  0  0  0  0
  -89.3895   19.1667    4.2379 C   0  0  0  0  0  0  0  0  0  0  0  0
  -89.0079   18.2594    5.1979 F   0  0  0  0  0  0  0  0  0  0  0  0
  -88.9603   20.4573    4.3999 C   0  0  0  0  0  0  0  0  0  0  0  0
  -89.3050   21.4065    3.4845 C   0  0  0  0  0  0  0  0  0  0  0  0
  -85.8641   29.7195    1.4764 O   0  0  0  0  0  0  0  0  0  0  0  0
  -87.3270   32.6432   -0.8526 C   0  0  0  0  0  0  0  0  0  0  0  0
  -86.8046   31.6313   -0.0331 C   0  0  0  0  0  0  0  0  0  0  0  0
  -85.4368   31.5734    0.1470 C   0  0  0  0  0  0  0  0  0  0  0  0
  -84.9453   30.5225    0.9688 C   0  0  0  0  0  0  0  0  0  0  0  0
  -83.5843   30.4852    1.1125 C   0  0  0  0  0  0  0  0  0  0  0  0
  -82.7845   31.4221    0.4831 C   0  0  0  0  0  0  0  0  0  0  0  0
  -83.2849   32.3961   -0.2834 N   0  0  0  0  0  0  0  0  0  0  0  0
  -84.6021   32.4784   -0.4564 C   0  0  0  0  0  0  0  0  0  0  0  0
  -85.1430   33.4795   -1.2709 C   0  0  0  0  0  0  0  0  0  0  0  0
  -86.4985   33.5750   -1.4781 C   0  0  0  0  0  0  0  0  0  0  0  0
  -89.2901   31.9254   -2.0479 C   0  0  0  0  0  0  0  0  0  0  0  0
  -88.6893   32.7360   -1.0583 O   0  0  0  0  0  0  0  0  0  0  0  0
  -87.0994   34.5080   -2.2459 O   0  0  0  0  0  0  0  0  0  0  0  0
  -87.0513   34.7871   -3.5902 C   0  0  0  0  0  0  0  0  0  0  0  0
  -88.1681   35.6281   -4.1497 C   0  0  0  0  0  0  0  0  0  0  0  0
  -87.5619   36.5489   -5.1919 C   0  0  0  0  0  0  0  0  0  0  0  0
  -87.1787   37.8035   -4.7014 N   0  0  0  0  0  0  0  0  0  0  0  0
  -85.8673   38.2500   -4.9289 C   0  0  0  0  0  0  0  0  0  0  0  0
  -85.5629   39.6170   -4.4416 C   0  0  0  0  0  0  0  0  0  0  0  0
  -86.7499   40.4640   -4.1226 C   0  0  0  0  0  0  0  0  0  0  0  0
  -87.9140   39.7237   -3.5427 C   0  0  0  0  0  0  0  0  0  0  0  0
  -87.6648   38.2326   -3.4342 C   0  0  0  0  0  0  0  0  0  0  0  0
 37 38  1  0  0  0
 38 27  1  0  0  0
 27 28  2  0  0  0
 28 29  1  0  0  0
 29 30  2  0  0  0
 30 26  1  0  0  0
 26  1  1  0  0  0
  1  2  2  0  0  0
  2  3  1  0  0  0
  3  4  2  0  0  0
  4  8  1  0  0  0
  8  9  1  0  0  0
  9 10  2  0  0  0
  9 12  1  0  0  0
 12 13  1  0  0  0
 13 14  1  0  0  0
 12 15  1  0  0  0
 15 16  2  0  0  0
 15 17  1  0  0  0
 17 19  1  0  0  0
 19 20  2  0  0  0
 20 21  1  0  0  0
 21 22  2  0  0  0
 22 23  1  0  0  0
 22 24  1  0  0  0
 24 25  2  0  0  0
  4  5  1  0  0  0
  5  6  2  0  0  0
  6  7  1  0  0  0
 30 31  1  0  0  0
 31 32  2  0  0  0
 32 33  1  0  0  0
 33 34  2  0  0  0
 34 35  1  0  0  0
 35 36  2  0  0  0
 36 39  1  0  0  0
 39 40  1  0  0  0
 40 41  1  0  0  0
 41 42  1  0  0  0
 42 43  1  0  0  0
 43 44  1  0  0  0
 44 45  1  0  0  0
 45 46  1  0  0  0
 46 47  1  0  0  0
 47 48  1  0  0  0
 36 27  1  0  0  0
 48 43  1  0  0  0
 34 29  1  0  0  0
  6  1  1  0  0  0
 14 12  1  0  0  0
 25 19  1  0  0  0
  8 11  1  0  0  0
 17 18  1  0  0  0
M  END
> <minimizedAffinity>
-9.45144

> <CNNscore>
0.3171702921

> <CNNaffinity>
7.3174467087

> <CNN_VS>
2.3208765984

> <CNNaffinity_variance>
0.1172125116

$$$$
[H]c1nc2c([H])c(OC([H])([H])C([H])([H])C([H])([H])N3C([H])([H])C([H])([H])C([H])([H])C([H])([H])C3([H])[H])c(OC([H])([H])[H])c([H])c2c(Oc2c([H])c([H])c(N([H])C(=O)C3(C(=O)N([H])c4c([H])c([H])c(F)c([H])c4[H])C([H])([H])C3([H])[H])c([H])c2F)c1[H]


 48 53  0  0  0  0  0  0  0  0999 V2000
  -86.5208   28.5918    0.8844 C   0  0  0  0  0  0  0  0  0  0  0  0
  -86.6647   28.0825   -0.3854 C   0  0  0  0  0  0  0  0  0  0  0  0
  -87.3789   26.9161   -0.6671 C   0  0  0  0  0  0  0  0  0  0  0  0
  -87.9912   26.1997    0.3408 C   0  0  0  0  0  0  0  0  0  0  0  0
  -87.8569   26.6941    1.6115 C   0  0  0  0  0  0  0  0  0  0  0  0
  -87.1582   27.8375    1.9001 C   0  0  0  0  0  0  0  0  0  0  0  0
  -87.0582   28.2684    3.1766 F   0  0  0  0  0  0  0  0  0  0  0  0
  -88.7623   25.0450    0.0229 N   0  0  0  0  0  0  0  0  0  0  0  0
  -90.0715   25.0199   -0.4392 C   0  0  0  0  0  0  0  0  0  0  0  0
  -90.7310   26.0796   -0.5810 O   0  0  0  0  0  0  0  0  0  0  0  0
  -88.2667   24.1105    0.2143 H   0  0  0  0  0  0  0  0  0  0  0  0
  -90.7591   23.7607   -0.7720 C   0  0  0  0  0  0  0  0  0  0  0  0
  -90.1049   22.4837   -0.3397 C   0  0  0  0  0  0  0  0  0  0  0  0
  -91.2958   22.9363    0.3738 C   0  0  0  0  0  0  0  0  0  0  0  0
  -91.4840   23.6929   -2.0616 C   0  0  0  0  0  0  0  0  0  0  0  0
  -91.1790   22.7337   -2.8295 O   0  0  0  0  0  0  0  0  0  0  0  0
  -92.4633   24.6309   -2.4142 N   0  0  0  0  0  0  0  0  0  0  0  0
  -92.6968   25.3401   -1.6329 H   0  0  0  0  0  0  0  0  0  0  0  0
  -93.1977   24.7059   -3.6082 C   0  0  0  0  0  0  0  0  0  0  0  0
  -94.1263   23.8108   -4.0223 C   0  0  0  0  0  0  0  0  0  0  0  0
  -94.8213   23.9463   -5.2181 C   0  0  0  0  0  0  0  0  0  0  0  0
  -94.5423   25.0394   -6.0013 C   0  0  0  0  0  0  0  0  0  0  0  0
  -95.1714   25.2663   -7.2027 F   0  0  0  0  0  0  0  0  0  0  0  0
  -93.6083   25.9607   -5.6076 C   0  0  0  0  0  0  0  0  0  0  0  0
  -92.9469   25.7939   -4.4275 C   0  0  0  0  0  0  0  0  0  0  0  0
  -85.8532   29.6942    1.2255 O   0  0  0  0  0  0  0  0  0  0  0  0
  -87.3233   32.7015   -0.9897 C   0  0  0  0  0  0  0  0  0  0  0  0
  -86.7986   31.6603   -0.2093 C   0  0  0  0  0  0  0  0  0  0  0  0
  -85.4333   31.6142   -0.0091 C   0  0  0  0  0  0  0  0  0  0  0  0
  -84.9388   30.5334    0.7712 C   0  0  0  0  0  0  0  0  0  0  0  0
  -83.5800   30.5095    0.9361 C   0  0  0  0  0  0  0  0  0  0  0  0
  -82.7847   31.4864    0.3643 C   0  0  0  0  0  0  0  0  0  0  0  0
  -83.2876   32.4876   -0.3645 N   0  0  0  0  0  0  0  0  0  0  0  0
  -84.6030   32.5586   -0.5557 C   0  0  0  0  0  0  0  0  0  0  0  0
  -85.1460   33.5885   -1.3319 C   0  0  0  0  0  0  0  0  0  0  0  0
  -86.4993   33.6736   -1.5573 C   0  0  0  0  0  0  0  0  0  0  0  0
  -89.4065   31.6002   -1.4849 C   0  0  0  0  0  0  0  0  0  0  0  0
  -88.6834   32.7838   -1.2139 O   0  0  0  0  0  0  0  0  0  0  0  0
  -87.1021   34.6325   -2.2910 O   0  0  0  0  0  0  0  0  0  0  0  0
  -87.2434   34.8264   -3.6437 C   0  0  0  0  0  0  0  0  0  0  0  0
  -88.6128   34.5909   -4.2242 C   0  0  0  0  0  0  0  0  0  0  0  0
  -89.1507   35.9365   -4.6731 C   0  0  0  0  0  0  0  0  0  0  0  0
  -89.5043   35.9946   -6.0270 N   0  0  0  0  0  0  0  0  0  0  0  0
  -90.2748   34.9558   -6.5729 C   0  0  0  0  0  0  0  0  0  0  0  0
  -90.6678   35.1279   -7.9923 C   0  0  0  0  0  0  0  0  0  0  0  0
  -90.5249   36.5113   -8.5347 C   0  0  0  0  0  0  0  0  0  0  0  0
  -89.3563   37.2791   -8.0015 C   0  0  0  0  0  0  0  0  0  0  0  0
  -88.5652   36.5001   -6.9697 C   0  0  0  0  0  0  0  0  0  0  0  0
 37 38  1  0  0  0
 38 27  1  0  0  0
 27 28  2  0  0  0
 28 29  1  0  0  0
 29 30  2  0  0  0
 30 26  1  0  0  0
 26  1  1  0  0  0
  1  2  2  0  0  0
  2  3  1  0  0  0
  3  4  2  0  0  0
  4  8  1  0  0  0
  8  9  1  0  0  0
  9 10  2  0  0  0
  9 12  1  0  0  0
 12 13  1  0  0  0
 13 14  1  0  0  0
 12 15  1  0  0  0
 15 16  2  0  0  0
 15 17  1  0  0  0
 17 19  1  0  0  0
 19 20  2  0  0  0
 20 21  1  0  0  0
 21 22  2  0  0  0
 22 23  1  0  0  0
 22 24  1  0  0  0
 24 25  2  0  0  0
  4  5  1  0  0  0
  5  6  2  0  0  0
  6  7  1  0  0  0
 30 31  1  0  0  0
 31 32  2  0  0  0
 32 33  1  0  0  0
 33 34  2  0  0  0
 34 35  1  0  0  0
 35 36  2  0  0  0
 36 39  1  0  0  0
 39 40  1  0  0  0
 40 41  1  0  0  0
 41 42  1  0  0  0
 42 43  1  0  0  0
 43 44  1  0  0  0
 44 45  1  0  0  0
 45 46  1  0  0  0
 46 47  1  0  0  0
 47 48  1  0  0  0
 36 27  1  0  0  0
 48 43  1  0  0  0
 34 29  1  0  0  0
  6  1  1  0  0  0
 14 12  1  0  0  0
 25 19  1  0  0  0
  8 11  1  0  0  0
 17 18  1  0  0  0
M  END
> <minimizedAffinity>
-8.76611

> <CNNscore>
0.2845193744

> <CNNaffinity>
7.1022171974

> <CNN_VS>
2.0207183361

> <CNNaffinity_variance>
0.2831087708

$$$$
[H]c1nc2c([H])c(OC([H])([H])C([H])([H])C([H])([H])N3C([H])([H])C([H])([H])C([H])([H])C([H])([H])C3([H])[H])c(OC([H])([H])[H])c([H])c2c(Oc2c([H])c([H])c(N([H])C(=O)C3(C(=O)N([H])c4c([H])c([H])c(F)c([H])c4[H])C([H])([H])C3([H])[H])c([H])c2F)c1[H]


 48 53  0  0  0  0  0  0  0  0999 V2000
  -86.7311   28.6911    0.6483 C   0  0  0  0  0  0  0  0  0  0  0  0
  -87.0686   28.2126   -0.5965 C   0  0  0  0  0  0  0  0  0  0  0  0
  -87.6391   26.9554   -0.8057 C   0  0  0  0  0  0  0  0  0  0  0  0
  -87.8994   26.1106    0.2538 C   0  0  0  0  0  0  0  0  0  0  0  0
  -87.5687   26.5727    1.5005 C   0  0  0  0  0  0  0  0  0  0  0  0
  -87.0079   27.8044    1.7180 C   0  0  0  0  0  0  0  0  0  0  0  0
  -86.6993   28.1981    2.9729 F   0  0  0  0  0  0  0  0  0  0  0  0
  -88.5345   24.8568    0.0220 N   0  0  0  0  0  0  0  0  0  0  0  0
  -89.8703   24.5475    0.2413 C   0  0  0  0  0  0  0  0  0  0  0  0
  -90.6608   25.3918    0.7314 O   0  0  0  0  0  0  0  0  0  0  0  0
  -87.8749   24.0775   -0.3143 H   0  0  0  0  0  0  0  0  0  0  0  0
  -90.4271   23.2203   -0.0717 C   0  0  0  0  0  0  0  0  0  0  0  0
  -89.4554   22.1062   -0.3169 C   0  0  0  0  0  0  0  0  0  0  0  0
  -90.2059   22.1171    0.9357 C   0  0  0  0  0  0  0  0  0  0  0  0
  -91.6650   23.1676   -0.8828 C   0  0  0  0  0  0  0  0  0  0  0  0
  -91.6525   22.3871   -1.8795 O   0  0  0  0  0  0  0  0  0  0  0  0
  -92.7962   23.9302   -0.5634 N   0  0  0  0  0  0  0  0  0  0  0  0
  -92.7107   24.4799    0.3631 H   0  0  0  0  0  0  0  0  0  0  0  0
  -94.0135   24.0030   -1.2586 C   0  0  0  0  0  0  0  0  0  0  0  0
  -94.2885   24.8434   -2.2848 C   0  0  0  0  0  0  0  0  0  0  0  0
  -95.5175   24.8623   -2.9333 C   0  0  0  0  0  0  0  0  0  0  0  0
  -96.4831   23.9858   -2.5025 C   0  0  0  0  0  0  0  0  0  0  0  0
  -97.7322   23.9249   -3.0739 F   0  0  0  0  0  0  0  0  0  0  0  0
  -96.2329   23.1246   -1.4672 C   0  0  0  0  0  0  0  0  0  0  0  0
  -95.0148   23.1351   -0.8558 C   0  0  0  0  0  0  0  0  0  0  0  0
  -86.1826   29.8753    0.9206 O   0  0  0  0  0  0  0  0  0  0  0  0
  -88.3467   32.5316   -1.1706 C   0  0  0  0  0  0  0  0  0  0  0  0
  -87.5807   31.6149   -0.4349 C   0  0  0  0  0  0  0  0  0  0  0  0
  -86.2137   31.8002   -0.3757 C   0  0  0  0  0  0  0  0  0  0  0  0
  -85.4708   30.8396    0.3636 C   0  0  0  0  0  0  0  0  0  0  0  0
  -84.1175   31.0447    0.3879 C   0  0  0  0  0  0  0  0  0  0  0  0
  -83.5571   32.1215   -0.2755 C   0  0  0  0  0  0  0  0  0  0  0  0
  -84.2900   33.0039   -0.9617 N   0  0  0  0  0  0  0  0  0  0  0  0
  -85.6111   32.8515   -1.0173 C   0  0  0  0  0  0  0  0  0  0  0  0
  -86.3928   33.7542   -1.7468 C   0  0  0  0  0  0  0  0  0  0  0  0
  -87.7570   33.6085   -1.8328 C   0  0  0  0  0  0  0  0  0  0  0  0
  -90.2439   31.2630   -1.9381 C   0  0  0  0  0  0  0  0  0  0  0  0
  -89.7169   32.3820   -1.2546 O   0  0  0  0  0  0  0  0  0  0  0  0
  -88.5812   34.4326   -2.5130 O   0  0  0  0  0  0  0  0  0  0  0  0
  -88.4417   35.1403   -3.6822 C   0  0  0  0  0  0  0  0  0  0  0  0
  -87.9977   36.5740   -3.5594 C   0  0  0  0  0  0  0  0  0  0  0  0
  -86.9591   36.8193   -4.6376 C   0  0  0  0  0  0  0  0  0  0  0  0
  -87.4476   37.4830   -5.7699 N   0  0  0  0  0  0  0  0  0  0  0  0
  -88.5463   38.3455   -5.6303 C   0  0  0  0  0  0  0  0  0  0  0  0
  -88.9563   39.0645   -6.8606 C   0  0  0  0  0  0  0  0  0  0  0  0
  -87.9510   39.0734   -7.9641 C   0  0  0  0  0  0  0  0  0  0  0  0
  -87.1377   37.8231   -8.0848 C   0  0  0  0  0  0  0  0  0  0  0  0
  -87.4744   36.7999   -7.0185 C   0  0  0  0  0  0  0  0  0  0  0  0
 37 38  1  0  0  0
 38 27  1  0  0  0
 27 28  2  0  0  0
 28 29  1  0  0  0
 29 30  2  0  0  0
 30 26  1  0  0  0
 26  1  1  0  0  0
  1  2  2  0  0  0
  2  3  1  0  0  0
  3  4  2  0  0  0
  4  8  1  0  0  0
  8  9  1  0  0  0
  9 10  2  0  0  0
  9 12  1  0  0  0
 12 13  1  0  0  0
 13 14  1  0  0  0
 12 15  1  0  0  0
 15 16  2  0  0  0
 15 17  1  0  0  0
 17 19  1  0  0  0
 19 20  2  0  0  0
 20 21  1  0  0  0
 21 22  2  0  0  0
 22 23  1  0  0  0
 22 24  1  0  0  0
 24 25  2  0  0  0
  4  5  1  0  0  0
  5  6  2  0  0  0
  6  7  1  0  0  0
 30 31  1  0  0  0
 31 32  2  0  0  0
 32 33  1  0  0  0
 33 34  2  0  0  0
 34 35  1  0  0  0
 35 36  2  0  0  0
 36 39  1  0  0  0
 39 40  1  0  0  0
 40 41  1  0  0  0
 41 42  1  0  0  0
 42 43  1  0  0  0
 43 44  1  0  0  0
 44 45  1  0  0  0
 45 46  1  0  0  0
 46 47  1  0  0  0
 47 48  1  0  0  0
 36 27  1  0  0  0
 48 43  1  0  0  0
 34 29  1  0  0  0
  6  1  1  0  0  0
 14 12  1  0  0  0
 25 19  1  0  0  0
  8 11  1  0  0  0
 17 18  1  0  0  0
M  END
> <minimizedAffinity>
-8.30776

> <CNNscore>
0.2032832801

> <CNNaffinity>
6.9619345665

> <CNN_VS>
1.4152449369

> <CNNaffinity_variance>
0.1381317228

$$$$
[H]c1nc2c([H])c(OC([H])([H])C([H])([H])C([H])([H])N3C([H])([H])C([H])([H])C([H])([H])C([H])([H])C3([H])[H])c(OC([H])([H])[H])c([H])c2c(Oc2c([H])c([H])c(N([H])C(=O)C3(C(=O)N([H])c4c([H])c([H])c(F)c([H])c4[H])C([H])([H])C3([H])[H])c([H])c2F)c1[H]


 48 53  0  0  0  0  0  0  0  0999 V2000
  -86.4409   28.6726    1.4124 C   0  0  0  0  0  0  0  0  0  0  0  0
  -87.2246   28.0192    2.3351 C   0  0  0  0  0  0  0  0  0  0  0  0
  -88.0129   26.9097    2.0227 C   0  0  0  0  0  0  0  0  0  0  0  0
  -88.0440   26.4015    0.7403 C   0  0  0  0  0  0  0  0  0  0  0  0
  -87.2687   27.0416   -0.1906 C   0  0  0  0  0  0  0  0  0  0  0  0
  -86.4914   28.1315    0.1042 C   0  0  0  0  0  0  0  0  0  0  0  0
  -85.7541   28.7211   -0.8621 F   0  0  0  0  0  0  0  0  0  0  0  0
  -88.8104   25.2345    0.4580 N   0  0  0  0  0  0  0  0  0  0  0  0
  -89.7547   25.0824   -0.5487 C   0  0  0  0  0  0  0  0  0  0  0  0
  -90.0537   26.0368   -1.3087 O   0  0  0  0  0  0  0  0  0  0  0  0
  -88.6512   24.4197    1.1408 H   0  0  0  0  0  0  0  0  0  0  0  0
  -90.4627   23.8101   -0.7707 C   0  0  0  0  0  0  0  0  0  0  0  0
  -91.9187   23.8836   -1.1173 C   0  0  0  0  0  0  0  0  0  0  0  0
  -90.9668   23.5280   -2.1660 C   0  0  0  0  0  0  0  0  0  0  0  0
  -90.0703   22.6501    0.0622 C   0  0  0  0  0  0  0  0  0  0  0  0
  -89.0258   22.0293   -0.2931 O   0  0  0  0  0  0  0  0  0  0  0  0
  -90.8056   22.2621    1.1900 N   0  0  0  0  0  0  0  0  0  0  0  0
  -91.6171   22.9307    1.4394 H   0  0  0  0  0  0  0  0  0  0  0  0
  -90.5693   21.1718    2.0422 C   0  0  0  0  0  0  0  0  0  0  0  0
  -91.2926   20.0271    2.0799 C   0  0  0  0  0  0  0  0  0  0  0  0
  -91.0026   18.9821    2.9490 C   0  0  0  0  0  0  0  0  0  0  0  0
  -89.9345   19.1330    3.7990 C   0  0  0  0  0  0  0  0  0  0  0  0
  -89.5642   18.1612    4.6985 F   0  0  0  0  0  0  0  0  0  0  0  0
  -89.1854   20.2796    3.7827 C   0  0  0  0  0  0  0  0  0  0  0  0
  -89.5005   21.2831    2.9157 C   0  0  0  0  0  0  0  0  0  0  0  0
  -85.6687   29.7355    1.6390 O   0  0  0  0  0  0  0  0  0  0  0  0
  -87.2089   32.5854   -0.7313 C   0  0  0  0  0  0  0  0  0  0  0  0
  -86.6591   31.5993    0.1017 C   0  0  0  0  0  0  0  0  0  0  0  0
  -85.2849   31.5280    0.2154 C   0  0  0  0  0  0  0  0  0  0  0  0
  -84.7662   30.5035    1.0538 C   0  0  0  0  0  0  0  0  0  0  0  0
  -83.4003   30.4514    1.1308 C   0  0  0  0  0  0  0  0  0  0  0  0
  -82.6211   31.3501    0.4244 C   0  0  0  0  0  0  0  0  0  0  0  0
  -83.1468   32.3001   -0.3551 N   0  0  0  0  0  0  0  0  0  0  0  0
  -84.4699   32.3954   -0.4653 C   0  0  0  0  0  0  0  0  0  0  0  0
  -85.0380   33.3711   -1.2919 C   0  0  0  0  0  0  0  0  0  0  0  0
  -86.4009   33.4787   -1.4349 C   0  0  0  0  0  0  0  0  0  0  0  0
  -89.3736   31.5309   -0.7293 C   0  0  0  0  0  0  0  0  0  0  0  0
  -88.5785   32.6905   -0.8724 O   0  0  0  0  0  0  0  0  0  0  0  0
  -87.0275   34.3892   -2.2091 O   0  0  0  0  0  0  0  0  0  0  0  0
  -87.1142   34.5607   -3.5694 C   0  0  0  0  0  0  0  0  0  0  0  0
  -88.0555   33.6482   -4.3104 C   0  0  0  0  0  0  0  0  0  0  0  0
  -89.4682   34.0654   -3.9477 C   0  0  0  0  0  0  0  0  0  0  0  0
  -90.3095   34.2734   -5.0479 N   0  0  0  0  0  0  0  0  0  0  0  0
  -91.2628   33.2940   -5.3687 C   0  0  0  0  0  0  0  0  0  0  0  0
  -92.1618   33.6222   -6.5013 C   0  0  0  0  0  0  0  0  0  0  0  0
  -92.1925   35.0602   -6.9007 C   0  0  0  0  0  0  0  0  0  0  0  0
  -90.8849   35.7769   -6.7738 C   0  0  0  0  0  0  0  0  0  0  0  0
  -89.7853   34.8953   -6.2161 C   0  0  0  0  0  0  0  0  0  0  0  0
 37 38  1  0  0  0
 38 27  1  0  0  0
 27 28  2  0  0  0
 28 29  1  0  0  0
 29 30  2  0  0  0
 30 26  1  0  0  0
 26  1  1  0  0  0
  1  2  2  0  0  0
  2  3  1  0  0  0
  3  4  2  0  0  0
  4  8  1  0  0  0
  8  9  1  0  0  0
  9 10  2  0  0  0
  9 12  1  0  0  0
 12 13  1  0  0  0
 13 14  1  0  0  0
 12 15  1  0  0  0
 15 16  2  0  0  0
 15 17  1  0  0  0
 17 19  1  0  0  0
 19 20  2  0  0  0
 20 21  1  0  0  0
 21 22  2  0  0  0
 22 23  1  0  0  0
 22 24  1  0  0  0
 24 25  2  0  0  0
  4  5  1  0  0  0
  5  6  2  0  0  0
  6  7  1  0  0  0
 30 31  1  0  0  0
 31 32  2  0  0  0
 32 33  1  0  0  0
 33 34  2  0  0  0
 34 35  1  0  0  0
 35 36  2  0  0  0
 36 39  1  0  0  0
 39 40  1  0  0  0
 40 41  1  0  0  0
 41 42  1  0  0  0
 42 43  1  0  0  0
 43 44  1  0  0  0
 44 45  1  0  0  0
 45 46  1  0  0  0
 46 47  1  0  0  0
 47 48  1  0  0  0
 36 27  1  0  0  0
 48 43  1  0  0  0
 34 29  1  0  0  0
  6  1  1  0  0  0
 14 12  1  0  0  0
 25 19  1  0  0  0
  8 11  1  0  0  0
 17 18  1  0  0  0
M  END
> <minimizedAffinity>
-9.14741

> <CNNscore>
0.2024231404

> <CNNaffinity>
7.2139081955

> <CNN_VS>
1.4602619410

> <CNNaffinity_variance>
0.3125769198

$$$$
[H]c1nc2c([H])c(OC([H])([H])C([H])([H])C([H])([H])N3C([H])([H])C([H])([H])C([H])([H])C([H])([H])C3([H])[H])c(OC([H])([H])[H])c([H])c2c(Oc2c([H])c([H])c(N([H])C(=O)C3(C(=O)N([H])c4c([H])c([H])c(F)c([H])c4[H])C([H])([H])C3([H])[H])c([H])c2F)c1[H]


 48 53  0  0  0  0  0  0  0  0999 V2000
  -86.3479   28.7549    0.7910 C   0  0  0  0  0  0  0  0  0  0  0  0
  -86.5913   28.2938   -0.4821 C   0  0  0  0  0  0  0  0  0  0  0  0
  -87.2993   27.1205   -0.7501 C   0  0  0  0  0  0  0  0  0  0  0  0
  -87.8029   26.3472    0.2757 C   0  0  0  0  0  0  0  0  0  0  0  0
  -87.5687   26.7930    1.5499 C   0  0  0  0  0  0  0  0  0  0  0  0
  -86.8748   27.9426    1.8251 C   0  0  0  0  0  0  0  0  0  0  0  0
  -86.6728   28.3239    3.1053 F   0  0  0  0  0  0  0  0  0  0  0  0
  -88.5712   25.1854   -0.0230 N   0  0  0  0  0  0  0  0  0  0  0  0
  -89.9326   25.1344   -0.2915 C   0  0  0  0  0  0  0  0  0  0  0  0
  -90.6428   26.1696   -0.2473 O   0  0  0  0  0  0  0  0  0  0  0  0
  -88.0200   24.2634    0.0160 H   0  0  0  0  0  0  0  0  0  0  0  0
  -90.6168   23.8737   -0.6257 C   0  0  0  0  0  0  0  0  0  0  0  0
  -89.9531   22.5976   -0.2057 C   0  0  0  0  0  0  0  0  0  0  0  0
  -91.1403   23.0405    0.5200 C   0  0  0  0  0  0  0  0  0  0  0  0
  -91.3519   23.8095   -1.9097 C   0  0  0  0  0  0  0  0  0  0  0  0
  -91.1526   22.7822   -2.6221 O   0  0  0  0  0  0  0  0  0  0  0  0
  -92.2302   24.8232   -2.3150 N   0  0  0  0  0  0  0  0  0  0  0  0
  -92.3844   25.5956   -1.5752 H   0  0  0  0  0  0  0  0  0  0  0  0
  -92.9593   24.9071   -3.5117 C   0  0  0  0  0  0  0  0  0  0  0  0
  -93.8832   24.0130   -3.9385 C   0  0  0  0  0  0  0  0  0  0  0  0
  -94.5731   24.1577   -5.1361 C   0  0  0  0  0  0  0  0  0  0  0  0
  -94.2939   25.2589   -5.9078 C   0  0  0  0  0  0  0  0  0  0  0  0
  -94.9182   25.4951   -7.1099 F   0  0  0  0  0  0  0  0  0  0  0  0
  -93.3646   26.1792   -5.5012 C   0  0  0  0  0  0  0  0  0  0  0  0
  -92.7082   26.0034   -4.3196 C   0  0  0  0  0  0  0  0  0  0  0  0
  -85.6794   29.8605    1.1195 O   0  0  0  0  0  0  0  0  0  0  0  0
  -87.3347   32.8310   -1.0133 C   0  0  0  0  0  0  0  0  0  0  0  0
  -86.7453   31.8030   -0.2621 C   0  0  0  0  0  0  0  0  0  0  0  0
  -85.3718   31.7980   -0.1208 C   0  0  0  0  0  0  0  0  0  0  0  0
  -84.8115   30.7295    0.6313 C   0  0  0  0  0  0  0  0  0  0  0  0
  -83.4467   30.7467    0.7376 C   0  0  0  0  0  0  0  0  0  0  0  0
  -82.7070   31.7502    0.1380 C   0  0  0  0  0  0  0  0  0  0  0  0
  -83.2711   32.7387   -0.5628 N   0  0  0  0  0  0  0  0  0  0  0  0
  -84.5951   32.7699   -0.6970 C   0  0  0  0  0  0  0  0  0  0  0  0
  -85.2022   33.7861   -1.4433 C   0  0  0  0  0  0  0  0  0  0  0  0
  -86.5660   33.8305   -1.6100 C   0  0  0  0  0  0  0  0  0  0  0  0
  -89.5254   32.1447   -0.2870 C   0  0  0  0  0  0  0  0  0  0  0  0
  -88.7050   32.8723   -1.1785 O   0  0  0  0  0  0  0  0  0  0  0  0
  -87.2288   34.7736   -2.3117 O   0  0  0  0  0  0  0  0  0  0  0  0
  -87.5125   34.9199   -3.6479 C   0  0  0  0  0  0  0  0  0  0  0  0
  -88.9031   34.5497   -4.0915 C   0  0  0  0  0  0  0  0  0  0  0  0
  -88.7725   33.4080   -5.0819 C   0  0  0  0  0  0  0  0  0  0  0  0
  -88.8580   32.1332   -4.5084 N   0  0  0  0  0  0  0  0  0  0  0  0
  -87.7068   31.3311   -4.4610 C   0  0  0  0  0  0  0  0  0  0  0  0
  -87.8633   30.0265   -3.7739 C   0  0  0  0  0  0  0  0  0  0  0  0
  -89.0771   29.8947   -2.9151 C   0  0  0  0  0  0  0  0  0  0  0  0
  -90.2923   30.6000   -3.4301 C   0  0  0  0  0  0  0  0  0  0  0  0
  -90.0302   31.3534   -4.7189 C   0  0  0  0  0  0  0  0  0  0  0  0
 37 38  1  0  0  0
 38 27  1  0  0  0
 27 28  2  0  0  0
 28 29  1  0  0  0
 29 30  2  0  0  0
 30 26  1  0  0  0
 26  1  1  0  0  0
  1  2  2  0  0  0
  2  3  1  0  0  0
  3  4  2  0  0  0
  4  8  1  0  0  0
  8  9  1  0  0  0
  9 10  2  0  0  0
  9 12  1  0  0  0
 12 13  1  0  0  0
 13 14  1  0  0  0
 12 15  1  0  0  0
 15 16  2  0  0  0
 15 17  1  0  0  0
 17 19  1  0  0  0
 19 20  2  0  0  0
 20 21  1  0  0  0
 21 22  2  0  0  0
 22 23  1  0  0  0
 22 24  1  0  0  0
 24 25  2  0  0  0
  4  5  1  0  0  0
  5  6  2  0  0  0
  6  7  1  0  0  0
 30 31  1  0  0  0
 31 32  2  0  0  0
 32 33  1  0  0  0
 33 34  2  0  0  0
 34 35  1  0  0  0
 35 36  2  0  0  0
 36 39  1  0  0  0
 39 40  1  0  0  0
 40 41  1  0  0  0
 41 42  1  0  0  0
 42 43  1  0  0  0
 43 44  1  0  0  0
 44 45  1  0  0  0
 45 46  1  0  0  0
 46 47  1  0  0  0
 47 48  1  0  0  0
 36 27  1  0  0  0
 48 43  1  0  0  0
 34 29  1  0  0  0
  6  1  1  0  0  0
 14 12  1  0  0  0
 25 19  1  0  0  0
  8 11  1  0  0  0
 17 18  1  0  0  0
M  END
> <minimizedAffinity>
-9.05900

> <CNNscore>
0.1652325988

> <CNNaffinity>
7.3014769554

> <CNN_VS>
1.2064419985

> <CNNaffinity_variance>
0.6292797327

$$$$
[H]c1nc2c([H])c(OC([H])([H])C([H])([H])C([H])([H])N3C([H])([H])C([H])([H])C([H])([H])C([H])([H])C3([H])[H])c(OC([H])([H])[H])c([H])c2c(Oc2c([H])c([H])c(N([H])C(=O)C3(C(=O)N([H])c4c([H])c([H])c(F)c([H])c4[H])C([H])([H])C3([H])[H])c([H])c2F)c1[H]


 48 53  0  0  0  0  0  0  0  0999 V2000
  -85.4964   28.9478    1.2337 C   0  0  0  0  0  0  0  0  0  0  0  0
  -85.9594   28.1382    0.2224 C   0  0  0  0  0  0  0  0  0  0  0  0
  -86.8858   27.1131    0.4243 C   0  0  0  0  0  0  0  0  0  0  0  0
  -87.3955   26.8565    1.6806 C   0  0  0  0  0  0  0  0  0  0  0  0
  -86.9440   27.6543    2.6989 C   0  0  0  0  0  0  0  0  0  0  0  0
  -86.0347   28.6630    2.5128 C   0  0  0  0  0  0  0  0  0  0  0  0
  -85.6252   29.4101    3.5612 F   0  0  0  0  0  0  0  0  0  0  0  0
  -88.3823   25.8437    1.8526 N   0  0  0  0  0  0  0  0  0  0  0  0
  -89.7481   25.9671    1.6349 C   0  0  0  0  0  0  0  0  0  0  0  0
  -90.2544   27.0631    1.2879 O   0  0  0  0  0  0  0  0  0  0  0  0
  -88.0047   24.9127    2.2347 H   0  0  0  0  0  0  0  0  0  0  0  0
  -90.6733   24.8347    1.8109 C   0  0  0  0  0  0  0  0  0  0  0  0
  -90.2001   23.6816    2.6426 C   0  0  0  0  0  0  0  0  0  0  0  0
  -91.2064   24.5805    3.2008 C   0  0  0  0  0  0  0  0  0  0  0  0
  -91.5432   24.4732    0.6682 C   0  0  0  0  0  0  0  0  0  0  0  0
  -92.4208   25.3235    0.3373 O   0  0  0  0  0  0  0  0  0  0  0  0
  -91.4007   23.2613   -0.0204 N   0  0  0  0  0  0  0  0  0  0  0  0
  -90.5549   22.6691    0.2987 H   0  0  0  0  0  0  0  0  0  0  0  0
  -92.1720   22.7794   -1.0897 C   0  0  0  0  0  0  0  0  0  0  0  0
  -93.2594   21.9788   -0.9820 C   0  0  0  0  0  0  0  0  0  0  0  0
  -93.9817   21.5383   -2.0846 C   0  0  0  0  0  0  0  0  0  0  0  0
  -93.5613   21.9406   -3.3286 C   0  0  0  0  0  0  0  0  0  0  0  0
  -94.2035   21.5600   -4.4833 F   0  0  0  0  0  0  0  0  0  0  0  0
  -92.4652   22.7500   -3.4675 C   0  0  0  0  0  0  0  0  0  0  0  0
  -91.7821   23.1621   -2.3623 C   0  0  0  0  0  0  0  0  0  0  0  0
  -84.6135   29.9395    1.1142 O   0  0  0  0  0  0  0  0  0  0  0  0
  -87.9209   31.5823   -0.4590 C   0  0  0  0  0  0  0  0  0  0  0  0
  -86.7593   31.0226    0.0940 C   0  0  0  0  0  0  0  0  0  0  0  0
  -85.5573   31.6710   -0.1097 C   0  0  0  0  0  0  0  0  0  0  0  0
  -84.4009   31.0624    0.4503 C   0  0  0  0  0  0  0  0  0  0  0  0
  -83.2250   31.7229    0.2155 C   0  0  0  0  0  0  0  0  0  0  0  0
  -83.2108   32.8939   -0.5208 C   0  0  0  0  0  0  0  0  0  0  0  0
  -84.3207   33.4352   -1.0324 N   0  0  0  0  0  0  0  0  0  0  0  0
  -85.4913   32.8337   -0.8334 C   0  0  0  0  0  0  0  0  0  0  0  0
  -86.6613   33.3751   -1.3776 C   0  0  0  0  0  0  0  0  0  0  0  0
  -87.8795   32.7636   -1.1998 C   0  0  0  0  0  0  0  0  0  0  0  0
  -89.3841   29.7237   -0.9090 C   0  0  0  0  0  0  0  0  0  0  0  0
  -89.1429   30.9651   -0.2783 O   0  0  0  0  0  0  0  0  0  0  0  0
  -89.0519   33.2189   -1.6890 O   0  0  0  0  0  0  0  0  0  0  0  0
  -89.4818   33.5240   -2.9576 C   0  0  0  0  0  0  0  0  0  0  0  0
  -89.9010   32.3694   -3.8287 C   0  0  0  0  0  0  0  0  0  0  0  0
  -91.0587   31.6768   -3.1348 C   0  0  0  0  0  0  0  0  0  0  0  0
  -92.1224   31.3410   -3.9816 N   0  0  0  0  0  0  0  0  0  0  0  0
  -91.9580   30.2856   -4.8927 C   0  0  0  0  0  0  0  0  0  0  0  0
  -93.1535   29.9460   -5.7015 C   0  0  0  0  0  0  0  0  0  0  0  0
  -94.4469   30.4943   -5.1969 C   0  0  0  0  0  0  0  0  0  0  0  0
  -94.3531   31.8469   -4.5636 C   0  0  0  0  0  0  0  0  0  0  0  0
  -92.9339   32.3776   -4.5231 C   0  0  0  0  0  0  0  0  0  0  0  0
 37 38  1  0  0  0
 38 27  1  0  0  0
 27 28  2  0  0  0
 28 29  1  0  0  0
 29 30  2  0  0  0
 30 26  1  0  0  0
 26  1  1  0  0  0
  1  2  2  0  0  0
  2  3  1  0  0  0
  3  4  2  0  0  0
  4  8  1  0  0  0
  8  9  1  0  0  0
  9 10  2  0  0  0
  9 12  1  0  0  0
 12 13  1  0  0  0
 13 14  1  0  0  0
 12 15  1  0  0  0
 15 16  2  0  0  0
 15 17  1  0  0  0
 17 19  1  0  0  0
 19 20  2  0  0  0
 20 21  1  0  0  0
 21 22  2  0  0  0
 22 23  1  0  0  0
 22 24  1  0  0  0
 24 25  2  0  0  0
  4  5  1  0  0  0
  5  6  2  0  0  0
  6  7  1  0  0  0
 30 31  1  0  0  0
 31 32  2  0  0  0
 32 33  1  0  0  0
 33 34  2  0  0  0
 34 35  1  0  0  0
 35 36  2  0  0  0
 36 39  1  0  0  0
 39 40  1  0  0  0
 40 41  1  0  0  0
 41 42  1  0  0  0
 42 43  1  0  0  0
 43 44  1  0  0  0
 44 45  1  0  0  0
 45 46  1  0  0  0
 46 47  1  0  0  0
 47 48  1  0  0  0
 36 27  1  0  0  0
 48 43  1  0  0  0
 34 29  1  0  0  0
  6  1  1  0  0  0
 14 12  1  0  0  0
 25 19  1  0  0  0
  8 11  1  0  0  0
 17 18  1  0  0  0
M  END
> <minimizedAffinity>
-8.20771

> <CNNscore>
0.1602435708

> <CNNaffinity>
7.1794753075

> <CNN_VS>
1.1504647732

> <CNNaffinity_variance>
0.2349639386

$$$$
[H]c1nc2c([H])c(OC([H])([H])C([H])([H])C([H])([H])N3C([H])([H])C([H])([H])C([H])([H])C([H])([H])C3([H])[H])c(OC([H])([H])[H])c([H])c2c(Oc2c([H])c([H])c(N([H])C(=O)C3(C(=O)N([H])c4c([H])c([H])c(F)c([H])c4[H])C([H])([H])C3([H])[H])c([H])c2F)c1[H]


 48 53  0  0  0  0  0  0  0  0999 V2000
  -85.9964   32.3618   -0.5133 C   0  0  0  0  0  0  0  0  0  0  0  0
  -87.3116   32.2717   -0.9064 C   0  0  0  0  0  0  0  0  0  0  0  0
  -87.7953   32.8196   -2.0962 C   0  0  0  0  0  0  0  0  0  0  0  0
  -86.9554   33.4948   -2.9580 C   0  0  0  0  0  0  0  0  0  0  0  0
  -85.6420   33.5933   -2.5805 C   0  0  0  0  0  0  0  0  0  0  0  0
  -85.1560   33.0600   -1.4151 C   0  0  0  0  0  0  0  0  0  0  0  0
  -83.8500   33.1978   -1.0980 F   0  0  0  0  0  0  0  0  0  0  0  0
  -87.4591   33.9951   -4.1929 N   0  0  0  0  0  0  0  0  0  0  0  0
  -88.1059   35.2066   -4.3982 C   0  0  0  0  0  0  0  0  0  0  0  0
  -88.3484   35.9839   -3.4417 O   0  0  0  0  0  0  0  0  0  0  0  0
  -87.3525   33.3219   -5.0242 H   0  0  0  0  0  0  0  0  0  0  0  0
  -88.5527   35.6378   -5.7337 C   0  0  0  0  0  0  0  0  0  0  0  0
  -88.6398   37.1119   -5.9881 C   0  0  0  0  0  0  0  0  0  0  0  0
  -87.5511   36.3587   -6.6041 C   0  0  0  0  0  0  0  0  0  0  0  0
  -89.5835   34.8187   -6.4118 C   0  0  0  0  0  0  0  0  0  0  0  0
  -89.8014   33.6709   -5.9243 O   0  0  0  0  0  0  0  0  0  0  0  0
  -90.2904   35.2874   -7.5270 N   0  0  0  0  0  0  0  0  0  0  0  0
  -90.0791   36.3158   -7.7834 H   0  0  0  0  0  0  0  0  0  0  0  0
  -91.2609   34.6100   -8.2820 C   0  0  0  0  0  0  0  0  0  0  0  0
  -92.3907   34.0453   -7.7923 C   0  0  0  0  0  0  0  0  0  0  0  0
  -93.3142   33.3896   -8.5976 C   0  0  0  0  0  0  0  0  0  0  0  0
  -93.0547   33.3198   -9.9444 C   0  0  0  0  0  0  0  0  0  0  0  0
  -93.9018   32.6927  -10.8276 F   0  0  0  0  0  0  0  0  0  0  0  0
  -91.9204   33.8819  -10.4673 C   0  0  0  0  0  0  0  0  0  0  0  0
  -91.0378   34.5173   -9.6456 C   0  0  0  0  0  0  0  0  0  0  0  0
  -85.4677   31.8671    0.6061 O   0  0  0  0  0  0  0  0  0  0  0  0
  -87.6410   28.5424    1.1853 C   0  0  0  0  0  0  0  0  0  0  0  0
  -86.8692   29.6955    0.9779 C   0  0  0  0  0  0  0  0  0  0  0  0
  -85.5190   29.6413    1.2617 C   0  0  0  0  0  0  0  0  0  0  0  0
  -84.7752   30.8355    1.0565 C   0  0  0  0  0  0  0  0  0  0  0  0
  -83.4436   30.7508    1.3630 C   0  0  0  0  0  0  0  0  0  0  0  0
  -82.9048   29.5682    1.8373 C   0  0  0  0  0  0  0  0  0  0  0  0
  -83.6379   28.4653    2.0179 N   0  0  0  0  0  0  0  0  0  0  0  0
  -84.9383   28.4929    1.7349 C   0  0  0  0  0  0  0  0  0  0  0  0
  -85.7257   27.3538    1.9359 C   0  0  0  0  0  0  0  0  0  0  0  0
  -87.0737   27.3624    1.6667 C   0  0  0  0  0  0  0  0  0  0  0  0
  -89.4578   29.2387   -0.2331 C   0  0  0  0  0  0  0  0  0  0  0  0
  -88.9949   28.5549    0.9137 O   0  0  0  0  0  0  0  0  0  0  0  0
  -87.9019   26.3098    1.8319 O   0  0  0  0  0  0  0  0  0  0  0  0
  -88.6514   25.8657    2.8941 C   0  0  0  0  0  0  0  0  0  0  0  0
  -89.8944   25.0809    2.5673 C   0  0  0  0  0  0  0  0  0  0  0  0
  -90.6282   25.8320    1.4723 C   0  0  0  0  0  0  0  0  0  0  0  0
  -90.7034   25.1474    0.2529 N   0  0  0  0  0  0  0  0  0  0  0  0
  -90.0272   25.6688   -0.8615 C   0  0  0  0  0  0  0  0  0  0  0  0
  -90.0966   24.8478   -2.0943 C   0  0  0  0  0  0  0  0  0  0  0  0
  -90.5387   23.4352   -1.9008 C   0  0  0  0  0  0  0  0  0  0  0  0
  -91.5680   23.2383   -0.8326 C   0  0  0  0  0  0  0  0  0  0  0  0
  -91.9288   24.5276   -0.1220 C   0  0  0  0  0  0  0  0  0  0  0  0
 37 38  1  0  0  0
 38 27  1  0  0  0
 27 28  2  0  0  0
 28 29  1  0  0  0
 29 30  2  0  0  0
 30 26  1  0  0  0
 26  1  1  0  0  0
  1  2  2  0  0  0
  2  3  1  0  0  0
  3  4  2  0  0  0
  4  8  1  0  0  0
  8  9  1  0  0  0
  9 10  2  0  0  0
  9 12  1  0  0  0
 12 13  1  0  0  0
 13 14  1  0  0  0
 12 15  1  0  0  0
 15 16  2  0  0  0
 15 17  1  0  0  0
 17 19  1  0  0  0
 19 20  2  0  0  0
 20 21  1  0  0  0
 21 22  2  0  0  0
 22 23  1  0  0  0
 22 24  1  0  0  0
 24 25  2  0  0  0
  4  5  1  0  0  0
  5  6  2  0  0  0
  6  7  1  0  0  0
 30 31  1  0  0  0
 31 32  2  0  0  0
 32 33  1  0  0  0
 33 34  2  0  0  0
 34 35  1  0  0  0
 35 36  2  0  0  0
 36 39  1  0  0  0
 39 40  1  0  0  0
 40 41  1  0  0  0
 41 42  1  0  0  0
 42 43  1  0  0  0
 43 44  1  0  0  0
 44 45  1  0  0  0
 45 46  1  0  0  0
 46 47  1  0  0  0
 47 48  1  0  0  0
 36 27  1  0  0  0
 48 43  1  0  0  0
 34 29  1  0  0  0
  6  1  1  0  0  0
 14 12  1  0  0  0
 25 19  1  0  0  0
  8 11  1  0  0  0
 17 18  1  0  0  0
M  END
> <minimizedAffinity>
-9.07754

> <CNNscore>
0.1417253464

> <CNNaffinity>
6.9406700134

> <CNN_VS>
0.9836688638

> <CNNaffinity_variance>
0.2723801732

$$$$
[H]c1nc2c([H])c(OC([H])([H])C([H])([H])C([H])([H])N3C([H])([H])C([H])([H])C([H])([H])C([H])([H])C3([H])[H])c(OC([H])([H])[H])c([H])c2c(Oc2c([H])c([H])c(N([H])C(=O)C3(C(=O)N([H])c4c([H])c([H])c(F)c([H])c4[H])C([H])([H])C3([H])[H])c([H])c2F)c1[H]


 48 53  0  0  0  0  0  0  0  0999 V2000
  -86.7301   31.8603   -0.6972 C   0  0  0  0  0  0  0  0  0  0  0  0
  -85.9054   32.9612   -0.6826 C   0  0  0  0  0  0  0  0  0  0  0  0
  -85.8435   33.8865   -1.7265 C   0  0  0  0  0  0  0  0  0  0  0  0
  -86.6276   33.7379   -2.8521 C   0  0  0  0  0  0  0  0  0  0  0  0
  -87.4546   32.6459   -2.8819 C   0  0  0  0  0  0  0  0  0  0  0  0
  -87.5235   31.7309   -1.8636 C   0  0  0  0  0  0  0  0  0  0  0  0
  -88.3562   30.6713   -1.9579 F   0  0  0  0  0  0  0  0  0  0  0  0
  -86.5899   34.7249   -3.8785 N   0  0  0  0  0  0  0  0  0  0  0  0
  -87.4233   35.8286   -4.0026 C   0  0  0  0  0  0  0  0  0  0  0  0
  -88.3603   36.0299   -3.1906 O   0  0  0  0  0  0  0  0  0  0  0  0
  -85.8594   34.5435   -4.6458 H   0  0  0  0  0  0  0  0  0  0  0  0
  -87.2665   36.8081   -5.0913 C   0  0  0  0  0  0  0  0  0  0  0  0
  -87.2698   38.2593   -4.7179 C   0  0  0  0  0  0  0  0  0  0  0  0
  -86.0056   37.6391   -5.1042 C   0  0  0  0  0  0  0  0  0  0  0  0
  -87.8901   36.4913   -6.3967 C   0  0  0  0  0  0  0  0  0  0  0  0
  -87.1112   36.4302   -7.3929 O   0  0  0  0  0  0  0  0  0  0  0  0
  -89.2658   36.2602   -6.5269 N   0  0  0  0  0  0  0  0  0  0  0  0
  -89.8020   36.2470   -5.5887 H   0  0  0  0  0  0  0  0  0  0  0  0
  -89.9888   35.9865   -7.6987 C   0  0  0  0  0  0  0  0  0  0  0  0
  -90.1796   36.8457   -8.7284 C   0  0  0  0  0  0  0  0  0  0  0  0
  -90.9060   36.5093   -9.8644 C   0  0  0  0  0  0  0  0  0  0  0  0
  -91.4470   35.2487   -9.9292 C   0  0  0  0  0  0  0  0  0  0  0  0
  -92.1839   34.8164  -11.0067 F   0  0  0  0  0  0  0  0  0  0  0  0
  -91.2702   34.3591   -8.9029 C   0  0  0  0  0  0  0  0  0  0  0  0
  -90.5510   34.7253   -7.8045 C   0  0  0  0  0  0  0  0  0  0  0  0
  -86.8380   30.9377    0.2592 O   0  0  0  0  0  0  0  0  0  0  0  0
  -88.9755   27.5639    0.6602 C   0  0  0  0  0  0  0  0  0  0  0  0
  -88.2155   28.7345    0.5168 C   0  0  0  0  0  0  0  0  0  0  0  0
  -86.9067   28.7252    0.9567 C   0  0  0  0  0  0  0  0  0  0  0  0
  -86.1759   29.9360    0.8112 C   0  0  0  0  0  0  0  0  0  0  0  0
  -84.8875   29.8961    1.2724 C   0  0  0  0  0  0  0  0  0  0  0  0
  -84.3767   28.7396    1.8338 C   0  0  0  0  0  0  0  0  0  0  0  0
  -85.0965   27.6199    1.9540 N   0  0  0  0  0  0  0  0  0  0  0  0
  -86.3551   27.6039    1.5212 C   0  0  0  0  0  0  0  0  0  0  0  0
  -87.1304   26.4468    1.6562 C   0  0  0  0  0  0  0  0  0  0  0  0
  -88.4374   26.4109    1.2320 C   0  0  0  0  0  0  0  0  0  0  0  0
  -91.2481   28.3204    0.9062 C   0  0  0  0  0  0  0  0  0  0  0  0
  -90.2882   27.5316    0.2328 O   0  0  0  0  0  0  0  0  0  0  0  0
  -89.2511   25.3383    1.3245 O   0  0  0  0  0  0  0  0  0  0  0  0
  -90.1468   24.9221    2.2794 C   0  0  0  0  0  0  0  0  0  0  0  0
  -90.8975   23.6477    1.9969 C   0  0  0  0  0  0  0  0  0  0  0  0
  -91.0386   22.9052    3.3123 C   0  0  0  0  0  0  0  0  0  0  0  0
  -90.5661   21.5872    3.2853 N   0  0  0  0  0  0  0  0  0  0  0  0
  -89.3026   21.3074    3.8294 C   0  0  0  0  0  0  0  0  0  0  0  0
  -88.9068   19.8784    3.8274 C   0  0  0  0  0  0  0  0  0  0  0  0
  -90.0166   18.9052    3.6050 C   0  0  0  0  0  0  0  0  0  0  0  0
  -91.0820   19.3699    2.6625 C   0  0  0  0  0  0  0  0  0  0  0  0
  -90.8374   20.7746    2.1485 C   0  0  0  0  0  0  0  0  0  0  0  0
 37 38  1  0  0  0
 38 27  1  0  0  0
 27 28  2  0  0  0
 28 29  1  0  0  0
 29 30  2  0  0  0
 30 26  1  0  0  0
 26  1  1  0  0  0
  1  2  2  0  0  0
  2  3  1  0  0  0
  3  4  2  0  0  0
  4  8  1  0  0  0
  8  9  1  0  0  0
  9 10  2  0  0  0
  9 12  1  0  0  0
 12 13  1  0  0  0
 13 14  1  0  0  0
 12 15  1  0  0  0
 15 16  2  0  0  0
 15 17  1  0  0  0
 17 19  1  0  0  0
 19 20  2  0  0  0
 20 21  1  0  0  0
 21 22  2  0  0  0
 22 23  1  0  0  0
 22 24  1  0  0  0
 24 25  2  0  0  0
  4  5  1  0  0  0
  5  6  2  0  0  0
  6  7  1  0  0  0
 30 31  1  0  0  0
 31 32  2  0  0  0
 32 33  1  0  0  0
 33 34  2  0  0  0
 34 35  1  0  0  0
 35 36  2  0  0  0
 36 39  1  0  0  0
 39 40  1  0  0  0
 40 41  1  0  0  0
 41 42  1  0  0  0
 42 43  1  0  0  0
 43 44  1  0  0  0
 44 45  1  0  0  0
 45 46  1  0  0  0
 46 47  1  0  0  0
 47 48  1  0  0  0
 36 27  1  0  0  0
 48 43  1  0  0  0
 34 29  1  0  0  0
  6  1  1  0  0  0
 14 12  1  0  0  0
 25 19  1  0  0  0
  8 11  1  0  0  0
 17 18  1  0  0  0
M  END
> <minimizedAffinity>
-9.22865

> <CNNscore>
0.1397646517

> <CNNaffinity>
6.6339426041

> <CNN_VS>
0.9271906614

> <CNNaffinity_variance>
0.1502265334

$$$$
