[H]O[C@@]([H])(C([H])([H])N([H])[H])C([H])([H])N([H])C(=O)c1nc(-c2c([H])c([H])c3c([H])c(-c4c([H])c([H])c([H])c(N5C([H])([H])C([H])([H])N(c6c([H])c([H])c([H])c([H])c6OC([H])(C([H])([H])[H])C([H])([H])[H])C([H])([H])C5([H])[H])c4[H])c([H])nc3c2[H])c([H])s1


 49 54  0  0  0  0  0  0  0  0999 V2000
  -86.5610   31.0069   -0.1606 C   0  0  0  0  0  0  0  0  0  0  0  0
  -85.4659   31.8346   -0.2313 C   0  0  0  0  0  0  0  0  0  0  0  0
  -85.4915   32.9857   -0.9665 N   0  0  0  0  0  0  0  0  0  0  0  0
  -86.5818   33.3660   -1.6543 C   0  0  0  0  0  0  0  0  0  0  0  0
  -86.5676   34.5533   -2.3952 C   0  0  0  0  0  0  0  0  0  0  0  0
  -87.6823   34.9326   -3.0920 C   0  0  0  0  0  0  0  0  0  0  0  0
  -88.7989   34.1396   -3.0521 C   0  0  0  0  0  0  0  0  0  0  0  0
  -88.8011   32.9650   -2.3144 C   0  0  0  0  0  0  0  0  0  0  0  0
  -87.6939   32.5561   -1.6020 C   0  0  0  0  0  0  0  0  0  0  0  0
  -87.6916   31.3709   -0.8550 C   0  0  0  0  0  0  0  0  0  0  0  0
  -87.2547   27.5764    1.2112 C   0  0  0  0  0  0  0  0  0  0  0  0
  -86.2847   27.5187    2.1793 C   0  0  0  0  0  0  0  0  0  0  0  0
  -85.4080   28.5715    2.3993 C   0  0  0  0  0  0  0  0  0  0  0  0
  -85.5228   29.6864    1.6280 C   0  0  0  0  0  0  0  0  0  0  0  0
  -86.4880   29.7731    0.6474 C   0  0  0  0  0  0  0  0  0  0  0  0
  -87.3327   28.7297    0.4529 C   0  0  0  0  0  0  0  0  0  0  0  0
  -90.3018   25.0852    0.1947 N   0  0  0  0  0  0  0  0  0  0  0  0
  -89.2652   25.2550   -0.8004 C   0  0  0  0  0  0  0  0  0  0  0  0
  -87.9528   25.6845   -0.1922 C   0  0  0  0  0  0  0  0  0  0  0  0
  -88.1265   26.4796    0.9969 N   0  0  0  0  0  0  0  0  0  0  0  0
  -89.1465   26.1651    1.9642 C   0  0  0  0  0  0  0  0  0  0  0  0
  -90.4689   26.1191    1.2014 C   0  0  0  0  0  0  0  0  0  0  0  0
  -92.3405   23.8617   -0.4359 C   0  0  0  0  0  0  0  0  0  0  0  0
  -93.0841   22.6357   -0.3407 C   0  0  0  0  0  0  0  0  0  0  0  0
  -92.6534   21.6044    0.3987 C   0  0  0  0  0  0  0  0  0  0  0  0
  -91.4849   21.6983    1.0856 C   0  0  0  0  0  0  0  0  0  0  0  0
  -90.7523   22.8549    1.0139 C   0  0  0  0  0  0  0  0  0  0  0  0
  -91.1605   23.9611    0.2528 C   0  0  0  0  0  0  0  0  0  0  0  0
  -92.8667   24.8120   -1.1912 O   0  0  0  0  0  0  0  0  0  0  0  0
  -92.9154   24.2983   -3.5418 C   0  0  0  0  0  0  0  0  0  0  0  0
  -93.1086   25.2955   -2.3772 C   0  0  0  0  0  0  0  0  0  0  0  0
  -92.1062   26.4405   -2.7165 C   0  0  0  0  0  0  0  0  0  0  0  0
  -87.7153   36.1824   -3.8927 C   0  0  0  0  0  0  0  0  0  0  0  0
  -88.8103   37.0145   -3.8441 C   0  0  0  0  0  0  0  0  0  0  0  0
  -88.3455   38.2624   -4.9116 S   0  0  0  0  0  0  0  0  0  0  0  0
  -86.8085   37.6607   -5.3504 C   0  0  0  0  0  0  0  0  0  0  0  0
  -86.7341   36.5404   -4.6580 N   0  0  0  0  0  0  0  0  0  0  0  0
  -85.8063   38.2353   -6.2696 C   0  0  0  0  0  0  0  0  0  0  0  0
  -86.0832   38.2784   -7.4798 O   0  0  0  0  0  0  0  0  0  0  0  0
  -84.5974   38.7019   -5.7370 N   0  0  0  0  0  0  0  0  0  0  0  0
  -84.4083   38.6463   -4.7172 H   0  0  0  0  0  0  0  0  0  0  0  0
  -83.5833   39.2730   -6.5969 C   0  0  0  0  0  0  0  0  0  0  0  0
  -82.2473   38.5868   -6.3700 C   0  0  0  0  0  0  0  0  0  0  0  0
  -81.3153   38.9192   -7.3491 O   0  0  0  0  0  0  0  0  0  0  0  0
  -81.0026   38.1370   -7.8661 H   0  0  0  0  0  0  0  0  0  0  0  0
  -81.6636   38.9463   -5.0315 C   0  0  0  0  0  0  0  0  0  0  0  0
  -80.5271   38.1103   -4.7565 N   0  0  0  0  0  0  0  0  0  0  0  0
  -80.5964   37.1854   -5.2146 H   0  0  0  0  0  0  0  0  0  0  0  0
  -79.6158   38.6065   -4.9787 H   0  0  0  0  0  0  0  0  0  0  0  0
 30 31  1  0  0  0
 31 32  1  0  0  0
 31 29  1  0  0  0
 29 23  1  0  0  0
 23 24  2  0  0  0
 24 25  1  0  0  0
 25 26  2  0  0  0
 26 27  1  0  0  0
 27 28  2  0  0  0
 28 17  1  0  0  0
 17 18  1  0  0  0
 18 19  1  0  0  0
 19 20  1  0  0  0
 20 21  1  0  0  0
 21 22  1  0  0  0
 20 11  1  0  0  0
 11 12  2  0  0  0
 12 13  1  0  0  0
 13 14  2  0  0  0
 14 15  1  0  0  0
 15 16  2  0  0  0
 15  1  1  0  0  0
  1  2  2  0  0  0
  2  3  1  0  0  0
  3  4  2  0  0  0
  4  5  1  0  0  0
  5  6  2  0  0  0
  6  7  1  0  0  0
  7  8  2  0  0  0
  8  9  1  0  0  0
  9 10  2  0  0  0
  6 33  1  0  0  0
 33 34  2  0  0  0
 34 35  1  0  0  0
 35 36  1  0  0  0
 36 38  1  0  0  0
 38 39  2  0  0  0
 38 40  1  0  0  0
 40 42  1  0  0  0
 42 43  1  0  0  0
 43 44  1  0  0  0
 43 46  1  0  0  0
 46 47  1  0  0  0
 36 37  2  0  0  0
 28 23  1  0  0  0
 22 17  1  0  0  0
 16 11  1  0  0  0
 10  1  1  0  0  0
 37 33  1  0  0  0
  9  4  1  0  0  0
 40 41  1  0  0  0
 44 45  1  0  0  0
 47 48  1  0  0  0
 47 49  1  0  0  0
M  END
> <minimizedAffinity>
-9.52234

> <CNNscore>
0.1273694783

> <CNNaffinity>
6.6297540665

> <CNN_VS>
0.8444283009

> <CNNaffinity_variance>
0.2625847459

$$$$
[H]O[C@@]([H])(C([H])([H])N([H])[H])C([H])([H])N([H])C(=O)c1nc(-c2c([H])c([H])c3c([H])c(-c4c([H])c([H])c([H])c(N5C([H])([H])C([H])([H])N(c6c([H])c([H])c([H])c([H])c6OC([H])(C([H])([H])[H])C([H])([H])[H])C([H])([H])C5([H])[H])c4[H])c([H])nc3c2[H])c([H])s1


 49 54  0  0  0  0  0  0  0  0999 V2000
  -94.3930   29.6906   -6.0150 C   0  0  0  0  0  0  0  0  0  0  0  0
  -95.6501   29.1564   -5.8605 C   0  0  0  0  0  0  0  0  0  0  0  0
  -95.8429   27.9689   -5.2134 N   0  0  0  0  0  0  0  0  0  0  0  0
  -94.8199   27.2659   -4.6977 C   0  0  0  0  0  0  0  0  0  0  0  0
  -95.0598   26.0533   -4.0414 C   0  0  0  0  0  0  0  0  0  0  0  0
  -94.0123   25.3446   -3.5193 C   0  0  0  0  0  0  0  0  0  0  0  0
  -92.7402   25.8370   -3.6486 C   0  0  0  0  0  0  0  0  0  0  0  0
  -92.5148   27.0399   -4.3013 C   0  0  0  0  0  0  0  0  0  0  0  0
  -93.5492   27.7767   -4.8377 C   0  0  0  0  0  0  0  0  0  0  0  0
  -93.3266   28.9925   -5.4973 C   0  0  0  0  0  0  0  0  0  0  0  0
  -93.1760   33.1073   -7.0032 C   0  0  0  0  0  0  0  0  0  0  0  0
  -93.9897   33.3343   -8.0838 C   0  0  0  0  0  0  0  0  0  0  0  0
  -94.9288   32.4016   -8.5003 C   0  0  0  0  0  0  0  0  0  0  0  0
  -95.0368   31.2338   -7.8108 C   0  0  0  0  0  0  0  0  0  0  0  0
  -94.2326   30.9777   -6.7208 C   0  0  0  0  0  0  0  0  0  0  0  0
  -93.3225   31.9064   -6.3341 C   0  0  0  0  0  0  0  0  0  0  0  0
  -89.8031   35.2127   -6.1575 N   0  0  0  0  0  0  0  0  0  0  0  0
  -90.3339   35.3789   -7.4933 C   0  0  0  0  0  0  0  0  0  0  0  0
  -91.8090   35.0698   -7.5655 C   0  0  0  0  0  0  0  0  0  0  0  0
  -92.2138   34.0706   -6.6094 N   0  0  0  0  0  0  0  0  0  0  0  0
  -91.6751   34.0526   -5.2736 C   0  0  0  0  0  0  0  0  0  0  0  0
  -90.1553   34.0126   -5.4187 C   0  0  0  0  0  0  0  0  0  0  0  0
  -89.4067   37.0845   -4.6115 C   0  0  0  0  0  0  0  0  0  0  0  0
  -88.4380   37.9433   -3.9877 C   0  0  0  0  0  0  0  0  0  0  0  0
  -87.1317   37.8595   -4.2744 C   0  0  0  0  0  0  0  0  0  0  0  0
  -86.6886   36.9453   -5.1767 C   0  0  0  0  0  0  0  0  0  0  0  0
  -87.5884   36.1110   -5.7879 C   0  0  0  0  0  0  0  0  0  0  0  0
  -88.9653   36.1594   -5.5202 C   0  0  0  0  0  0  0  0  0  0  0  0
  -90.6680   37.2626   -4.2538 O   0  0  0  0  0  0  0  0  0  0  0  0
  -92.0474   38.3301   -5.9119 C   0  0  0  0  0  0  0  0  0  0  0  0
  -91.8261   37.8203   -4.4699 C   0  0  0  0  0  0  0  0  0  0  0  0
  -91.9826   39.1093   -3.6067 C   0  0  0  0  0  0  0  0  0  0  0  0
  -94.2163   24.0534   -2.8154 C   0  0  0  0  0  0  0  0  0  0  0  0
  -95.0854   23.1129   -3.3192 C   0  0  0  0  0  0  0  0  0  0  0  0
  -94.9482   21.8613   -2.1671 S   0  0  0  0  0  0  0  0  0  0  0  0
  -93.8103   22.5975   -1.1279 C   0  0  0  0  0  0  0  0  0  0  0  0
  -93.5973   23.7583   -1.7172 N   0  0  0  0  0  0  0  0  0  0  0  0
  -93.2085   22.0806    0.1172 C   0  0  0  0  0  0  0  0  0  0  0  0
  -93.6916   22.4578    1.1977 O   0  0  0  0  0  0  0  0  0  0  0  0
  -92.1274   21.1946    0.0222 N   0  0  0  0  0  0  0  0  0  0  0  0
  -91.7558   20.9057   -0.9037 H   0  0  0  0  0  0  0  0  0  0  0  0
  -91.5032   20.6609    1.2137 C   0  0  0  0  0  0  0  0  0  0  0  0
  -90.4030   21.5896    1.6977 C   0  0  0  0  0  0  0  0  0  0  0  0
  -89.4023   20.9042    2.3806 O   0  0  0  0  0  0  0  0  0  0  0  0
  -89.3031   21.1992    3.3187 H   0  0  0  0  0  0  0  0  0  0  0  0
  -89.7633   22.3287    0.5548 C   0  0  0  0  0  0  0  0  0  0  0  0
  -88.8895   21.4449   -0.1672 N   0  0  0  0  0  0  0  0  0  0  0  0
  -88.4973   20.6991    0.4329 H   0  0  0  0  0  0  0  0  0  0  0  0
  -89.3575   21.0609   -1.0388 H   0  0  0  0  0  0  0  0  0  0  0  0
 30 31  1  0  0  0
 31 32  1  0  0  0
 31 29  1  0  0  0
 29 23  1  0  0  0
 23 24  2  0  0  0
 24 25  1  0  0  0
 25 26  2  0  0  0
 26 27  1  0  0  0
 27 28  2  0  0  0
 28 17  1  0  0  0
 17 18  1  0  0  0
 18 19  1  0  0  0
 19 20  1  0  0  0
 20 21  1  0  0  0
 21 22  1  0  0  0
 20 11  1  0  0  0
 11 12  2  0  0  0
 12 13  1  0  0  0
 13 14  2  0  0  0
 14 15  1  0  0  0
 15 16  2  0  0  0
 15  1  1  0  0  0
  1  2  2  0  0  0
  2  3  1  0  0  0
  3  4  2  0  0  0
  4  5  1  0  0  0
  5  6  2  0  0  0
  6  7  1  0  0  0
  7  8  2  0  0  0
  8  9  1  0  0  0
  9 10  2  0  0  0
  6 33  1  0  0  0
 33 34  2  0  0  0
 34 35  1  0  0  0
 35 36  1  0  0  0
 36 38  1  0  0  0
 38 39  2  0  0  0
 38 40  1  0  0  0
 40 42  1  0  0  0
 42 43  1  0  0  0
 43 44  1  0  0  0
 43 46  1  0  0  0
 46 47  1  0  0  0
 36 37  2  0  0  0
 28 23  1  0  0  0
 22 17  1  0  0  0
 16 11  1  0  0  0
 10  1  1  0  0  0
 37 33  1  0  0  0
  9  4  1  0  0  0
 40 41  1  0  0  0
 44 45  1  0  0  0
 47 48  1  0  0  0
 47 49  1  0  0  0
M  END
> <minimizedAffinity>
-6.32420

> <CNNscore>
0.1195605695

> <CNNaffinity>
5.7292218208

> <CNN_VS>
0.6849890351

> <CNNaffinity_variance>
0.1521738321

$$$$
[H]O[C@@]([H])(C([H])([H])N([H])[H])C([H])([H])N([H])C(=O)c1nc(-c2c([H])c([H])c3c([H])c(-c4c([H])c([H])c([H])c(N5C([H])([H])C([H])([H])N(c6c([H])c([H])c([H])c([H])c6OC([H])(C([H])([H])[H])C([H])([H])[H])C([H])([H])C5([H])[H])c4[H])c([H])nc3c2[H])c([H])s1


 49 54  0  0  0  0  0  0  0  0999 V2000
  -87.6930   29.5412   -1.7424 C   0  0  0  0  0  0  0  0  0  0  0  0
  -87.9446   29.3389   -3.0785 C   0  0  0  0  0  0  0  0  0  0  0  0
  -88.0214   30.3851   -3.9535 N   0  0  0  0  0  0  0  0  0  0  0  0
  -87.8560   31.6583   -3.5557 C   0  0  0  0  0  0  0  0  0  0  0  0
  -87.9418   32.7022   -4.4840 C   0  0  0  0  0  0  0  0  0  0  0  0
  -87.7718   33.9951   -4.0701 C   0  0  0  0  0  0  0  0  0  0  0  0
  -87.5190   34.2468   -2.7471 C   0  0  0  0  0  0  0  0  0  0  0  0
  -87.4363   33.2040   -1.8363 C   0  0  0  0  0  0  0  0  0  0  0  0
  -87.6029   31.8912   -2.2227 C   0  0  0  0  0  0  0  0  0  0  0  0
  -87.5196   30.8346   -1.3065 C   0  0  0  0  0  0  0  0  0  0  0  0
  -88.3998   26.2508   -0.0677 C   0  0  0  0  0  0  0  0  0  0  0  0
  -87.4093   26.2615    0.8810 C   0  0  0  0  0  0  0  0  0  0  0  0
  -86.5144   27.3162    0.9915 C   0  0  0  0  0  0  0  0  0  0  0  0
  -86.6321   28.3629    0.1303 C   0  0  0  0  0  0  0  0  0  0  0  0
  -87.6178   28.3799   -0.8335 C   0  0  0  0  0  0  0  0  0  0  0  0
  -88.4800   27.3362   -0.9201 C   0  0  0  0  0  0  0  0  0  0  0  0
  -91.5934   23.7757   -0.5142 N   0  0  0  0  0  0  0  0  0  0  0  0
  -90.8699   24.0988   -1.7248 C   0  0  0  0  0  0  0  0  0  0  0  0
  -89.4438   24.5066   -1.4476 C   0  0  0  0  0  0  0  0  0  0  0  0
  -89.2902   25.1526   -0.1689 N   0  0  0  0  0  0  0  0  0  0  0  0
  -90.0046   24.6897    0.9932 C   0  0  0  0  0  0  0  0  0  0  0  0
  -91.4850   24.6800    0.6175 C   0  0  0  0  0  0  0  0  0  0  0  0
  -91.9888   21.4827    0.2838 C   0  0  0  0  0  0  0  0  0  0  0  0
  -92.9290   20.4053    0.4263 C   0  0  0  0  0  0  0  0  0  0  0  0
  -94.1769   20.4891   -0.0546 C   0  0  0  0  0  0  0  0  0  0  0  0
  -94.5860   21.6136   -0.6981 C   0  0  0  0  0  0  0  0  0  0  0  0
  -93.7123   22.6592   -0.8489 C   0  0  0  0  0  0  0  0  0  0  0  0
  -92.3966   22.6197   -0.3621 C   0  0  0  0  0  0  0  0  0  0  0  0
  -90.7843   21.2840    0.7939 O   0  0  0  0  0  0  0  0  0  0  0  0
  -90.2845   19.3689    2.1628 C   0  0  0  0  0  0  0  0  0  0  0  0
  -90.0385   20.8424    1.7674 C   0  0  0  0  0  0  0  0  0  0  0  0
  -90.3393   21.6213    3.0842 C   0  0  0  0  0  0  0  0  0  0  0  0
  -87.8545   35.1358   -5.0168 C   0  0  0  0  0  0  0  0  0  0  0  0
  -86.9279   36.1521   -4.9688 C   0  0  0  0  0  0  0  0  0  0  0  0
  -87.4645   37.1707   -6.2287 S   0  0  0  0  0  0  0  0  0  0  0  0
  -88.8160   36.2572   -6.7344 C   0  0  0  0  0  0  0  0  0  0  0  0
  -88.7837   35.2247   -5.9141 N   0  0  0  0  0  0  0  0  0  0  0  0
  -89.7845   36.5377   -7.8128 C   0  0  0  0  0  0  0  0  0  0  0  0
  -89.8392   37.6955   -8.2597 O   0  0  0  0  0  0  0  0  0  0  0  0
  -90.5914   35.4914   -8.2785 N   0  0  0  0  0  0  0  0  0  0  0  0
  -90.5113   34.5375   -7.8755 H   0  0  0  0  0  0  0  0  0  0  0  0
  -91.5561   35.7162   -9.3335 C   0  0  0  0  0  0  0  0  0  0  0  0
  -92.6487   34.6621   -9.2868 C   0  0  0  0  0  0  0  0  0  0  0  0
  -92.2848   33.5009   -9.9627 O   0  0  0  0  0  0  0  0  0  0  0  0
  -92.8823   33.2924  -10.7219 H   0  0  0  0  0  0  0  0  0  0  0  0
  -92.9930   34.2876   -7.8716 C   0  0  0  0  0  0  0  0  0  0  0  0
  -92.4584   32.9882   -7.5688 N   0  0  0  0  0  0  0  0  0  0  0  0
  -92.3837   32.3862   -8.4068 H   0  0  0  0  0  0  0  0  0  0  0  0
  -91.5433   33.0581   -7.0359 H   0  0  0  0  0  0  0  0  0  0  0  0
 30 31  1  0  0  0
 31 32  1  0  0  0
 31 29  1  0  0  0
 29 23  1  0  0  0
 23 24  2  0  0  0
 24 25  1  0  0  0
 25 26  2  0  0  0
 26 27  1  0  0  0
 27 28  2  0  0  0
 28 17  1  0  0  0
 17 18  1  0  0  0
 18 19  1  0  0  0
 19 20  1  0  0  0
 20 21  1  0  0  0
 21 22  1  0  0  0
 20 11  1  0  0  0
 11 12  2  0  0  0
 12 13  1  0  0  0
 13 14  2  0  0  0
 14 15  1  0  0  0
 15 16  2  0  0  0
 15  1  1  0  0  0
  1  2  2  0  0  0
  2  3  1  0  0  0
  3  4  2  0  0  0
  4  5  1  0  0  0
  5  6  2  0  0  0
  6  7  1  0  0  0
  7  8  2  0  0  0
  8  9  1  0  0  0
  9 10  2  0  0  0
  6 33  1  0  0  0
 33 34  2  0  0  0
 34 35  1  0  0  0
 35 36  1  0  0  0
 36 38  1  0  0  0
 38 39  2  0  0  0
 38 40  1  0  0  0
 40 42  1  0  0  0
 42 43  1  0  0  0
 43 44  1  0  0  0
 43 46  1  0  0  0
 46 47  1  0  0  0
 36 37  2  0  0  0
 28 23  1  0  0  0
 22 17  1  0  0  0
 16 11  1  0  0  0
 10  1  1  0  0  0
 37 33  1  0  0  0
  9  4  1  0  0  0
 40 41  1  0  0  0
 44 45  1  0  0  0
 47 48  1  0  0  0
 47 49  1  0  0  0
M  END
> <minimizedAffinity>
-8.36238

> <CNNscore>
0.1152951345

> <CNNaffinity>
5.9257483482

> <CNN_VS>
0.6832099557

> <CNNaffinity_variance>
0.5012370348

$$$$
[H]O[C@@]([H])(C([H])([H])N([H])[H])C([H])([H])N([H])C(=O)c1nc(-c2c([H])c([H])c3c([H])c(-c4c([H])c([H])c([H])c(N5C([H])([H])C([H])([H])N(c6c([H])c([H])c([H])c([H])c6OC([H])(C([H])([H])[H])C([H])([H])[H])C([H])([H])C5([H])[H])c4[H])c([H])nc3c2[H])c([H])s1


 49 54  0  0  0  0  0  0  0  0999 V2000
  -86.9297   30.7623   -0.2434 C   0  0  0  0  0  0  0  0  0  0  0  0
  -85.7811   31.5170   -0.2625 C   0  0  0  0  0  0  0  0  0  0  0  0
  -85.7225   32.7051   -0.9341 N   0  0  0  0  0  0  0  0  0  0  0  0
  -86.7784   33.1945   -1.6067 C   0  0  0  0  0  0  0  0  0  0  0  0
  -86.6776   34.4163   -2.2818 C   0  0  0  0  0  0  0  0  0  0  0  0
  -87.7577   34.9068   -2.9635 C   0  0  0  0  0  0  0  0  0  0  0  0
  -88.9253   34.1897   -2.9734 C   0  0  0  0  0  0  0  0  0  0  0  0
  -89.0131   32.9799   -2.3007 C   0  0  0  0  0  0  0  0  0  0  0  0
  -87.9426   32.4597   -1.6051 C   0  0  0  0  0  0  0  0  0  0  0  0
  -88.0267   31.2385   -0.9237 C   0  0  0  0  0  0  0  0  0  0  0  0
  -87.9997   27.4277    1.1229 C   0  0  0  0  0  0  0  0  0  0  0  0
  -86.9016   27.1341    1.8906 C   0  0  0  0  0  0  0  0  0  0  0  0
  -85.8182   27.9967    1.9768 C   0  0  0  0  0  0  0  0  0  0  0  0
  -85.8569   29.1626    1.2767 C   0  0  0  0  0  0  0  0  0  0  0  0
  -86.9471   29.4847    0.4968 C   0  0  0  0  0  0  0  0  0  0  0  0
  -87.9934   28.6239    0.4299 C   0  0  0  0  0  0  0  0  0  0  0  0
  -90.4365   24.1773    0.9772 N   0  0  0  0  0  0  0  0  0  0  0  0
  -90.1809   24.7172    2.2950 C   0  0  0  0  0  0  0  0  0  0  0  0
  -89.7859   26.1728    2.2504 C   0  0  0  0  0  0  0  0  0  0  0  0
  -89.0857   26.5207    1.0400 N   0  0  0  0  0  0  0  0  0  0  0  0
  -89.4834   25.9811   -0.2351 C   0  0  0  0  0  0  0  0  0  0  0  0
  -89.4842   24.4615   -0.0824 C   0  0  0  0  0  0  0  0  0  0  0  0
  -91.6032   22.0260    0.7290 C   0  0  0  0  0  0  0  0  0  0  0  0
  -92.8412   21.3570    0.4374 C   0  0  0  0  0  0  0  0  0  0  0  0
  -93.9464   22.0340    0.0972 C   0  0  0  0  0  0  0  0  0  0  0  0
  -93.9189   23.3902    0.0192 C   0  0  0  0  0  0  0  0  0  0  0  0
  -92.7529   24.0572    0.2927 C   0  0  0  0  0  0  0  0  0  0  0  0
  -91.5704   23.3934    0.6542 C   0  0  0  0  0  0  0  0  0  0  0  0
  -90.5777   21.2534    1.0482 O   0  0  0  0  0  0  0  0  0  0  0  0
  -90.4737   19.1248    2.1661 C   0  0  0  0  0  0  0  0  0  0  0  0
  -89.9358   20.5562    1.9431 C   0  0  0  0  0  0  0  0  0  0  0  0
  -90.0725   21.2131    3.3505 C   0  0  0  0  0  0  0  0  0  0  0  0
  -87.6994   36.1973   -3.6953 C   0  0  0  0  0  0  0  0  0  0  0  0
  -88.6830   37.1440   -3.5216 C   0  0  0  0  0  0  0  0  0  0  0  0
  -88.1504   38.3918   -4.5569 S   0  0  0  0  0  0  0  0  0  0  0  0
  -86.7291   37.6465   -5.1412 C   0  0  0  0  0  0  0  0  0  0  0  0
  -86.7387   36.4861   -4.5139 N   0  0  0  0  0  0  0  0  0  0  0  0
  -85.7328   38.1568   -6.1038 C   0  0  0  0  0  0  0  0  0  0  0  0
  -86.0008   38.0810   -7.3144 O   0  0  0  0  0  0  0  0  0  0  0  0
  -84.5392   38.6990   -5.6097 N   0  0  0  0  0  0  0  0  0  0  0  0
  -84.3572   38.7426   -4.5880 H   0  0  0  0  0  0  0  0  0  0  0  0
  -83.5315   39.2116   -6.5128 C   0  0  0  0  0  0  0  0  0  0  0  0
  -82.2113   38.4917   -6.2985 C   0  0  0  0  0  0  0  0  0  0  0  0
  -81.2268   38.9307   -7.1793 O   0  0  0  0  0  0  0  0  0  0  0  0
  -80.8882   38.2133   -7.7689 H   0  0  0  0  0  0  0  0  0  0  0  0
  -81.7003   38.6833   -4.8973 C   0  0  0  0  0  0  0  0  0  0  0  0
  -80.3539   38.1898   -4.7991 N   0  0  0  0  0  0  0  0  0  0  0  0
  -80.1639   37.4233   -5.4672 H   0  0  0  0  0  0  0  0  0  0  0  0
  -79.6447   38.9761   -4.8706 H   0  0  0  0  0  0  0  0  0  0  0  0
 30 31  1  0  0  0
 31 32  1  0  0  0
 31 29  1  0  0  0
 29 23  1  0  0  0
 23 24  2  0  0  0
 24 25  1  0  0  0
 25 26  2  0  0  0
 26 27  1  0  0  0
 27 28  2  0  0  0
 28 17  1  0  0  0
 17 18  1  0  0  0
 18 19  1  0  0  0
 19 20  1  0  0  0
 20 21  1  0  0  0
 21 22  1  0  0  0
 20 11  1  0  0  0
 11 12  2  0  0  0
 12 13  1  0  0  0
 13 14  2  0  0  0
 14 15  1  0  0  0
 15 16  2  0  0  0
 15  1  1  0  0  0
  1  2  2  0  0  0
  2  3  1  0  0  0
  3  4  2  0  0  0
  4  5  1  0  0  0
  5  6  2  0  0  0
  6  7  1  0  0  0
  7  8  2  0  0  0
  8  9  1  0  0  0
  9 10  2  0  0  0
  6 33  1  0  0  0
 33 34  2  0  0  0
 34 35  1  0  0  0
 35 36  1  0  0  0
 36 38  1  0  0  0
 38 39  2  0  0  0
 38 40  1  0  0  0
 40 42  1  0  0  0
 42 43  1  0  0  0
 43 44  1  0  0  0
 43 46  1  0  0  0
 46 47  1  0  0  0
 36 37  2  0  0  0
 28 23  1  0  0  0
 22 17  1  0  0  0
 16 11  1  0  0  0
 10  1  1  0  0  0
 37 33  1  0  0  0
  9  4  1  0  0  0
 40 41  1  0  0  0
 44 45  1  0  0  0
 47 48  1  0  0  0
 47 49  1  0  0  0
M  END
> <minimizedAffinity>
-9.92180

> <CNNscore>
0.1087388024

> <CNNaffinity>
6.3300294876

> <CNN_VS>
0.6883198023

> <CNNaffinity_variance>
0.2523658574

$$$$
[H]O[C@@]([H])(C([H])([H])N([H])[H])C([H])([H])N([H])C(=O)c1nc(-c2c([H])c([H])c3c([H])c(-c4c([H])c([H])c([H])c(N5C([H])([H])C([H])([H])N(c6c([H])c([H])c([H])c([H])c6OC([H])(C([H])([H])[H])C([H])([H])[H])C([H])([H])C5([H])[H])c4[H])c([H])nc3c2[H])c([H])s1


 49 54  0  0  0  0  0  0  0  0999 V2000
  -94.0323   29.4924   -5.6958 C   0  0  0  0  0  0  0  0  0  0  0  0
  -95.2141   28.7952   -5.7788 C   0  0  0  0  0  0  0  0  0  0  0  0
  -95.3336   27.5356   -5.2639 N   0  0  0  0  0  0  0  0  0  0  0  0
  -94.3084   26.9168   -4.6533 C   0  0  0  0  0  0  0  0  0  0  0  0
  -94.4720   25.6257   -4.1385 C   0  0  0  0  0  0  0  0  0  0  0  0
  -93.4229   25.0037   -3.5183 C   0  0  0  0  0  0  0  0  0  0  0  0
  -92.2243   25.6590   -3.4115 C   0  0  0  0  0  0  0  0  0  0  0  0
  -92.0742   26.9383   -3.9258 C   0  0  0  0  0  0  0  0  0  0  0  0
  -93.1122   27.5912   -4.5558 C   0  0  0  0  0  0  0  0  0  0  0  0
  -92.9655   28.8836   -5.0763 C   0  0  0  0  0  0  0  0  0  0  0  0
  -92.8504   32.9625   -6.5280 C   0  0  0  0  0  0  0  0  0  0  0  0
  -93.8633   33.3523   -7.3666 C   0  0  0  0  0  0  0  0  0  0  0  0
  -94.9260   32.5128   -7.6688 C   0  0  0  0  0  0  0  0  0  0  0  0
  -94.9537   31.2715   -7.1124 C   0  0  0  0  0  0  0  0  0  0  0  0
  -93.9497   30.8521   -6.2658 C   0  0  0  0  0  0  0  0  0  0  0  0
  -92.9221   31.6925   -5.9867 C   0  0  0  0  0  0  0  0  0  0  0  0
  -90.3213   36.1155   -6.0953 N   0  0  0  0  0  0  0  0  0  0  0  0
  -91.2153   35.8651   -4.9854 C   0  0  0  0  0  0  0  0  0  0  0  0
  -91.6848   34.4318   -4.9409 C   0  0  0  0  0  0  0  0  0  0  0  0
  -91.7683   33.8346   -6.2496 N   0  0  0  0  0  0  0  0  0  0  0  0
  -90.7696   34.0940   -7.2547 C   0  0  0  0  0  0  0  0  0  0  0  0
  -90.6905   35.6116   -7.4068 C   0  0  0  0  0  0  0  0  0  0  0  0
  -87.9109   36.2327   -5.6190 C   0  0  0  0  0  0  0  0  0  0  0  0
  -86.7274   37.0476   -5.6029 C   0  0  0  0  0  0  0  0  0  0  0  0
  -86.7613   38.3481   -5.9244 C   0  0  0  0  0  0  0  0  0  0  0  0
  -87.9355   38.9330   -6.2780 C   0  0  0  0  0  0  0  0  0  0  0  0
  -89.0817   38.1814   -6.3039 C   0  0  0  0  0  0  0  0  0  0  0  0
  -89.0971   36.8166   -5.9770 C   0  0  0  0  0  0  0  0  0  0  0  0
  -87.7563   34.9637   -5.2777 O   0  0  0  0  0  0  0  0  0  0  0  0
  -88.4330   32.7307   -4.6886 C   0  0  0  0  0  0  0  0  0  0  0  0
  -87.7064   34.0514   -4.3482 C   0  0  0  0  0  0  0  0  0  0  0  0
  -88.4378   34.5407   -3.0611 C   0  0  0  0  0  0  0  0  0  0  0  0
  -93.5474   23.6348   -2.9573 C   0  0  0  0  0  0  0  0  0  0  0  0
  -94.0699   22.6133   -3.7170 C   0  0  0  0  0  0  0  0  0  0  0  0
  -93.9892   21.2979   -2.6326 S   0  0  0  0  0  0  0  0  0  0  0  0
  -93.3058   22.1131   -1.2964 C   0  0  0  0  0  0  0  0  0  0  0  0
  -93.1765   23.3446   -1.7512 N   0  0  0  0  0  0  0  0  0  0  0  0
  -92.9458   21.5883    0.0357 C   0  0  0  0  0  0  0  0  0  0  0  0
  -93.6743   21.8885    0.9961 O   0  0  0  0  0  0  0  0  0  0  0  0
  -91.8065   20.7815    0.1534 N   0  0  0  0  0  0  0  0  0  0  0  0
  -91.2262   20.5556   -0.6778 H   0  0  0  0  0  0  0  0  0  0  0  0
  -91.4120   20.2436    1.4376 C   0  0  0  0  0  0  0  0  0  0  0  0
  -90.4199   21.1703    2.1188 C   0  0  0  0  0  0  0  0  0  0  0  0
  -91.0535   22.1293    2.9040 O   0  0  0  0  0  0  0  0  0  0  0  0
  -90.8699   23.0541    2.6075 H   0  0  0  0  0  0  0  0  0  0  0  0
  -89.4663   20.4074    2.9963 C   0  0  0  0  0  0  0  0  0  0  0  0
  -88.2606   20.1194    2.2687 N   0  0  0  0  0  0  0  0  0  0  0  0
  -88.4232   20.0375    1.2504 H   0  0  0  0  0  0  0  0  0  0  0  0
  -87.4900   20.8106    2.5027 H   0  0  0  0  0  0  0  0  0  0  0  0
 30 31  1  0  0  0
 31 32  1  0  0  0
 31 29  1  0  0  0
 29 23  1  0  0  0
 23 24  2  0  0  0
 24 25  1  0  0  0
 25 26  2  0  0  0
 26 27  1  0  0  0
 27 28  2  0  0  0
 28 17  1  0  0  0
 17 18  1  0  0  0
 18 19  1  0  0  0
 19 20  1  0  0  0
 20 21  1  0  0  0
 21 22  1  0  0  0
 20 11  1  0  0  0
 11 12  2  0  0  0
 12 13  1  0  0  0
 13 14  2  0  0  0
 14 15  1  0  0  0
 15 16  2  0  0  0
 15  1  1  0  0  0
  1  2  2  0  0  0
  2  3  1  0  0  0
  3  4  2  0  0  0
  4  5  1  0  0  0
  5  6  2  0  0  0
  6  7  1  0  0  0
  7  8  2  0  0  0
  8  9  1  0  0  0
  9 10  2  0  0  0
  6 33  1  0  0  0
 33 34  2  0  0  0
 34 35  1  0  0  0
 35 36  1  0  0  0
 36 38  1  0  0  0
 38 39  2  0  0  0
 38 40  1  0  0  0
 40 42  1  0  0  0
 42 43  1  0  0  0
 43 44  1  0  0  0
 43 46  1  0  0  0
 46 47  1  0  0  0
 36 37  2  0  0  0
 28 23  1  0  0  0
 22 17  1  0  0  0
 16 11  1  0  0  0
 10  1  1  0  0  0
 37 33  1  0  0  0
  9  4  1  0  0  0
 40 41  1  0  0  0
 44 45  1  0  0  0
 47 48  1  0  0  0
 47 49  1  0  0  0
M  END
> <minimizedAffinity>
-6.63084

> <CNNscore>
0.1073506027

> <CNNaffinity>
5.8549375534

> <CNN_VS>
0.6285310984

> <CNNaffinity_variance>
0.1401522905

$$$$
[H]O[C@@]([H])(C([H])([H])N([H])[H])C([H])([H])N([H])C(=O)c1nc(-c2c([H])c([H])c3c([H])c(-c4c([H])c([H])c([H])c(N5C([H])([H])C([H])([H])N(c6c([H])c([H])c([H])c([H])c6OC([H])(C([H])([H])[H])C([H])([H])[H])C([H])([H])C5([H])[H])c4[H])c([H])nc3c2[H])c([H])s1


 49 54  0  0  0  0  0  0  0  0999 V2000
  -89.3094   31.6086   -2.2965 C   0  0  0  0  0  0  0  0  0  0  0  0
  -89.8359   32.0243   -1.0968 C   0  0  0  0  0  0  0  0  0  0  0  0
  -89.9816   31.1615   -0.0477 N   0  0  0  0  0  0  0  0  0  0  0  0
  -89.6200   29.8698   -0.1338 C   0  0  0  0  0  0  0  0  0  0  0  0
  -89.7852   29.0183    0.9645 C   0  0  0  0  0  0  0  0  0  0  0  0
  -89.4140   27.7050    0.8677 C   0  0  0  0  0  0  0  0  0  0  0  0
  -88.8842   27.2439   -0.3088 C   0  0  0  0  0  0  0  0  0  0  0  0
  -88.7253   28.0973   -1.3906 C   0  0  0  0  0  0  0  0  0  0  0  0
  -89.0897   29.4253   -1.3240 C   0  0  0  0  0  0  0  0  0  0  0  0
  -88.9306   30.2912   -2.4137 C   0  0  0  0  0  0  0  0  0  0  0  0
  -90.0934   33.9135   -5.1607 C   0  0  0  0  0  0  0  0  0  0  0  0
  -88.8312   34.3773   -5.4309 C   0  0  0  0  0  0  0  0  0  0  0  0
  -87.7268   33.9571   -4.7034 C   0  0  0  0  0  0  0  0  0  0  0  0
  -87.9127   33.0605   -3.6972 C   0  0  0  0  0  0  0  0  0  0  0  0
  -89.1696   32.5767   -3.4027 C   0  0  0  0  0  0  0  0  0  0  0  0
  -90.2326   33.0036   -4.1293 C   0  0  0  0  0  0  0  0  0  0  0  0
  -93.4751   34.3086   -7.3816 N   0  0  0  0  0  0  0  0  0  0  0  0
  -93.6595   34.2912   -5.9467 C   0  0  0  0  0  0  0  0  0  0  0  0
  -92.4157   34.7142   -5.2046 C   0  0  0  0  0  0  0  0  0  0  0  0
  -91.2062   34.3722   -5.9091 N   0  0  0  0  0  0  0  0  0  0  0  0
  -91.1107   34.5082   -7.3400 C   0  0  0  0  0  0  0  0  0  0  0  0
  -92.2709   33.7094   -7.9305 C   0  0  0  0  0  0  0  0  0  0  0  0
  -95.4184   34.1970   -8.8856 C   0  0  0  0  0  0  0  0  0  0  0  0
  -96.3256   34.9215   -9.7326 C   0  0  0  0  0  0  0  0  0  0  0  0
  -96.1934   36.2377   -9.9462 C   0  0  0  0  0  0  0  0  0  0  0  0
  -95.1812   36.9263   -9.3566 C   0  0  0  0  0  0  0  0  0  0  0  0
  -94.3001   36.2632   -8.5422 C   0  0  0  0  0  0  0  0  0  0  0  0
  -94.3975   34.8867   -8.2868 C   0  0  0  0  0  0  0  0  0  0  0  0
  -95.6450   32.9002   -8.7536 O   0  0  0  0  0  0  0  0  0  0  0  0
  -96.0991   30.5372   -8.7161 C   0  0  0  0  0  0  0  0  0  0  0  0
  -95.5870   31.8210   -8.0250 C   0  0  0  0  0  0  0  0  0  0  0  0
  -96.5150   31.9511   -6.7789 C   0  0  0  0  0  0  0  0  0  0  0  0
  -89.5705   26.7631    2.0046 C   0  0  0  0  0  0  0  0  0  0  0  0
  -89.2253   27.1451    3.2809 C   0  0  0  0  0  0  0  0  0  0  0  0
  -89.5910   25.7382    4.1751 S   0  0  0  0  0  0  0  0  0  0  0  0
  -90.1529   24.7615    2.8917 C   0  0  0  0  0  0  0  0  0  0  0  0
  -90.0308   25.5627    1.8509 N   0  0  0  0  0  0  0  0  0  0  0  0
  -90.6513   23.3722    2.9219 C   0  0  0  0  0  0  0  0  0  0  0  0
  -91.8537   23.1794    2.6767 O   0  0  0  0  0  0  0  0  0  0  0  0
  -89.7502   22.3428    3.2240 N   0  0  0  0  0  0  0  0  0  0  0  0
  -88.7520   22.5504    3.4223 H   0  0  0  0  0  0  0  0  0  0  0  0
  -90.1904   20.9650    3.2665 C   0  0  0  0  0  0  0  0  0  0  0  0
  -89.2090   20.0714    2.5278 C   0  0  0  0  0  0  0  0  0  0  0  0
  -88.8585   20.5935    1.2859 O   0  0  0  0  0  0  0  0  0  0  0  0
  -89.1091   20.0030    0.5340 H   0  0  0  0  0  0  0  0  0  0  0  0
  -87.9467   19.8670    3.3191 C   0  0  0  0  0  0  0  0  0  0  0  0
  -88.2583   19.7903    4.7202 N   0  0  0  0  0  0  0  0  0  0  0  0
  -89.1068   20.3282    4.9666 H   0  0  0  0  0  0  0  0  0  0  0  0
  -88.3037   18.7841    5.0545 H   0  0  0  0  0  0  0  0  0  0  0  0
 30 31  1  0  0  0
 31 32  1  0  0  0
 31 29  1  0  0  0
 29 23  1  0  0  0
 23 24  2  0  0  0
 24 25  1  0  0  0
 25 26  2  0  0  0
 26 27  1  0  0  0
 27 28  2  0  0  0
 28 17  1  0  0  0
 17 18  1  0  0  0
 18 19  1  0  0  0
 19 20  1  0  0  0
 20 21  1  0  0  0
 21 22  1  0  0  0
 20 11  1  0  0  0
 11 12  2  0  0  0
 12 13  1  0  0  0
 13 14  2  0  0  0
 14 15  1  0  0  0
 15 16  2  0  0  0
 15  1  1  0  0  0
  1  2  2  0  0  0
  2  3  1  0  0  0
  3  4  2  0  0  0
  4  5  1  0  0  0
  5  6  2  0  0  0
  6  7  1  0  0  0
  7  8  2  0  0  0
  8  9  1  0  0  0
  9 10  2  0  0  0
  6 33  1  0  0  0
 33 34  2  0  0  0
 34 35  1  0  0  0
 35 36  1  0  0  0
 36 38  1  0  0  0
 38 39  2  0  0  0
 38 40  1  0  0  0
 40 42  1  0  0  0
 42 43  1  0  0  0
 43 44  1  0  0  0
 43 46  1  0  0  0
 46 47  1  0  0  0
 36 37  2  0  0  0
 28 23  1  0  0  0
 22 17  1  0  0  0
 16 11  1  0  0  0
 10  1  1  0  0  0
 37 33  1  0  0  0
  9  4  1  0  0  0
 40 41  1  0  0  0
 44 45  1  0  0  0
 47 48  1  0  0  0
 47 49  1  0  0  0
M  END
> <minimizedAffinity>
-6.99182

> <CNNscore>
0.0914023668

> <CNNaffinity>
6.3429932594

> <CNN_VS>
0.5797646046

> <CNNaffinity_variance>
0.1178637743

$$$$
[H]O[C@@]([H])(C([H])([H])N([H])[H])C([H])([H])N([H])C(=O)c1nc(-c2c([H])c([H])c3c([H])c(-c4c([H])c([H])c([H])c(N5C([H])([H])C([H])([H])N(c6c([H])c([H])c([H])c([H])c6OC([H])(C([H])([H])[H])C([H])([H])[H])C([H])([H])C5([H])[H])c4[H])c([H])nc3c2[H])c([H])s1


 49 54  0  0  0  0  0  0  0  0999 V2000
  -87.8456   29.3034   -1.4300 C   0  0  0  0  0  0  0  0  0  0  0  0
  -87.9508   29.0822   -2.7826 C   0  0  0  0  0  0  0  0  0  0  0  0
  -87.9584   30.1178   -3.6734 N   0  0  0  0  0  0  0  0  0  0  0  0
  -87.8640   31.3984   -3.2760 C   0  0  0  0  0  0  0  0  0  0  0  0
  -87.8750   32.4308   -4.2207 C   0  0  0  0  0  0  0  0  0  0  0  0
  -87.7782   33.7314   -3.8069 C   0  0  0  0  0  0  0  0  0  0  0  0
  -87.6716   34.0018   -2.4679 C   0  0  0  0  0  0  0  0  0  0  0  0
  -87.6620   32.9701   -1.5409 C   0  0  0  0  0  0  0  0  0  0  0  0
  -87.7578   31.6500   -1.9266 C   0  0  0  0  0  0  0  0  0  0  0  0
  -87.7479   30.6046   -0.9941 C   0  0  0  0  0  0  0  0  0  0  0  0
  -88.7628   26.0977    0.3059 C   0  0  0  0  0  0  0  0  0  0  0  0
  -87.7596   26.0502    1.2399 C   0  0  0  0  0  0  0  0  0  0  0  0
  -86.7891   27.0387    1.3210 C   0  0  0  0  0  0  0  0  0  0  0  0
  -86.8440   28.0784    0.4453 C   0  0  0  0  0  0  0  0  0  0  0  0
  -87.8406   28.1530   -0.5043 C   0  0  0  0  0  0  0  0  0  0  0  0
  -88.7774   27.1735   -0.5621 C   0  0  0  0  0  0  0  0  0  0  0  0
  -90.8967   22.6490    0.5848 N   0  0  0  0  0  0  0  0  0  0  0  0
  -91.0768   23.5931    1.6663 C   0  0  0  0  0  0  0  0  0  0  0  0
  -90.7506   25.0069    1.2521 C   0  0  0  0  0  0  0  0  0  0  0  0
  -89.7319   25.0657    0.2348 N   0  0  0  0  0  0  0  0  0  0  0  0
  -89.6999   24.1151   -0.8470 C   0  0  0  0  0  0  0  0  0  0  0  0
  -89.6810   22.7287   -0.2064 C   0  0  0  0  0  0  0  0  0  0  0  0
  -92.9561   21.8847   -0.5223 C   0  0  0  0  0  0  0  0  0  0  0  0
  -93.8006   20.7695   -0.8516 C   0  0  0  0  0  0  0  0  0  0  0  0
  -93.5265   19.5276   -0.4295 C   0  0  0  0  0  0  0  0  0  0  0  0
  -92.4258   19.2931    0.3318 C   0  0  0  0  0  0  0  0  0  0  0  0
  -91.6000   20.3365    0.6617 C   0  0  0  0  0  0  0  0  0  0  0  0
  -91.8438   21.6537    0.2430 C   0  0  0  0  0  0  0  0  0  0  0  0
  -93.3299   23.0644   -0.9905 O   0  0  0  0  0  0  0  0  0  0  0  0
  -92.4776   23.5918   -3.1784 C   0  0  0  0  0  0  0  0  0  0  0  0
  -93.4155   23.8978   -1.9890 C   0  0  0  0  0  0  0  0  0  0  0  0
  -92.9786   25.3279   -1.5475 C   0  0  0  0  0  0  0  0  0  0  0  0
  -87.7862   34.8605   -4.7708 C   0  0  0  0  0  0  0  0  0  0  0  0
  -88.8434   35.0342   -5.6346 C   0  0  0  0  0  0  0  0  0  0  0  0
  -88.3648   36.4296   -6.4927 S   0  0  0  0  0  0  0  0  0  0  0  0
  -86.8702   36.7056   -5.7137 C   0  0  0  0  0  0  0  0  0  0  0  0
  -86.8183   35.7176   -4.8412 N   0  0  0  0  0  0  0  0  0  0  0  0
  -85.8770   37.7729   -5.9460 C   0  0  0  0  0  0  0  0  0  0  0  0
  -85.8058   38.2643   -7.0847 O   0  0  0  0  0  0  0  0  0  0  0  0
  -85.0663   38.1787   -4.8779 N   0  0  0  0  0  0  0  0  0  0  0  0
  -85.1607   37.7397   -3.9413 H   0  0  0  0  0  0  0  0  0  0  0  0
  -84.0777   39.2204   -5.0555 C   0  0  0  0  0  0  0  0  0  0  0  0
  -82.8089   38.6494   -5.6649 C   0  0  0  0  0  0  0  0  0  0  0  0
  -82.6776   38.9843   -7.0096 O   0  0  0  0  0  0  0  0  0  0  0  0
  -82.6586   38.1950   -7.6042 H   0  0  0  0  0  0  0  0  0  0  0  0
  -81.5831   39.1367   -4.9428 C   0  0  0  0  0  0  0  0  0  0  0  0
  -80.6059   38.0845   -4.8793 N   0  0  0  0  0  0  0  0  0  0  0  0
  -81.0368   37.1441   -4.8789 H   0  0  0  0  0  0  0  0  0  0  0  0
  -79.8676   38.1928   -5.6338 H   0  0  0  0  0  0  0  0  0  0  0  0
 30 31  1  0  0  0
 31 32  1  0  0  0
 31 29  1  0  0  0
 29 23  1  0  0  0
 23 24  2  0  0  0
 24 25  1  0  0  0
 25 26  2  0  0  0
 26 27  1  0  0  0
 27 28  2  0  0  0
 28 17  1  0  0  0
 17 18  1  0  0  0
 18 19  1  0  0  0
 19 20  1  0  0  0
 20 21  1  0  0  0
 21 22  1  0  0  0
 20 11  1  0  0  0
 11 12  2  0  0  0
 12 13  1  0  0  0
 13 14  2  0  0  0
 14 15  1  0  0  0
 15 16  2  0  0  0
 15  1  1  0  0  0
  1  2  2  0  0  0
  2  3  1  0  0  0
  3  4  2  0  0  0
  4  5  1  0  0  0
  5  6  2  0  0  0
  6  7  1  0  0  0
  7  8  2  0  0  0
  8  9  1  0  0  0
  9 10  2  0  0  0
  6 33  1  0  0  0
 33 34  2  0  0  0
 34 35  1  0  0  0
 35 36  1  0  0  0
 36 38  1  0  0  0
 38 39  2  0  0  0
 38 40  1  0  0  0
 40 42  1  0  0  0
 42 43  1  0  0  0
 43 44  1  0  0  0
 43 46  1  0  0  0
 46 47  1  0  0  0
 36 37  2  0  0  0
 28 23  1  0  0  0
 22 17  1  0  0  0
 16 11  1  0  0  0
 10  1  1  0  0  0
 37 33  1  0  0  0
  9  4  1  0  0  0
 40 41  1  0  0  0
 44 45  1  0  0  0
 47 48  1  0  0  0
 47 49  1  0  0  0
M  END
> <minimizedAffinity>
-9.20174

> <CNNscore>
0.0895810425

> <CNNaffinity>
5.7874355316

> <CNN_VS>
0.5184445381

> <CNNaffinity_variance>
1.2725874186

$$$$
[H]O[C@@]([H])(C([H])([H])N([H])[H])C([H])([H])N([H])C(=O)c1nc(-c2c([H])c([H])c3c([H])c(-c4c([H])c([H])c([H])c(N5C([H])([H])C([H])([H])N(c6c([H])c([H])c([H])c([H])c6OC([H])(C([H])([H])[H])C([H])([H])[H])C([H])([H])C5([H])[H])c4[H])c([H])nc3c2[H])c([H])s1


 49 54  0  0  0  0  0  0  0  0999 V2000
  -87.7900   29.4108   -1.5419 C   0  0  0  0  0  0  0  0  0  0  0  0
  -87.9760   29.1886   -2.8855 C   0  0  0  0  0  0  0  0  0  0  0  0
  -88.0315   30.2232   -3.7758 N   0  0  0  0  0  0  0  0  0  0  0  0
  -87.9079   31.5038   -3.3864 C   0  0  0  0  0  0  0  0  0  0  0  0
  -87.9700   32.5352   -4.3304 C   0  0  0  0  0  0  0  0  0  0  0  0
  -87.8429   33.8357   -3.9248 C   0  0  0  0  0  0  0  0  0  0  0  0
  -87.6560   34.1071   -2.5948 C   0  0  0  0  0  0  0  0  0  0  0  0
  -87.5963   33.0765   -1.6685 C   0  0  0  0  0  0  0  0  0  0  0  0
  -87.7209   31.7564   -2.0461 C   0  0  0  0  0  0  0  0  0  0  0  0
  -87.6606   30.7120   -1.1143 C   0  0  0  0  0  0  0  0  0  0  0  0
  -88.6179   26.2117    0.2503 C   0  0  0  0  0  0  0  0  0  0  0  0
  -87.5610   26.1603    1.1229 C   0  0  0  0  0  0  0  0  0  0  0  0
  -86.5825   27.1439    1.1445 C   0  0  0  0  0  0  0  0  0  0  0  0
  -86.6843   28.1829    0.2722 C   0  0  0  0  0  0  0  0  0  0  0  0
  -87.7355   28.2614   -0.6164 C   0  0  0  0  0  0  0  0  0  0  0  0
  -88.6789   27.2867   -0.6169 C   0  0  0  0  0  0  0  0  0  0  0  0
  -90.7289   22.7562    0.6074 N   0  0  0  0  0  0  0  0  0  0  0  0
  -90.7886   23.6535    1.7408 C   0  0  0  0  0  0  0  0  0  0  0  0
  -90.5004   25.0834    1.3546 C   0  0  0  0  0  0  0  0  0  0  0  0
  -89.5946   25.1846    0.2385 N   0  0  0  0  0  0  0  0  0  0  0  0
  -89.6823   24.2809   -0.8798 C   0  0  0  0  0  0  0  0  0  0  0  0
  -89.6032   22.8685   -0.3039 C   0  0  0  0  0  0  0  0  0  0  0  0
  -92.8727   22.0305   -0.3561 C   0  0  0  0  0  0  0  0  0  0  0  0
  -93.7545   20.9301   -0.6333 C   0  0  0  0  0  0  0  0  0  0  0  0
  -93.4689   19.6807   -0.2420 C   0  0  0  0  0  0  0  0  0  0  0  0
  -92.3203   19.4241    0.4369 C   0  0  0  0  0  0  0  0  0  0  0  0
  -91.4582   20.4530    0.7155 C   0  0  0  0  0  0  0  0  0  0  0  0
  -91.7121   21.7772    0.3260 C   0  0  0  0  0  0  0  0  0  0  0  0
  -93.2619   23.2194   -0.7868 O   0  0  0  0  0  0  0  0  0  0  0  0
  -92.6132   23.7637   -3.0394 C   0  0  0  0  0  0  0  0  0  0  0  0
  -93.4611   24.0423   -1.7778 C   0  0  0  0  0  0  0  0  0  0  0  0
  -93.0440   25.4907   -1.3791 C   0  0  0  0  0  0  0  0  0  0  0  0
  -87.9028   34.9638   -4.8881 C   0  0  0  0  0  0  0  0  0  0  0  0
  -86.9673   35.9721   -4.8422 C   0  0  0  0  0  0  0  0  0  0  0  0
  -87.4781   36.9780   -6.1228 S   0  0  0  0  0  0  0  0  0  0  0  0
  -88.8316   36.0701   -6.6333 C   0  0  0  0  0  0  0  0  0  0  0  0
  -88.8195   35.0488   -5.7985 N   0  0  0  0  0  0  0  0  0  0  0  0
  -89.7836   36.3445   -7.7279 C   0  0  0  0  0  0  0  0  0  0  0  0
  -89.8284   37.4988   -8.1849 O   0  0  0  0  0  0  0  0  0  0  0  0
  -90.5868   35.2968   -8.1967 N   0  0  0  0  0  0  0  0  0  0  0  0
  -90.5154   34.3460   -7.7847 H   0  0  0  0  0  0  0  0  0  0  0  0
  -91.5355   35.5157   -9.2673 C   0  0  0  0  0  0  0  0  0  0  0  0
  -92.7053   34.5547   -9.1443 C   0  0  0  0  0  0  0  0  0  0  0  0
  -92.5301   33.4146   -9.9234 O   0  0  0  0  0  0  0  0  0  0  0  0
  -93.2297   33.3068  -10.6132 H   0  0  0  0  0  0  0  0  0  0  0  0
  -92.9119   34.1174   -7.7204 C   0  0  0  0  0  0  0  0  0  0  0  0
  -93.0359   32.6865   -7.6645 N   0  0  0  0  0  0  0  0  0  0  0  0
  -93.4269   32.2891   -8.5358 H   0  0  0  0  0  0  0  0  0  0  0  0
  -92.1216   32.2271   -7.3829 H   0  0  0  0  0  0  0  0  0  0  0  0
 30 31  1  0  0  0
 31 32  1  0  0  0
 31 29  1  0  0  0
 29 23  1  0  0  0
 23 24  2  0  0  0
 24 25  1  0  0  0
 25 26  2  0  0  0
 26 27  1  0  0  0
 27 28  2  0  0  0
 28 17  1  0  0  0
 17 18  1  0  0  0
 18 19  1  0  0  0
 19 20  1  0  0  0
 20 21  1  0  0  0
 21 22  1  0  0  0
 20 11  1  0  0  0
 11 12  2  0  0  0
 12 13  1  0  0  0
 13 14  2  0  0  0
 14 15  1  0  0  0
 15 16  2  0  0  0
 15  1  1  0  0  0
  1  2  2  0  0  0
  2  3  1  0  0  0
  3  4  2  0  0  0
  4  5  1  0  0  0
  5  6  2  0  0  0
  6  7  1  0  0  0
  7  8  2  0  0  0
  8  9  1  0  0  0
  9 10  2  0  0  0
  6 33  1  0  0  0
 33 34  2  0  0  0
 34 35  1  0  0  0
 35 36  1  0  0  0
 36 38  1  0  0  0
 38 39  2  0  0  0
 38 40  1  0  0  0
 40 42  1  0  0  0
 42 43  1  0  0  0
 43 44  1  0  0  0
 43 46  1  0  0  0
 46 47  1  0  0  0
 36 37  2  0  0  0
 28 23  1  0  0  0
 22 17  1  0  0  0
 16 11  1  0  0  0
 10  1  1  0  0  0
 37 33  1  0  0  0
  9  4  1  0  0  0
 40 41  1  0  0  0
 44 45  1  0  0  0
 47 48  1  0  0  0
 47 49  1  0  0  0
M  END
> <minimizedAffinity>
-8.37367

> <CNNscore>
0.0892303661

> <CNNaffinity>
5.9168853760

> <CNN_VS>
0.5279658437

> <CNNaffinity_variance>
0.5799775720

$$$$
[H]O[C@@]([H])(C([H])([H])N([H])[H])C([H])([H])N([H])C(=O)c1nc(-c2c([H])c([H])c3c([H])c(-c4c([H])c([H])c([H])c(N5C([H])([H])C([H])([H])N(c6c([H])c([H])c([H])c([H])c6OC([H])(C([H])([H])[H])C([H])([H])[H])C([H])([H])C5([H])[H])c4[H])c([H])nc3c2[H])c([H])s1


 49 54  0  0  0  0  0  0  0  0999 V2000
  -86.6777   31.3648   -0.3365 C   0  0  0  0  0  0  0  0  0  0  0  0
  -85.6245   32.2262   -0.5322 C   0  0  0  0  0  0  0  0  0  0  0  0
  -85.7624   33.3576   -1.2852 N   0  0  0  0  0  0  0  0  0  0  0  0
  -86.9275   33.6850   -1.8700 C   0  0  0  0  0  0  0  0  0  0  0  0
  -87.0275   34.8537   -2.6334 C   0  0  0  0  0  0  0  0  0  0  0  0
  -88.2177   35.1790   -3.2247 C   0  0  0  0  0  0  0  0  0  0  0  0
  -89.2965   34.3509   -3.0582 C   0  0  0  0  0  0  0  0  0  0  0  0
  -89.1852   33.1951   -2.2995 C   0  0  0  0  0  0  0  0  0  0  0  0
  -87.9999   32.8404   -1.6913 C   0  0  0  0  0  0  0  0  0  0  0  0
  -87.8828   31.6744   -0.9235 C   0  0  0  0  0  0  0  0  0  0  0  0
  -87.0895   27.9331    1.1416 C   0  0  0  0  0  0  0  0  0  0  0  0
  -86.0528   27.9468    2.0395 C   0  0  0  0  0  0  0  0  0  0  0  0
  -85.2204   29.0483    2.1781 C   0  0  0  0  0  0  0  0  0  0  0  0
  -85.4481   30.1389    1.3973 C   0  0  0  0  0  0  0  0  0  0  0  0
  -86.4826   30.1541    0.4861 C   0  0  0  0  0  0  0  0  0  0  0  0
  -87.2818   29.0642    0.3704 C   0  0  0  0  0  0  0  0  0  0  0  0
  -90.0783   25.2721    0.4270 N   0  0  0  0  0  0  0  0  0  0  0  0
  -89.1652   25.5071   -0.6706 C   0  0  0  0  0  0  0  0  0  0  0  0
  -87.8226   26.0100   -0.2003 C   0  0  0  0  0  0  0  0  0  0  0  0
  -87.9143   26.7880    1.0091 N   0  0  0  0  0  0  0  0  0  0  0  0
  -88.8055   26.4096    2.0756 C   0  0  0  0  0  0  0  0  0  0  0  0
  -90.1968   26.2897    1.4569 C   0  0  0  0  0  0  0  0  0  0  0  0
  -92.1027   23.9379    0.0114 C   0  0  0  0  0  0  0  0  0  0  0  0
  -92.7596   22.6697    0.1701 C   0  0  0  0  0  0  0  0  0  0  0  0
  -92.1895   21.6581    0.8390 C   0  0  0  0  0  0  0  0  0  0  0  0
  -90.9576   21.8134    1.3907 C   0  0  0  0  0  0  0  0  0  0  0  0
  -90.3049   23.0114    1.2554 C   0  0  0  0  0  0  0  0  0  0  0  0
  -90.8595   24.0993    0.5635 C   0  0  0  0  0  0  0  0  0  0  0  0
  -92.7648   24.8632   -0.6639 O   0  0  0  0  0  0  0  0  0  0  0  0
  -92.3353   24.8275   -3.0315 C   0  0  0  0  0  0  0  0  0  0  0  0
  -93.0330   25.4453   -1.7989 C   0  0  0  0  0  0  0  0  0  0  0  0
  -92.5164   26.9164   -1.7951 C   0  0  0  0  0  0  0  0  0  0  0  0
  -88.3728   36.4072   -4.0443 C   0  0  0  0  0  0  0  0  0  0  0  0
  -87.9722   37.6292   -3.5543 C   0  0  0  0  0  0  0  0  0  0  0  0
  -88.3592   38.6673   -4.8525 S   0  0  0  0  0  0  0  0  0  0  0  0
  -88.9983   37.5028   -5.9259 C   0  0  0  0  0  0  0  0  0  0  0  0
  -88.8813   36.3854   -5.2348 N   0  0  0  0  0  0  0  0  0  0  0  0
  -89.5469   37.6839   -7.2846 C   0  0  0  0  0  0  0  0  0  0  0  0
  -89.4912   38.8179   -7.7887 O   0  0  0  0  0  0  0  0  0  0  0  0
  -90.1013   36.5751   -7.9374 N   0  0  0  0  0  0  0  0  0  0  0  0
  -90.1264   35.6443   -7.4773 H   0  0  0  0  0  0  0  0  0  0  0  0
  -90.6521   36.7018   -9.2695 C   0  0  0  0  0  0  0  0  0  0  0  0
  -91.3204   35.4052   -9.6928 C   0  0  0  0  0  0  0  0  0  0  0  0
  -90.9076   34.3260   -8.9166 O   0  0  0  0  0  0  0  0  0  0  0  0
  -90.4582   33.6207   -9.4434 H   0  0  0  0  0  0  0  0  0  0  0  0
  -92.8182   35.5005   -9.5972 C   0  0  0  0  0  0  0  0  0  0  0  0
  -93.1833   36.2774   -8.4443 N   0  0  0  0  0  0  0  0  0  0  0  0
  -92.4804   36.2166   -7.6877 H   0  0  0  0  0  0  0  0  0  0  0  0
  -93.4119   37.2799   -8.7068 H   0  0  0  0  0  0  0  0  0  0  0  0
 30 31  1  0  0  0
 31 32  1  0  0  0
 31 29  1  0  0  0
 29 23  1  0  0  0
 23 24  2  0  0  0
 24 25  1  0  0  0
 25 26  2  0  0  0
 26 27  1  0  0  0
 27 28  2  0  0  0
 28 17  1  0  0  0
 17 18  1  0  0  0
 18 19  1  0  0  0
 19 20  1  0  0  0
 20 21  1  0  0  0
 21 22  1  0  0  0
 20 11  1  0  0  0
 11 12  2  0  0  0
 12 13  1  0  0  0
 13 14  2  0  0  0
 14 15  1  0  0  0
 15 16  2  0  0  0
 15  1  1  0  0  0
  1  2  2  0  0  0
  2  3  1  0  0  0
  3  4  2  0  0  0
  4  5  1  0  0  0
  5  6  2  0  0  0
  6  7  1  0  0  0
  7  8  2  0  0  0
  8  9  1  0  0  0
  9 10  2  0  0  0
  6 33  1  0  0  0
 33 34  2  0  0  0
 34 35  1  0  0  0
 35 36  1  0  0  0
 36 38  1  0  0  0
 38 39  2  0  0  0
 38 40  1  0  0  0
 40 42  1  0  0  0
 42 43  1  0  0  0
 43 44  1  0  0  0
 43 46  1  0  0  0
 46 47  1  0  0  0
 36 37  2  0  0  0
 28 23  1  0  0  0
 22 17  1  0  0  0
 16 11  1  0  0  0
 10  1  1  0  0  0
 37 33  1  0  0  0
  9  4  1  0  0  0
 40 41  1  0  0  0
 44 45  1  0  0  0
 47 48  1  0  0  0
 47 49  1  0  0  0
M  END
> <minimizedAffinity>
-8.31104

> <CNNscore>
0.0853830129

> <CNNaffinity>
6.6177444458

> <CNN_VS>
0.5650429726

> <CNNaffinity_variance>
0.1192928702

$$$$
[H]c1c(C([H])([H])N2C([H])([H])C([H])([H])[C@@]([H])(C([H])([H])C([H])([H])[H])N(C(=O)c3oc(C([H])([H])[H])c([H])c3[H])[C@@]([H])(C([H])([H])[H])C2([H])[H])nc2c(c1[H])N([H])C(=O)C([H])([H])C2([H])[H]


 31 34  0  0  0  0  0  0  0  0999 V2000
  -84.8774   31.7881    0.6526 C   0  0  0  0  0  0  0  0  0  0  0  0
  -85.2259   31.1723    1.9649 C   0  0  0  0  0  0  0  0  0  0  0  0
  -85.8864   29.8556    1.9756 C   0  0  0  0  0  0  0  0  0  0  0  0
  -86.1412   29.1720    0.7744 N   0  0  0  0  0  0  0  0  0  0  0  0
  -87.0494   29.6757   -0.1730 C   0  0  0  0  0  0  0  0  0  0  0  0
  -87.2789   31.1508    0.0845 C   0  0  0  0  0  0  0  0  0  0  0  0
  -88.6224   31.5729   -0.2682 C   0  0  0  0  0  0  0  0  0  0  0  0
  -86.0928   31.8358   -0.2385 N   0  0  0  0  0  0  0  0  0  0  0  0
  -85.8577   32.6923   -1.2953 C   0  0  0  0  0  0  0  0  0  0  0  0
  -84.7403   33.4144   -1.2595 O   0  0  0  0  0  0  0  0  0  0  0  0
  -86.6698   32.9199   -2.4784 C   0  0  0  0  0  0  0  0  0  0  0  0
  -86.8620   34.1974   -3.0555 C   0  0  0  0  0  0  0  0  0  0  0  0
  -87.6674   34.0363   -4.1495 C   0  0  0  0  0  0  0  0  0  0  0  0
  -87.9540   32.7087   -4.2337 C   0  0  0  0  0  0  0  0  0  0  0  0
  -88.8143   32.1167   -5.3015 C   0  0  0  0  0  0  0  0  0  0  0  0
  -87.3529   32.1390   -3.2516 O   0  0  0  0  0  0  0  0  0  0  0  0
  -82.4805   31.0968    0.6481 C   0  0  0  0  0  0  0  0  0  0  0  0
  -83.8195   31.0328   -0.0862 C   0  0  0  0  0  0  0  0  0  0  0  0
  -85.9383   27.7715    0.7861 C   0  0  0  0  0  0  0  0  0  0  0  0
  -87.1378   26.9287    0.9800 C   0  0  0  0  0  0  0  0  0  0  0  0
  -87.7820   26.2655   -0.0304 C   0  0  0  0  0  0  0  0  0  0  0  0
  -88.8897   25.5174    0.2712 C   0  0  0  0  0  0  0  0  0  0  0  0
  -89.3548   25.4288    1.5698 C   0  0  0  0  0  0  0  0  0  0  0  0
  -90.5333   24.6426    1.8581 N   0  0  0  0  0  0  0  0  0  0  0  0
  -90.9874   24.5875    3.2015 C   0  0  0  0  0  0  0  0  0  0  0  0
  -91.6437   23.6181    3.6465 O   0  0  0  0  0  0  0  0  0  0  0  0
  -90.6367   25.7535    4.0525 C   0  0  0  0  0  0  0  0  0  0  0  0
  -89.1549   26.0234    3.9913 C   0  0  0  0  0  0  0  0  0  0  0  0
  -88.6986   26.0990    2.5745 C   0  0  0  0  0  0  0  0  0  0  0  0
  -87.6182   26.8179    2.2229 N   0  0  0  0  0  0  0  0  0  0  0  0
  -91.0068   24.1468    1.0914 H   0  0  0  0  0  0  0  0  0  0  0  0
 17 18  1  0  0  0
 18  1  1  0  0  0
  1  2  1  0  0  0
  2  3  1  0  0  0
  3  4  1  0  0  0
  4 19  1  0  0  0
 19 20  1  0  0  0
 20 21  2  0  0  0
 21 22  1  0  0  0
 22 23  2  0  0  0
 23 24  1  0  0  0
 24 25  1  0  0  0
 25 26  2  0  0  0
 25 27  1  0  0  0
 27 28  1  0  0  0
 28 29  1  0  0  0
 29 30  2  0  0  0
  4  5  1  0  0  0
  5  6  1  0  0  0
  6  7  1  0  0  0
  6  8  1  0  0  0
  8  9  1  0  0  0
  9 10  2  0  0  0
  9 11  1  0  0  0
 11 12  2  0  0  0
 12 13  1  0  0  0
 13 14  2  0  0  0
 14 15  1  0  0  0
 14 16  1  0  0  0
  8  1  1  0  0  0
 16 11  1  0  0  0
 30 20  1  0  0  0
 29 23  1  0  0  0
 24 31  1  0  0  0
M  END
> <minimizedAffinity>
-9.03826

> <CNNscore>
0.1468969733

> <CNNaffinity>
6.5736198425

> <CNN_VS>
0.9656448364

> <CNNaffinity_variance>
0.0726817325

$$$$
[H]c1c(C([H])([H])N2C([H])([H])C([H])([H])[C@@]([H])(C([H])([H])C([H])([H])[H])N(C(=O)c3oc(C([H])([H])[H])c([H])c3[H])[C@@]([H])(C([H])([H])[H])C2([H])[H])nc2c(c1[H])N([H])C(=O)C([H])([H])C2([H])[H]


 31 34  0  0  0  0  0  0  0  0999 V2000
  -89.6207   31.4213   -4.5426 C   0  0  0  0  0  0  0  0  0  0  0  0
  -88.1349   31.4206   -4.6662 C   0  0  0  0  0  0  0  0  0  0  0  0
  -87.3754   32.5374   -4.0780 C   0  0  0  0  0  0  0  0  0  0  0  0
  -88.0342   33.5596   -3.3735 N   0  0  0  0  0  0  0  0  0  0  0  0
  -88.9202   34.4378   -4.0215 C   0  0  0  0  0  0  0  0  0  0  0  0
  -89.3601   33.8290   -5.3371 C   0  0  0  0  0  0  0  0  0  0  0  0
  -89.6157   34.8325   -6.3546 C   0  0  0  0  0  0  0  0  0  0  0  0
  -90.1840   32.7251   -5.0487 N   0  0  0  0  0  0  0  0  0  0  0  0
  -91.5440   32.5954   -5.2464 C   0  0  0  0  0  0  0  0  0  0  0  0
  -92.0647   31.3761   -5.1298 O   0  0  0  0  0  0  0  0  0  0  0  0
  -92.5187   33.6255   -5.5625 C   0  0  0  0  0  0  0  0  0  0  0  0
  -92.9549   34.5956   -4.6295 C   0  0  0  0  0  0  0  0  0  0  0  0
  -93.8584   35.4009   -5.2672 C   0  0  0  0  0  0  0  0  0  0  0  0
  -93.9669   34.9365   -6.5416 C   0  0  0  0  0  0  0  0  0  0  0  0
  -94.8616   35.5485   -7.5692 C   0  0  0  0  0  0  0  0  0  0  0  0
  -93.1769   33.9277   -6.6346 O   0  0  0  0  0  0  0  0  0  0  0  0
  -89.8196   29.8417   -2.6222 C   0  0  0  0  0  0  0  0  0  0  0  0
  -90.0911   31.2565   -3.1330 C   0  0  0  0  0  0  0  0  0  0  0  0
  -87.3936   34.0407   -2.2070 C   0  0  0  0  0  0  0  0  0  0  0  0
  -86.7797   33.0280   -1.3214 C   0  0  0  0  0  0  0  0  0  0  0  0
  -87.4726   32.0089   -0.7238 C   0  0  0  0  0  0  0  0  0  0  0  0
  -86.7945   31.1326    0.0824 C   0  0  0  0  0  0  0  0  0  0  0  0
  -85.4352   31.2682    0.2936 C   0  0  0  0  0  0  0  0  0  0  0  0
  -84.7469   30.3370    1.1592 N   0  0  0  0  0  0  0  0  0  0  0  0
  -83.3540   30.5177    1.3617 C   0  0  0  0  0  0  0  0  0  0  0  0
  -82.5923   29.5684    1.6570 O   0  0  0  0  0  0  0  0  0  0  0  0
  -82.8507   31.9062    1.2021 C   0  0  0  0  0  0  0  0  0  0  0  0
  -83.2842   32.4743   -0.1252 C   0  0  0  0  0  0  0  0  0  0  0  0
  -84.7518   32.2951   -0.3127 C   0  0  0  0  0  0  0  0  0  0  0  0
  -85.4659   33.1254   -1.0927 N   0  0  0  0  0  0  0  0  0  0  0  0
  -85.2775   29.5741    1.6000 H   0  0  0  0  0  0  0  0  0  0  0  0
 17 18  1  0  0  0
 18  1  1  0  0  0
  1  2  1  0  0  0
  2  3  1  0  0  0
  3  4  1  0  0  0
  4 19  1  0  0  0
 19 20  1  0  0  0
 20 21  2  0  0  0
 21 22  1  0  0  0
 22 23  2  0  0  0
 23 24  1  0  0  0
 24 25  1  0  0  0
 25 26  2  0  0  0
 25 27  1  0  0  0
 27 28  1  0  0  0
 28 29  1  0  0  0
 29 30  2  0  0  0
  4  5  1  0  0  0
  5  6  1  0  0  0
  6  7  1  0  0  0
  6  8  1  0  0  0
  8  9  1  0  0  0
  9 10  2  0  0  0
  9 11  1  0  0  0
 11 12  2  0  0  0
 12 13  1  0  0  0
 13 14  2  0  0  0
 14 15  1  0  0  0
 14 16  1  0  0  0
  8  1  1  0  0  0
 16 11  1  0  0  0
 30 20  1  0  0  0
 29 23  1  0  0  0
 24 31  1  0  0  0
M  END
> <minimizedAffinity>
-7.84217

> <CNNscore>
0.1365603358

> <CNNaffinity>
5.9486036301

> <CNN_VS>
0.8123432994

> <CNNaffinity_variance>
0.1216245517

$$$$
[H]c1c(C([H])([H])N2C([H])([H])C([H])([H])[C@@]([H])(C([H])([H])C([H])([H])[H])N(C(=O)c3oc(C([H])([H])[H])c([H])c3[H])[C@@]([H])(C([H])([H])[H])C2([H])[H])nc2c(c1[H])N([H])C(=O)C([H])([H])C2([H])[H]


 31 34  0  0  0  0  0  0  0  0999 V2000
  -89.0942   32.6926   -4.8275 C   0  0  0  0  0  0  0  0  0  0  0  0
  -87.7698   32.1162   -4.4579 C   0  0  0  0  0  0  0  0  0  0  0  0
  -86.9742   32.7836   -3.4130 C   0  0  0  0  0  0  0  0  0  0  0  0
  -87.4739   33.9145   -2.7447 N   0  0  0  0  0  0  0  0  0  0  0  0
  -87.6910   35.1262   -3.4235 C   0  0  0  0  0  0  0  0  0  0  0  0
  -87.7602   34.8627   -4.9138 C   0  0  0  0  0  0  0  0  0  0  0  0
  -87.2503   35.9734   -5.6975 C   0  0  0  0  0  0  0  0  0  0  0  0
  -88.9475   34.1530   -5.1729 N   0  0  0  0  0  0  0  0  0  0  0  0
  -90.0823   34.5897   -5.8263 C   0  0  0  0  0  0  0  0  0  0  0  0
  -90.9807   33.6702   -6.1710 O   0  0  0  0  0  0  0  0  0  0  0  0
  -90.4541   35.9452   -6.1946 C   0  0  0  0  0  0  0  0  0  0  0  0
  -90.4032   36.4318   -7.5222 C   0  0  0  0  0  0  0  0  0  0  0  0
  -90.8269   37.7323   -7.4989 C   0  0  0  0  0  0  0  0  0  0  0  0
  -91.1243   38.0249   -6.2037 C   0  0  0  0  0  0  0  0  0  0  0  0
  -91.6254   39.3580   -5.7533 C   0  0  0  0  0  0  0  0  0  0  0  0
  -90.8878   36.9619   -5.5222 O   0  0  0  0  0  0  0  0  0  0  0  0
  -90.3263   31.1482   -3.3046 C   0  0  0  0  0  0  0  0  0  0  0  0
  -90.1011   32.6000   -3.7262 C   0  0  0  0  0  0  0  0  0  0  0  0
  -87.2169   33.9954   -1.3555 C   0  0  0  0  0  0  0  0  0  0  0  0
  -86.0689   33.2146   -0.8463 C   0  0  0  0  0  0  0  0  0  0  0  0
  -84.7580   33.5600   -1.0414 C   0  0  0  0  0  0  0  0  0  0  0  0
  -83.7782   32.7530   -0.5252 C   0  0  0  0  0  0  0  0  0  0  0  0
  -84.0993   31.6090    0.1810 C   0  0  0  0  0  0  0  0  0  0  0  0
  -83.0454   30.7687    0.7039 N   0  0  0  0  0  0  0  0  0  0  0  0
  -83.4154   29.5956    1.4115 C   0  0  0  0  0  0  0  0  0  0  0  0
  -82.6800   29.0815    2.2852 O   0  0  0  0  0  0  0  0  0  0  0  0
  -84.7329   29.0106    1.0525 C   0  0  0  0  0  0  0  0  0  0  0  0
  -85.8141   30.0578    1.1351 C   0  0  0  0  0  0  0  0  0  0  0  0
  -85.4189   31.2742    0.3699 C   0  0  0  0  0  0  0  0  0  0  0  0
  -86.3388   32.1007   -0.1577 N   0  0  0  0  0  0  0  0  0  0  0  0
  -82.0648   31.0401    0.5534 H   0  0  0  0  0  0  0  0  0  0  0  0
 17 18  1  0  0  0
 18  1  1  0  0  0
  1  2  1  0  0  0
  2  3  1  0  0  0
  3  4  1  0  0  0
  4 19  1  0  0  0
 19 20  1  0  0  0
 20 21  2  0  0  0
 21 22  1  0  0  0
 22 23  2  0  0  0
 23 24  1  0  0  0
 24 25  1  0  0  0
 25 26  2  0  0  0
 25 27  1  0  0  0
 27 28  1  0  0  0
 28 29  1  0  0  0
 29 30  2  0  0  0
  4  5  1  0  0  0
  5  6  1  0  0  0
  6  7  1  0  0  0
  6  8  1  0  0  0
  8  9  1  0  0  0
  9 10  2  0  0  0
  9 11  1  0  0  0
 11 12  2  0  0  0
 12 13  1  0  0  0
 13 14  2  0  0  0
 14 15  1  0  0  0
 14 16  1  0  0  0
  8  1  1  0  0  0
 16 11  1  0  0  0
 30 20  1  0  0  0
 29 23  1  0  0  0
 24 31  1  0  0  0
M  END
> <minimizedAffinity>
-7.85357

> <CNNscore>
0.1277893484

> <CNNaffinity>
6.0922341347

> <CNN_VS>
0.7785226107

> <CNNaffinity_variance>
0.1095808521

$$$$
[H]c1c(C([H])([H])N2C([H])([H])C([H])([H])[C@@]([H])(C([H])([H])C([H])([H])[H])N(C(=O)c3oc(C([H])([H])[H])c([H])c3[H])[C@@]([H])(C([H])([H])[H])C2([H])[H])nc2c(c1[H])N([H])C(=O)C([H])([H])C2([H])[H]


 31 34  0  0  0  0  0  0  0  0999 V2000
  -89.5673   31.7836   -4.3460 C   0  0  0  0  0  0  0  0  0  0  0  0
  -88.1414   31.3498   -4.3835 C   0  0  0  0  0  0  0  0  0  0  0  0
  -87.1674   32.0447   -3.5241 C   0  0  0  0  0  0  0  0  0  0  0  0
  -87.5819   33.0654   -2.6515 N   0  0  0  0  0  0  0  0  0  0  0  0
  -88.0926   34.2804   -3.1405 C   0  0  0  0  0  0  0  0  0  0  0  0
  -88.5295   34.0997   -4.5798 C   0  0  0  0  0  0  0  0  0  0  0  0
  -88.3610   35.3083   -5.3664 C   0  0  0  0  0  0  0  0  0  0  0  0
  -89.6653   33.2690   -4.5860 N   0  0  0  0  0  0  0  0  0  0  0  0
  -90.9711   33.6040   -4.8829 C   0  0  0  0  0  0  0  0  0  0  0  0
  -91.8318   32.6053   -5.0646 O   0  0  0  0  0  0  0  0  0  0  0  0
  -91.5617   34.9244   -5.0204 C   0  0  0  0  0  0  0  0  0  0  0  0
  -92.2008   35.3711   -6.2011 C   0  0  0  0  0  0  0  0  0  0  0  0
  -92.6406   36.6461   -5.9722 C   0  0  0  0  0  0  0  0  0  0  0  0
  -92.2815   36.9623   -4.6984 C   0  0  0  0  0  0  0  0  0  0  0  0
  -92.5809   38.2788   -4.0597 C   0  0  0  0  0  0  0  0  0  0  0  0
  -91.6733   35.9360   -4.2216 O   0  0  0  0  0  0  0  0  0  0  0  0
  -90.6295   30.0343   -2.9197 C   0  0  0  0  0  0  0  0  0  0  0  0
  -90.2298   31.5051   -3.0349 C   0  0  0  0  0  0  0  0  0  0  0  0
  -86.9736   33.0938   -1.3741 C   0  0  0  0  0  0  0  0  0  0  0  0
  -86.8650   31.8024   -0.6619 C   0  0  0  0  0  0  0  0  0  0  0  0
  -87.8800   30.8873   -0.5716 C   0  0  0  0  0  0  0  0  0  0  0  0
  -87.6623   29.7253    0.1213 C   0  0  0  0  0  0  0  0  0  0  0  0
  -86.4426   29.4740    0.7212 C   0  0  0  0  0  0  0  0  0  0  0  0
  -86.2442   28.2454    1.4570 N   0  0  0  0  0  0  0  0  0  0  0  0
  -84.9826   28.0303    2.0701 C   0  0  0  0  0  0  0  0  0  0  0  0
  -84.5347   26.8824    2.2939 O   0  0  0  0  0  0  0  0  0  0  0  0
  -84.2213   29.2533    2.4328 C   0  0  0  0  0  0  0  0  0  0  0  0
  -84.0966   30.1686    1.2415 C   0  0  0  0  0  0  0  0  0  0  0  0
  -85.4323   30.4006    0.6225 C   0  0  0  0  0  0  0  0  0  0  0  0
  -85.6999   31.5226   -0.0684 N   0  0  0  0  0  0  0  0  0  0  0  0
  -87.0130   27.5647    1.5154 H   0  0  0  0  0  0  0  0  0  0  0  0
 17 18  1  0  0  0
 18  1  1  0  0  0
  1  2  1  0  0  0
  2  3  1  0  0  0
  3  4  1  0  0  0
  4 19  1  0  0  0
 19 20  1  0  0  0
 20 21  2  0  0  0
 21 22  1  0  0  0
 22 23  2  0  0  0
 23 24  1  0  0  0
 24 25  1  0  0  0
 25 26  2  0  0  0
 25 27  1  0  0  0
 27 28  1  0  0  0
 28 29  1  0  0  0
 29 30  2  0  0  0
  4  5  1  0  0  0
  5  6  1  0  0  0
  6  7  1  0  0  0
  6  8  1  0  0  0
  8  9  1  0  0  0
  9 10  2  0  0  0
  9 11  1  0  0  0
 11 12  2  0  0  0
 12 13  1  0  0  0
 13 14  2  0  0  0
 14 15  1  0  0  0
 14 16  1  0  0  0
  8  1  1  0  0  0
 16 11  1  0  0  0
 30 20  1  0  0  0
 29 23  1  0  0  0
 24 31  1  0  0  0
M  END
> <minimizedAffinity>
-7.94610

> <CNNscore>
0.1239356846

> <CNNaffinity>
6.2918891907

> <CNN_VS>
0.7797895670

> <CNNaffinity_variance>
0.2322242707

$$$$
[H]c1c(C([H])([H])N2C([H])([H])C([H])([H])[C@@]([H])(C([H])([H])C([H])([H])[H])N(C(=O)c3oc(C([H])([H])[H])c([H])c3[H])[C@@]([H])(C([H])([H])[H])C2([H])[H])nc2c(c1[H])N([H])C(=O)C([H])([H])C2([H])[H]


 31 34  0  0  0  0  0  0  0  0999 V2000
  -88.4233   25.8992   -0.5413 C   0  0  0  0  0  0  0  0  0  0  0  0
  -87.6363   26.9333   -1.2722 C   0  0  0  0  0  0  0  0  0  0  0  0
  -88.2040   28.2853   -1.4141 C   0  0  0  0  0  0  0  0  0  0  0  0
  -89.4419   28.6074   -0.8319 N   0  0  0  0  0  0  0  0  0  0  0  0
  -90.6337   28.0064   -1.2729 C   0  0  0  0  0  0  0  0  0  0  0  0
  -90.3059   26.7412   -2.0389 C   0  0  0  0  0  0  0  0  0  0  0  0
  -91.2604   26.4718   -3.0992 C   0  0  0  0  0  0  0  0  0  0  0  0
  -89.8113   25.7959   -1.1211 N   0  0  0  0  0  0  0  0  0  0  0  0
  -90.4109   24.6332   -0.6807 C   0  0  0  0  0  0  0  0  0  0  0  0
  -89.6529   23.7734   -0.0042 O   0  0  0  0  0  0  0  0  0  0  0  0
  -91.7891   24.2031   -0.8441 C   0  0  0  0  0  0  0  0  0  0  0  0
  -92.8669   24.7514   -0.1093 C   0  0  0  0  0  0  0  0  0  0  0  0
  -94.0082   24.1213   -0.5237 C   0  0  0  0  0  0  0  0  0  0  0  0
  -93.6369   23.2227   -1.4757 C   0  0  0  0  0  0  0  0  0  0  0  0
  -94.5992   22.3268   -2.1844 C   0  0  0  0  0  0  0  0  0  0  0  0
  -92.3629   23.3268   -1.6036 O   0  0  0  0  0  0  0  0  0  0  0  0
  -87.2250   26.5075    1.5603 C   0  0  0  0  0  0  0  0  0  0  0  0
  -88.5762   26.2007    0.9151 C   0  0  0  0  0  0  0  0  0  0  0  0
  -89.5508   29.8885   -0.2408 C   0  0  0  0  0  0  0  0  0  0  0  0
  -88.4766   30.8562   -0.5516 C   0  0  0  0  0  0  0  0  0  0  0  0
  -88.6101   31.8948   -1.4344 C   0  0  0  0  0  0  0  0  0  0  0  0
  -87.5403   32.7247   -1.6450 C   0  0  0  0  0  0  0  0  0  0  0  0
  -86.3442   32.5237   -0.9819 C   0  0  0  0  0  0  0  0  0  0  0  0
  -85.2274   33.4070   -1.2324 N   0  0  0  0  0  0  0  0  0  0  0  0
  -84.0122   33.1595   -0.5425 C   0  0  0  0  0  0  0  0  0  0  0  0
  -83.1855   34.0677   -0.2970 O   0  0  0  0  0  0  0  0  0  0  0  0
  -83.7776   31.7526   -0.1272 C   0  0  0  0  0  0  0  0  0  0  0  0
  -84.9587   31.2289    0.6493 C   0  0  0  0  0  0  0  0  0  0  0  0
  -86.2238   31.4779   -0.0982 C   0  0  0  0  0  0  0  0  0  0  0  0
  -87.3039   30.6951    0.0703 N   0  0  0  0  0  0  0  0  0  0  0  0
  -85.3408   34.1851   -1.8954 H   0  0  0  0  0  0  0  0  0  0  0  0
 17 18  1  0  0  0
 18  1  1  0  0  0
  1  2  1  0  0  0
  2  3  1  0  0  0
  3  4  1  0  0  0
  4 19  1  0  0  0
 19 20  1  0  0  0
 20 21  2  0  0  0
 21 22  1  0  0  0
 22 23  2  0  0  0
 23 24  1  0  0  0
 24 25  1  0  0  0
 25 26  2  0  0  0
 25 27  1  0  0  0
 27 28  1  0  0  0
 28 29  1  0  0  0
 29 30  2  0  0  0
  4  5  1  0  0  0
  5  6  1  0  0  0
  6  7  1  0  0  0
  6  8  1  0  0  0
  8  9  1  0  0  0
  9 10  2  0  0  0
  9 11  1  0  0  0
 11 12  2  0  0  0
 12 13  1  0  0  0
 13 14  2  0  0  0
 14 15  1  0  0  0
 14 16  1  0  0  0
  8  1  1  0  0  0
 16 11  1  0  0  0
 30 20  1  0  0  0
 29 23  1  0  0  0
 24 31  1  0  0  0
M  END
> <minimizedAffinity>
-7.82790

> <CNNscore>
0.1204675734

> <CNNaffinity>
6.2412676811

> <CNN_VS>
0.7518703938

> <CNNaffinity_variance>
0.1407902241

$$$$
[H]c1c(C([H])([H])N2C([H])([H])C([H])([H])[C@@]([H])(C([H])([H])C([H])([H])[H])N(C(=O)c3oc(C([H])([H])[H])c([H])c3[H])[C@@]([H])(C([H])([H])[H])C2([H])[H])nc2c(c1[H])N([H])C(=O)C([H])([H])C2([H])[H]


 31 34  0  0  0  0  0  0  0  0999 V2000
  -89.1454   29.5129   -1.1181 C   0  0  0  0  0  0  0  0  0  0  0  0
  -90.2836   30.3304   -1.6270 C   0  0  0  0  0  0  0  0  0  0  0  0
  -90.0298   31.3050   -2.7022 C   0  0  0  0  0  0  0  0  0  0  0  0
  -88.7500   31.4289   -3.2695 N   0  0  0  0  0  0  0  0  0  0  0  0
  -87.6609   31.9009   -2.5164 C   0  0  0  0  0  0  0  0  0  0  0  0
  -87.9786   31.7775   -1.0402 C   0  0  0  0  0  0  0  0  0  0  0  0
  -87.3564   32.8242   -0.2497 C   0  0  0  0  0  0  0  0  0  0  0  0
  -88.0009   30.4083   -0.7157 N   0  0  0  0  0  0  0  0  0  0  0  0
  -87.1035   29.6944    0.0527 C   0  0  0  0  0  0  0  0  0  0  0  0
  -87.4603   28.4682    0.4276 O   0  0  0  0  0  0  0  0  0  0  0  0
  -85.7858   30.0935    0.5169 C   0  0  0  0  0  0  0  0  0  0  0  0
  -85.3047   29.8204    1.8192 C   0  0  0  0  0  0  0  0  0  0  0  0
  -84.0373   30.3285    1.9031 C   0  0  0  0  0  0  0  0  0  0  0  0
  -83.7589   30.8900    0.6953 C   0  0  0  0  0  0  0  0  0  0  0  0
  -82.4621   31.5587    0.3758 C   0  0  0  0  0  0  0  0  0  0  0  0
  -84.7984   30.7174   -0.0396 O   0  0  0  0  0  0  0  0  0  0  0  0
  -89.6183   27.4305   -2.4076 C   0  0  0  0  0  0  0  0  0  0  0  0
  -88.6156   28.5509   -2.1327 C   0  0  0  0  0  0  0  0  0  0  0  0
  -88.6931   31.6237   -4.6700 C   0  0  0  0  0  0  0  0  0  0  0  0
  -89.0025   32.9827   -5.1642 C   0  0  0  0  0  0  0  0  0  0  0  0
  -90.1853   33.3328   -5.7593 C   0  0  0  0  0  0  0  0  0  0  0  0
  -90.3550   34.6249   -6.1825 C   0  0  0  0  0  0  0  0  0  0  0  0
  -89.3547   35.5642   -6.0153 C   0  0  0  0  0  0  0  0  0  0  0  0
  -89.5555   36.9175   -6.4826 N   0  0  0  0  0  0  0  0  0  0  0  0
  -88.4997   37.8490   -6.3049 C   0  0  0  0  0  0  0  0  0  0  0  0
  -88.7037   39.0811   -6.2100 O   0  0  0  0  0  0  0  0  0  0  0  0
  -87.1319   37.2734   -6.2382 C   0  0  0  0  0  0  0  0  0  0  0  0
  -87.0706   36.1799   -5.2024 C   0  0  0  0  0  0  0  0  0  0  0  0
  -88.1728   35.1997   -5.4160 C   0  0  0  0  0  0  0  0  0  0  0  0
  -88.0596   33.9197   -5.0202 N   0  0  0  0  0  0  0  0  0  0  0  0
  -90.4490   37.1691   -6.9254 H   0  0  0  0  0  0  0  0  0  0  0  0
 17 18  1  0  0  0
 18  1  1  0  0  0
  1  2  1  0  0  0
  2  3  1  0  0  0
  3  4  1  0  0  0
  4 19  1  0  0  0
 19 20  1  0  0  0
 20 21  2  0  0  0
 21 22  1  0  0  0
 22 23  2  0  0  0
 23 24  1  0  0  0
 24 25  1  0  0  0
 25 26  2  0  0  0
 25 27  1  0  0  0
 27 28  1  0  0  0
 28 29  1  0  0  0
 29 30  2  0  0  0
  4  5  1  0  0  0
  5  6  1  0  0  0
  6  7  1  0  0  0
  6  8  1  0  0  0
  8  9  1  0  0  0
  9 10  2  0  0  0
  9 11  1  0  0  0
 11 12  2  0  0  0
 12 13  1  0  0  0
 13 14  2  0  0  0
 14 15  1  0  0  0
 14 16  1  0  0  0
  8  1  1  0  0  0
 16 11  1  0  0  0
 30 20  1  0  0  0
 29 23  1  0  0  0
 24 31  1  0  0  0
M  END
> <minimizedAffinity>
-7.94869

> <CNNscore>
0.1002968401

> <CNNaffinity>
6.0624856949

> <CNN_VS>
0.6080481410

> <CNNaffinity_variance>
0.2349593937

$$$$
[H]c1c(C([H])([H])N2C([H])([H])C([H])([H])[C@@]([H])(C([H])([H])C([H])([H])[H])N(C(=O)c3oc(C([H])([H])[H])c([H])c3[H])[C@@]([H])(C([H])([H])[H])C2([H])[H])nc2c(c1[H])N([H])C(=O)C([H])([H])C2([H])[H]


 31 34  0  0  0  0  0  0  0  0999 V2000
  -89.5055   32.1531   -5.0451 C   0  0  0  0  0  0  0  0  0  0  0  0
  -88.5244   31.1163   -4.6147 C   0  0  0  0  0  0  0  0  0  0  0  0
  -88.1185   31.0703   -3.1993 C   0  0  0  0  0  0  0  0  0  0  0  0
  -88.6800   31.9561   -2.2637 N   0  0  0  0  0  0  0  0  0  0  0  0
  -88.4456   33.3402   -2.3379 C   0  0  0  0  0  0  0  0  0  0  0  0
  -87.9607   33.6948   -3.7287 C   0  0  0  0  0  0  0  0  0  0  0  0
  -87.0377   34.8153   -3.7252 C   0  0  0  0  0  0  0  0  0  0  0  0
  -89.0367   33.5213   -4.6190 N   0  0  0  0  0  0  0  0  0  0  0  0
  -89.7533   34.4872   -5.2965 C   0  0  0  0  0  0  0  0  0  0  0  0
  -90.5616   34.0770   -6.2710 O   0  0  0  0  0  0  0  0  0  0  0  0
  -89.7615   35.9253   -5.0891 C   0  0  0  0  0  0  0  0  0  0  0  0
  -90.4694   36.5552   -4.0383 C   0  0  0  0  0  0  0  0  0  0  0  0
  -90.2473   37.9010   -4.1431 C   0  0  0  0  0  0  0  0  0  0  0  0
  -89.4339   38.0818   -5.2189 C   0  0  0  0  0  0  0  0  0  0  0  0
  -88.9537   39.4209   -5.6741 C   0  0  0  0  0  0  0  0  0  0  0  0
  -89.2007   36.9155   -5.7046 O   0  0  0  0  0  0  0  0  0  0  0  0
  -91.4655   30.6169   -4.8999 C   0  0  0  0  0  0  0  0  0  0  0  0
  -90.8658   31.9515   -4.4582 C   0  0  0  0  0  0  0  0  0  0  0  0
  -88.9793   31.4243   -0.9870 C   0  0  0  0  0  0  0  0  0  0  0  0
  -87.9003   30.6713   -0.3120 C   0  0  0  0  0  0  0  0  0  0  0  0
  -87.9996   29.3585    0.0652 C   0  0  0  0  0  0  0  0  0  0  0  0
  -86.9326   28.7679    0.6899 C   0  0  0  0  0  0  0  0  0  0  0  0
  -85.7730   29.4781    0.9384 C   0  0  0  0  0  0  0  0  0  0  0  0
  -84.6670   28.8339    1.6106 N   0  0  0  0  0  0  0  0  0  0  0  0
  -83.4989   29.6004    1.8599 C   0  0  0  0  0  0  0  0  0  0  0  0
  -82.3665   29.0771    1.9703 O   0  0  0  0  0  0  0  0  0  0  0  0
  -83.7002   31.0671    1.9829 C   0  0  0  0  0  0  0  0  0  0  0  0
  -84.4527   31.5973    0.7891 C   0  0  0  0  0  0  0  0  0  0  0  0
  -85.6863   30.7949    0.5541 C   0  0  0  0  0  0  0  0  0  0  0  0
  -86.7621   31.3241   -0.0544 N   0  0  0  0  0  0  0  0  0  0  0  0
  -84.7525   27.8468    1.8865 H   0  0  0  0  0  0  0  0  0  0  0  0
 17 18  1  0  0  0
 18  1  1  0  0  0
  1  2  1  0  0  0
  2  3  1  0  0  0
  3  4  1  0  0  0
  4 19  1  0  0  0
 19 20  1  0  0  0
 20 21  2  0  0  0
 21 22  1  0  0  0
 22 23  2  0  0  0
 23 24  1  0  0  0
 24 25  1  0  0  0
 25 26  2  0  0  0
 25 27  1  0  0  0
 27 28  1  0  0  0
 28 29  1  0  0  0
 29 30  2  0  0  0
  4  5  1  0  0  0
  5  6  1  0  0  0
  6  7  1  0  0  0
  6  8  1  0  0  0
  8  9  1  0  0  0
  9 10  2  0  0  0
  9 11  1  0  0  0
 11 12  2  0  0  0
 12 13  1  0  0  0
 13 14  2  0  0  0
 14 15  1  0  0  0
 14 16  1  0  0  0
  8  1  1  0  0  0
 16 11  1  0  0  0
 30 20  1  0  0  0
 29 23  1  0  0  0
 24 31  1  0  0  0
M  END
> <minimizedAffinity>
-8.25173

> <CNNscore>
0.0984731019

> <CNNaffinity>
6.0362305641

> <CNN_VS>
0.5944063663

> <CNNaffinity_variance>
0.1795538217

$$$$
[H]c1c(C([H])([H])N2C([H])([H])C([H])([H])[C@@]([H])(C([H])([H])C([H])([H])[H])N(C(=O)c3oc(C([H])([H])[H])c([H])c3[H])[C@@]([H])(C([H])([H])[H])C2([H])[H])nc2c(c1[H])N([H])C(=O)C([H])([H])C2([H])[H]


 31 34  0  0  0  0  0  0  0  0999 V2000
  -88.6484   29.8781   -3.5152 C   0  0  0  0  0  0  0  0  0  0  0  0
  -87.4723   30.6910   -3.9381 C   0  0  0  0  0  0  0  0  0  0  0  0
  -87.1903   31.9504   -3.2278 C   0  0  0  0  0  0  0  0  0  0  0  0
  -87.9865   32.3548   -2.1426 N   0  0  0  0  0  0  0  0  0  0  0  0
  -89.3384   32.6980   -2.3177 C   0  0  0  0  0  0  0  0  0  0  0  0
  -89.8356   32.1305   -3.6315 C   0  0  0  0  0  0  0  0  0  0  0  0
  -90.8509   32.9656   -4.2475 C   0  0  0  0  0  0  0  0  0  0  0  0
  -89.8924   30.7302   -3.5037 N   0  0  0  0  0  0  0  0  0  0  0  0
  -91.0077   29.9190   -3.4447 C   0  0  0  0  0  0  0  0  0  0  0  0
  -90.8172   28.6081   -3.5732 O   0  0  0  0  0  0  0  0  0  0  0  0
  -92.3968   30.2969   -3.2477 C   0  0  0  0  0  0  0  0  0  0  0  0
  -93.4830   29.4273   -3.5045 C   0  0  0  0  0  0  0  0  0  0  0  0
  -94.6319   30.1062   -3.2035 C   0  0  0  0  0  0  0  0  0  0  0  0
  -94.2569   31.3435   -2.7793 C   0  0  0  0  0  0  0  0  0  0  0  0
  -95.2251   32.3979   -2.3529 C   0  0  0  0  0  0  0  0  0  0  0  0
  -92.9737   31.3777   -2.8316 O   0  0  0  0  0  0  0  0  0  0  0  0
  -87.4209   28.2164   -2.1171 C   0  0  0  0  0  0  0  0  0  0  0  0
  -88.4985   29.3001   -2.1445 C   0  0  0  0  0  0  0  0  0  0  0  0
  -87.3128   32.9434   -1.0461 C   0  0  0  0  0  0  0  0  0  0  0  0
  -86.3168   32.1010   -0.3494 C   0  0  0  0  0  0  0  0  0  0  0  0
  -84.9867   32.4108   -0.2459 C   0  0  0  0  0  0  0  0  0  0  0  0
  -84.1573   31.5477    0.4209 C   0  0  0  0  0  0  0  0  0  0  0  0
  -84.6468   30.3832    0.9820 C   0  0  0  0  0  0  0  0  0  0  0  0
  -83.7471   29.4841    1.6692 N   0  0  0  0  0  0  0  0  0  0  0  0
  -84.2855   28.2920    2.2198 C   0  0  0  0  0  0  0  0  0  0  0  0
  -83.7636   27.7128    3.1999 O   0  0  0  0  0  0  0  0  0  0  0  0
  -85.5103   27.7695    1.5613 C   0  0  0  0  0  0  0  0  0  0  0  0
  -86.5600   28.8475    1.4704 C   0  0  0  0  0  0  0  0  0  0  0  0
  -85.9839   30.0846    0.8713 C   0  0  0  0  0  0  0  0  0  0  0  0
  -86.7520   30.9656    0.2068 N   0  0  0  0  0  0  0  0  0  0  0  0
  -82.7509   29.7289    1.7428 H   0  0  0  0  0  0  0  0  0  0  0  0
 17 18  1  0  0  0
 18  1  1  0  0  0
  1  2  1  0  0  0
  2  3  1  0  0  0
  3  4  1  0  0  0
  4 19  1  0  0  0
 19 20  1  0  0  0
 20 21  2  0  0  0
 21 22  1  0  0  0
 22 23  2  0  0  0
 23 24  1  0  0  0
 24 25  1  0  0  0
 25 26  2  0  0  0
 25 27  1  0  0  0
 27 28  1  0  0  0
 28 29  1  0  0  0
 29 30  2  0  0  0
  4  5  1  0  0  0
  5  6  1  0  0  0
  6  7  1  0  0  0
  6  8  1  0  0  0
  8  9  1  0  0  0
  9 10  2  0  0  0
  9 11  1  0  0  0
 11 12  2  0  0  0
 12 13  1  0  0  0
 13 14  2  0  0  0
 14 15  1  0  0  0
 14 16  1  0  0  0
  8  1  1  0  0  0
 16 11  1  0  0  0
 30 20  1  0  0  0
 29 23  1  0  0  0
 24 31  1  0  0  0
M  END
> <minimizedAffinity>
-7.78880

> <CNNscore>
0.0943749845

> <CNNaffinity>
6.3571863174

> <CNN_VS>
0.5999593735

> <CNNaffinity_variance>
0.1061053872

$$$$
[H]c1c(C([H])([H])N2C([H])([H])C([H])([H])[C@@]([H])(C([H])([H])C([H])([H])[H])N(C(=O)c3oc(C([H])([H])[H])c([H])c3[H])[C@@]([H])(C([H])([H])[H])C2([H])[H])nc2c(c1[H])N([H])C(=O)C([H])([H])C2([H])[H]


 31 34  0  0  0  0  0  0  0  0999 V2000
  -87.0704   28.3197   -0.4360 C   0  0  0  0  0  0  0  0  0  0  0  0
  -87.3765   28.9767   -1.7388 C   0  0  0  0  0  0  0  0  0  0  0  0
  -88.4172   30.0186   -1.7787 C   0  0  0  0  0  0  0  0  0  0  0  0
  -89.0761   30.4185   -0.6035 N   0  0  0  0  0  0  0  0  0  0  0  0
  -89.9159   29.5361    0.0981 C   0  0  0  0  0  0  0  0  0  0  0  0
  -89.6078   28.1118   -0.3160 C   0  0  0  0  0  0  0  0  0  0  0  0
  -90.7804   27.2568   -0.2763 C   0  0  0  0  0  0  0  0  0  0  0  0
  -88.3348   27.7816    0.1847 N   0  0  0  0  0  0  0  0  0  0  0  0
  -88.0137   26.8988    1.1962 C   0  0  0  0  0  0  0  0  0  0  0  0
  -86.7329   26.5626    1.3299 O   0  0  0  0  0  0  0  0  0  0  0  0
  -88.8928   26.2731    2.1693 C   0  0  0  0  0  0  0  0  0  0  0  0
  -89.2777   26.8933    3.3814 C   0  0  0  0  0  0  0  0  0  0  0  0
  -90.1075   26.0276    4.0396 C   0  0  0  0  0  0  0  0  0  0  0  0
  -90.2224   24.9214    3.2555 C   0  0  0  0  0  0  0  0  0  0  0  0
  -91.0493   23.7327    3.6221 C   0  0  0  0  0  0  0  0  0  0  0  0
  -89.5052   25.1341    2.2111 O   0  0  0  0  0  0  0  0  0  0  0  0
  -85.0387   29.6480    0.1388 C   0  0  0  0  0  0  0  0  0  0  0  0
  -86.4535   29.2502    0.5585 C   0  0  0  0  0  0  0  0  0  0  0  0
  -89.3398   31.8018   -0.4635 C   0  0  0  0  0  0  0  0  0  0  0  0
  -88.5598   32.7166   -1.3246 C   0  0  0  0  0  0  0  0  0  0  0  0
  -87.2049   32.8925   -1.2295 C   0  0  0  0  0  0  0  0  0  0  0  0
  -86.5916   33.7740   -2.0807 C   0  0  0  0  0  0  0  0  0  0  0  0
  -87.3208   34.4768   -3.0214 C   0  0  0  0  0  0  0  0  0  0  0  0
  -86.6502   35.4101   -3.8986 N   0  0  0  0  0  0  0  0  0  0  0  0
  -87.4354   36.1226   -4.8418 C   0  0  0  0  0  0  0  0  0  0  0  0
  -86.9610   36.5531   -5.9179 O   0  0  0  0  0  0  0  0  0  0  0  0
  -88.8601   36.3289   -4.4750 C   0  0  0  0  0  0  0  0  0  0  0  0
  -89.5060   35.0159   -4.1128 C   0  0  0  0  0  0  0  0  0  0  0  0
  -88.6799   34.2905   -3.1066 C   0  0  0  0  0  0  0  0  0  0  0  0
  -89.2298   33.4145   -2.2476 N   0  0  0  0  0  0  0  0  0  0  0  0
  -85.6319   35.5314   -3.8195 H   0  0  0  0  0  0  0  0  0  0  0  0
 17 18  1  0  0  0
 18  1  1  0  0  0
  1  2  1  0  0  0
  2  3  1  0  0  0
  3  4  1  0  0  0
  4 19  1  0  0  0
 19 20  1  0  0  0
 20 21  2  0  0  0
 21 22  1  0  0  0
 22 23  2  0  0  0
 23 24  1  0  0  0
 24 25  1  0  0  0
 25 26  2  0  0  0
 25 27  1  0  0  0
 27 28  1  0  0  0
 28 29  1  0  0  0
 29 30  2  0  0  0
  4  5  1  0  0  0
  5  6  1  0  0  0
  6  7  1  0  0  0
  6  8  1  0  0  0
  8  9  1  0  0  0
  9 10  2  0  0  0
  9 11  1  0  0  0
 11 12  2  0  0  0
 12 13  1  0  0  0
 13 14  2  0  0  0
 14 15  1  0  0  0
 14 16  1  0  0  0
  8  1  1  0  0  0
 16 11  1  0  0  0
 30 20  1  0  0  0
 29 23  1  0  0  0
 24 31  1  0  0  0
M  END
> <minimizedAffinity>
-8.84314

> <CNNscore>
0.0892966837

> <CNNaffinity>
6.1759405136

> <CNN_VS>
0.5514910221

> <CNNaffinity_variance>
0.1180224791

$$$$
[H]c1nc(C(=O)N([H])c2c([H])c([H])c(Cl)c(OC([H])([H])[H])c2[H])oc1C(=O)N1C([H])([H])C([H])([H])C([H])([H])C([H])([H])[C@]1([H])C([H])([H])[H]


 27 29  0  0  0  0  0  0  0  0999 V2000
  -84.8127   31.7788    0.0102 C   0  0  0  0  0  0  0  0  0  0  0  0
  -83.9127   32.7557   -0.2848 C   0  0  0  0  0  0  0  0  0  0  0  0
  -84.5508   33.6090   -1.1476 N   0  0  0  0  0  0  0  0  0  0  0  0
  -85.7893   33.1502   -1.3556 C   0  0  0  0  0  0  0  0  0  0  0  0
  -85.9272   32.0703   -0.6653 O   0  0  0  0  0  0  0  0  0  0  0  0
  -84.1550   28.3962    2.6876 C   0  0  0  0  0  0  0  0  0  0  0  0
  -85.2135   28.2778    1.6579 C   0  0  0  0  0  0  0  0  0  0  0  0
  -86.5845   28.0105    2.2621 C   0  0  0  0  0  0  0  0  0  0  0  0
  -87.4201   27.4022    1.1571 C   0  0  0  0  0  0  0  0  0  0  0  0
  -86.9199   27.7383   -0.2055 C   0  0  0  0  0  0  0  0  0  0  0  0
  -86.3697   29.1609   -0.2891 C   0  0  0  0  0  0  0  0  0  0  0  0
  -85.3946   29.3943    0.7556 N   0  0  0  0  0  0  0  0  0  0  0  0
  -84.7158   30.6083    0.8621 C   0  0  0  0  0  0  0  0  0  0  0  0
  -83.8730   30.7574    1.8393 O   0  0  0  0  0  0  0  0  0  0  0  0
  -86.8252   33.7492   -2.2111 C   0  0  0  0  0  0  0  0  0  0  0  0
  -87.9797   33.7710   -1.7552 O   0  0  0  0  0  0  0  0  0  0  0  0
  -86.4573   34.2501   -3.4645 N   0  0  0  0  0  0  0  0  0  0  0  0
  -85.4119   34.1561   -3.7093 H   0  0  0  0  0  0  0  0  0  0  0  0
  -87.2872   34.8569   -4.4206 C   0  0  0  0  0  0  0  0  0  0  0  0
  -88.4419   34.3161   -4.9390 C   0  0  0  0  0  0  0  0  0  0  0  0
  -89.1976   34.9962   -5.9015 C   0  0  0  0  0  0  0  0  0  0  0  0
  -88.7864   36.2292   -6.3435 C   0  0  0  0  0  0  0  0  0  0  0  0
  -89.6814   37.1291   -7.5407 Cl  0  0  0  0  0  0  0  0  0  0  0  0
  -87.6447   36.7943   -5.8488 C   0  0  0  0  0  0  0  0  0  0  0  0
  -86.9209   36.1188   -4.9127 C   0  0  0  0  0  0  0  0  0  0  0  0
  -87.1908   38.0494   -6.2727 O   0  0  0  0  0  0  0  0  0  0  0  0
  -85.8418   38.4188   -6.1161 C   0  0  0  0  0  0  0  0  0  0  0  0
  6  7  1  0  0  0
  7  8  1  0  0  0
  8  9  1  0  0  0
  9 10  1  0  0  0
 10 11  1  0  0  0
 11 12  1  0  0  0
 12 13  1  0  0  0
 13 14  2  0  0  0
 13  1  1  0  0  0
  1  2  2  0  0  0
  2  3  1  0  0  0
  3  4  2  0  0  0
  4  5  1  0  0  0
  4 15  1  0  0  0
 15 16  2  0  0  0
 15 17  1  0  0  0
 17 19  1  0  0  0
 19 20  2  0  0  0
 20 21  1  0  0  0
 21 22  2  0  0  0
 22 23  1  0  0  0
 22 24  1  0  0  0
 24 26  1  0  0  0
 26 27  1  0  0  0
 24 25  2  0  0  0
 12  7  1  0  0  0
  5  1  1  0  0  0
 25 19  1  0  0  0
 17 18  1  0  0  0
M  END
> <minimizedAffinity>
-7.84419

> <CNNscore>
0.7927681804

> <CNNaffinity>
6.3583517075

> <CNN_VS>
5.0406990051

> <CNNaffinity_variance>
0.1510958821

$$$$
[H]c1nc(C(=O)N([H])c2c([H])c([H])c(Cl)c(OC([H])([H])[H])c2[H])oc1C(=O)N1C([H])([H])C([H])([H])C([H])([H])C([H])([H])[C@]1([H])C([H])([H])[H]


 27 29  0  0  0  0  0  0  0  0999 V2000
  -84.9128   31.8005   -0.0584 C   0  0  0  0  0  0  0  0  0  0  0  0
  -83.9927   32.7529   -0.3711 C   0  0  0  0  0  0  0  0  0  0  0  0
  -84.6172   33.6108   -1.2392 N   0  0  0  0  0  0  0  0  0  0  0  0
  -85.8674   33.1785   -1.4332 C   0  0  0  0  0  0  0  0  0  0  0  0
  -86.0252   32.1101   -0.7295 O   0  0  0  0  0  0  0  0  0  0  0  0
  -84.3244   28.4470    2.6711 C   0  0  0  0  0  0  0  0  0  0  0  0
  -85.3392   28.3081    1.6009 C   0  0  0  0  0  0  0  0  0  0  0  0
  -86.7302   28.0292    2.1518 C   0  0  0  0  0  0  0  0  0  0  0  0
  -87.5136   27.4025    1.0192 C   0  0  0  0  0  0  0  0  0  0  0  0
  -86.9629   27.7338   -0.3250 C   0  0  0  0  0  0  0  0  0  0  0  0
  -86.4263   29.1621   -0.3983 C   0  0  0  0  0  0  0  0  0  0  0  0
  -85.4967   29.4153    0.6828 N   0  0  0  0  0  0  0  0  0  0  0  0
  -84.8368   30.6380    0.8063 C   0  0  0  0  0  0  0  0  0  0  0  0
  -84.0357   30.8048    1.8153 O   0  0  0  0  0  0  0  0  0  0  0  0
  -86.8954   33.7914   -2.2884 C   0  0  0  0  0  0  0  0  0  0  0  0
  -88.0289   33.9124   -1.7968 O   0  0  0  0  0  0  0  0  0  0  0  0
  -86.5437   34.1948   -3.5811 N   0  0  0  0  0  0  0  0  0  0  0  0
  -85.5157   34.0209   -3.8541 H   0  0  0  0  0  0  0  0  0  0  0  0
  -87.3694   34.7967   -4.5438 C   0  0  0  0  0  0  0  0  0  0  0  0
  -87.1297   36.0009   -5.1658 C   0  0  0  0  0  0  0  0  0  0  0  0
  -88.0229   36.5258   -6.1075 C   0  0  0  0  0  0  0  0  0  0  0  0
  -89.1646   35.8320   -6.4238 C   0  0  0  0  0  0  0  0  0  0  0  0
  -90.3185   36.4298   -7.5878 Cl  0  0  0  0  0  0  0  0  0  0  0  0
  -89.4321   34.6333   -5.8245 C   0  0  0  0  0  0  0  0  0  0  0  0
  -88.5523   34.1368   -4.9101 C   0  0  0  0  0  0  0  0  0  0  0  0
  -90.5845   33.8943   -6.1188 O   0  0  0  0  0  0  0  0  0  0  0  0
  -91.0415   32.8919   -5.2429 C   0  0  0  0  0  0  0  0  0  0  0  0
  6  7  1  0  0  0
  7  8  1  0  0  0
  8  9  1  0  0  0
  9 10  1  0  0  0
 10 11  1  0  0  0
 11 12  1  0  0  0
 12 13  1  0  0  0
 13 14  2  0  0  0
 13  1  1  0  0  0
  1  2  2  0  0  0
  2  3  1  0  0  0
  3  4  2  0  0  0
  4  5  1  0  0  0
  4 15  1  0  0  0
 15 16  2  0  0  0
 15 17  1  0  0  0
 17 19  1  0  0  0
 19 20  2  0  0  0
 20 21  1  0  0  0
 21 22  2  0  0  0
 22 23  1  0  0  0
 22 24  1  0  0  0
 24 26  1  0  0  0
 26 27  1  0  0  0
 24 25  2  0  0  0
 12  7  1  0  0  0
  5  1  1  0  0  0
 25 19  1  0  0  0
 17 18  1  0  0  0
M  END
> <minimizedAffinity>
-7.77319

> <CNNscore>
0.7163493037

> <CNNaffinity>
6.3530349731

> <CNN_VS>
4.5509920120

> <CNNaffinity_variance>
0.0629069731

$$$$
[H]c1nc(C(=O)N([H])c2c([H])c([H])c(Cl)c(OC([H])([H])[H])c2[H])oc1C(=O)N1C([H])([H])C([H])([H])C([H])([H])C([H])([H])[C@]1([H])C([H])([H])[H]


 27 29  0  0  0  0  0  0  0  0999 V2000
  -89.2100   35.5383   -4.4694 C   0  0  0  0  0  0  0  0  0  0  0  0
  -88.4390   36.5266   -3.9401 C   0  0  0  0  0  0  0  0  0  0  0  0
  -87.4771   35.8963   -3.1938 N   0  0  0  0  0  0  0  0  0  0  0  0
  -87.6739   34.5767   -3.2796 C   0  0  0  0  0  0  0  0  0  0  0  0
  -88.6998   34.3828   -4.0356 O   0  0  0  0  0  0  0  0  0  0  0  0
  -92.4481   35.6367   -7.3931 C   0  0  0  0  0  0  0  0  0  0  0  0
  -92.7236   36.1390   -6.0270 C   0  0  0  0  0  0  0  0  0  0  0  0
  -93.8591   35.3859   -5.3490 C   0  0  0  0  0  0  0  0  0  0  0  0
  -94.3723   36.2950   -4.2539 C   0  0  0  0  0  0  0  0  0  0  0  0
  -93.3662   37.3003   -3.8103 C   0  0  0  0  0  0  0  0  0  0  0  0
  -91.9458   36.7384   -3.8036 C   0  0  0  0  0  0  0  0  0  0  0  0
  -91.6296   36.1323   -5.0802 N   0  0  0  0  0  0  0  0  0  0  0  0
  -90.3719   35.5863   -5.3371 C   0  0  0  0  0  0  0  0  0  0  0  0
  -90.1659   35.0360   -6.4956 O   0  0  0  0  0  0  0  0  0  0  0  0
  -86.8795   33.5176   -2.6383 C   0  0  0  0  0  0  0  0  0  0  0  0
  -87.0135   32.3696   -3.0912 O   0  0  0  0  0  0  0  0  0  0  0  0
  -86.0354   33.8583   -1.5758 N   0  0  0  0  0  0  0  0  0  0  0  0
  -86.0330   34.9016   -1.3058 H   0  0  0  0  0  0  0  0  0  0  0  0
  -85.2005   33.0037   -0.8386 C   0  0  0  0  0  0  0  0  0  0  0  0
  -83.8295   33.0956   -0.7577 C   0  0  0  0  0  0  0  0  0  0  0  0
  -83.0808   32.1845   -0.0031 C   0  0  0  0  0  0  0  0  0  0  0  0
  -83.7187   31.1749    0.6741 C   0  0  0  0  0  0  0  0  0  0  0  0
  -82.8454   30.0069    1.6318 Cl  0  0  0  0  0  0  0  0  0  0  0  0
  -85.0788   31.0559    0.6148 C   0  0  0  0  0  0  0  0  0  0  0  0
  -85.7923   31.9509   -0.1244 C   0  0  0  0  0  0  0  0  0  0  0  0
  -85.7677   30.0411    1.2905 O   0  0  0  0  0  0  0  0  0  0  0  0
  -86.7095   29.2389    0.6195 C   0  0  0  0  0  0  0  0  0  0  0  0
  6  7  1  0  0  0
  7  8  1  0  0  0
  8  9  1  0  0  0
  9 10  1  0  0  0
 10 11  1  0  0  0
 11 12  1  0  0  0
 12 13  1  0  0  0
 13 14  2  0  0  0
 13  1  1  0  0  0
  1  2  2  0  0  0
  2  3  1  0  0  0
  3  4  2  0  0  0
  4  5  1  0  0  0
  4 15  1  0  0  0
 15 16  2  0  0  0
 15 17  1  0  0  0
 17 19  1  0  0  0
 19 20  2  0  0  0
 20 21  1  0  0  0
 21 22  2  0  0  0
 22 23  1  0  0  0
 22 24  1  0  0  0
 24 26  1  0  0  0
 26 27  1  0  0  0
 24 25  2  0  0  0
 12  7  1  0  0  0
  5  1  1  0  0  0
 25 19  1  0  0  0
 17 18  1  0  0  0
M  END
> <minimizedAffinity>
-6.85179

> <CNNscore>
0.4171693623

> <CNNaffinity>
5.5739006996

> <CNN_VS>
2.3252606392

> <CNNaffinity_variance>
0.0977453664

$$$$
[H]c1nc(C(=O)N([H])c2c([H])c([H])c(Cl)c(OC([H])([H])[H])c2[H])oc1C(=O)N1C([H])([H])C([H])([H])C([H])([H])C([H])([H])[C@]1([H])C([H])([H])[H]


 27 29  0  0  0  0  0  0  0  0999 V2000
  -89.5460   34.7544   -3.6572 C   0  0  0  0  0  0  0  0  0  0  0  0
  -89.8638   33.6581   -4.3978 C   0  0  0  0  0  0  0  0  0  0  0  0
  -89.5488   32.5733   -3.6209 N   0  0  0  0  0  0  0  0  0  0  0  0
  -89.0601   33.0153   -2.4575 C   0  0  0  0  0  0  0  0  0  0  0  0
  -89.0654   34.3037   -2.4956 O   0  0  0  0  0  0  0  0  0  0  0  0
  -90.2629   38.9532   -4.6053 C   0  0  0  0  0  0  0  0  0  0  0  0
  -88.8620   38.4730   -4.5719 C   0  0  0  0  0  0  0  0  0  0  0  0
  -88.0116   39.2319   -3.5633 C   0  0  0  0  0  0  0  0  0  0  0  0
  -86.5740   39.0350   -3.9921 C   0  0  0  0  0  0  0  0  0  0  0  0
  -86.3758   37.8186   -4.8293 C   0  0  0  0  0  0  0  0  0  0  0  0
  -87.2596   36.6551   -4.3837 C   0  0  0  0  0  0  0  0  0  0  0  0
  -88.6437   37.0705   -4.2909 N   0  0  0  0  0  0  0  0  0  0  0  0
  -89.6534   36.1725   -3.9447 C   0  0  0  0  0  0  0  0  0  0  0  0
  -90.8697   36.6199   -3.8556 O   0  0  0  0  0  0  0  0  0  0  0  0
  -88.5942   32.2012   -1.3244 C   0  0  0  0  0  0  0  0  0  0  0  0
  -89.3521   32.1260   -0.3440 O   0  0  0  0  0  0  0  0  0  0  0  0
  -87.3484   31.5708   -1.4147 N   0  0  0  0  0  0  0  0  0  0  0  0
  -86.8147   31.7355   -2.3364 H   0  0  0  0  0  0  0  0  0  0  0  0
  -86.7302   30.7560   -0.4530 C   0  0  0  0  0  0  0  0  0  0  0  0
  -87.1743   29.5186   -0.0454 C   0  0  0  0  0  0  0  0  0  0  0  0
  -86.4927   28.7851    0.9330 C   0  0  0  0  0  0  0  0  0  0  0  0
  -85.3562   29.3026    1.5035 C   0  0  0  0  0  0  0  0  0  0  0  0
  -84.4601   28.4408    2.7276 Cl  0  0  0  0  0  0  0  0  0  0  0  0
  -84.8885   30.5283    1.1209 C   0  0  0  0  0  0  0  0  0  0  0  0
  -85.5641   31.2291    0.1675 C   0  0  0  0  0  0  0  0  0  0  0  0
  -83.7336   31.0917    1.6776 O   0  0  0  0  0  0  0  0  0  0  0  0
  -82.9811   32.0444    0.9657 C   0  0  0  0  0  0  0  0  0  0  0  0
  6  7  1  0  0  0
  7  8  1  0  0  0
  8  9  1  0  0  0
  9 10  1  0  0  0
 10 11  1  0  0  0
 11 12  1  0  0  0
 12 13  1  0  0  0
 13 14  2  0  0  0
 13  1  1  0  0  0
  1  2  2  0  0  0
  2  3  1  0  0  0
  3  4  2  0  0  0
  4  5  1  0  0  0
  4 15  1  0  0  0
 15 16  2  0  0  0
 15 17  1  0  0  0
 17 19  1  0  0  0
 19 20  2  0  0  0
 20 21  1  0  0  0
 21 22  2  0  0  0
 22 23  1  0  0  0
 22 24  1  0  0  0
 24 26  1  0  0  0
 26 27  1  0  0  0
 24 25  2  0  0  0
 12  7  1  0  0  0
  5  1  1  0  0  0
 25 19  1  0  0  0
 17 18  1  0  0  0
M  END
> <minimizedAffinity>
-7.11784

> <CNNscore>
0.2653326392

> <CNNaffinity>
5.6005220413

> <CNN_VS>
1.4860012531

> <CNNaffinity_variance>
0.1545838416

$$$$
[H]c1nc(C(=O)N([H])c2c([H])c([H])c(Cl)c(OC([H])([H])[H])c2[H])oc1C(=O)N1C([H])([H])C([H])([H])C([H])([H])C([H])([H])[C@]1([H])C([H])([H])[H]


 27 29  0  0  0  0  0  0  0  0999 V2000
  -88.1925   34.9971   -5.0754 C   0  0  0  0  0  0  0  0  0  0  0  0
  -87.3722   35.6371   -4.1986 C   0  0  0  0  0  0  0  0  0  0  0  0
  -86.9792   34.6897   -3.2888 N   0  0  0  0  0  0  0  0  0  0  0  0
  -87.5497   33.5263   -3.6181 C   0  0  0  0  0  0  0  0  0  0  0  0
  -88.2618   33.7252   -4.6741 O   0  0  0  0  0  0  0  0  0  0  0  0
  -90.1058   36.7576   -8.5801 C   0  0  0  0  0  0  0  0  0  0  0  0
  -90.8126   35.6651   -7.8720 C   0  0  0  0  0  0  0  0  0  0  0  0
  -91.0972   34.4749   -8.7769 C   0  0  0  0  0  0  0  0  0  0  0  0
  -92.2312   33.7133   -8.1264 C   0  0  0  0  0  0  0  0  0  0  0  0
  -92.3445   33.9715   -6.6635 C   0  0  0  0  0  0  0  0  0  0  0  0
  -90.9811   34.1320   -5.9935 C   0  0  0  0  0  0  0  0  0  0  0  0
  -90.1810   35.1167   -6.6915 N   0  0  0  0  0  0  0  0  0  0  0  0
  -88.9087   35.4730   -6.2440 C   0  0  0  0  0  0  0  0  0  0  0  0
  -88.2367   36.3449   -6.9337 O   0  0  0  0  0  0  0  0  0  0  0  0
  -87.4074   32.2394   -2.9200 C   0  0  0  0  0  0  0  0  0  0  0  0
  -87.7200   31.2219   -3.5588 O   0  0  0  0  0  0  0  0  0  0  0  0
  -86.9374   32.2360   -1.6022 N   0  0  0  0  0  0  0  0  0  0  0  0
  -86.7080   33.2062   -1.1926 H   0  0  0  0  0  0  0  0  0  0  0  0
  -86.7302   31.1241   -0.7706 C   0  0  0  0  0  0  0  0  0  0  0  0
  -87.6273   30.1015   -0.5608 C   0  0  0  0  0  0  0  0  0  0  0  0
  -87.3323   29.0379    0.3004 C   0  0  0  0  0  0  0  0  0  0  0  0
  -86.1251   29.0052    0.9536 C   0  0  0  0  0  0  0  0  0  0  0  0
  -85.6953   27.7094    2.0399 Cl  0  0  0  0  0  0  0  0  0  0  0  0
  -85.2122   30.0048    0.7669 C   0  0  0  0  0  0  0  0  0  0  0  0
  -85.5154   31.0328   -0.0745 C   0  0  0  0  0  0  0  0  0  0  0  0
  -83.9701   30.0093    1.4136 O   0  0  0  0  0  0  0  0  0  0  0  0
  -83.0072   30.9923    1.1184 C   0  0  0  0  0  0  0  0  0  0  0  0
  6  7  1  0  0  0
  7  8  1  0  0  0
  8  9  1  0  0  0
  9 10  1  0  0  0
 10 11  1  0  0  0
 11 12  1  0  0  0
 12 13  1  0  0  0
 13 14  2  0  0  0
 13  1  1  0  0  0
  1  2  2  0  0  0
  2  3  1  0  0  0
  3  4  2  0  0  0
  4  5  1  0  0  0
  4 15  1  0  0  0
 15 16  2  0  0  0
 15 17  1  0  0  0
 17 19  1  0  0  0
 19 20  2  0  0  0
 20 21  1  0  0  0
 21 22  2  0  0  0
 22 23  1  0  0  0
 22 24  1  0  0  0
 24 26  1  0  0  0
 26 27  1  0  0  0
 24 25  2  0  0  0
 12  7  1  0  0  0
  5  1  1  0  0  0
 25 19  1  0  0  0
 17 18  1  0  0  0
M  END
> <minimizedAffinity>
-7.00320

> <CNNscore>
0.2636577785

> <CNNaffinity>
5.6371941566

> <CNN_VS>
1.4862900972

> <CNNaffinity_variance>
0.1085040346

$$$$
[H]c1nc(C(=O)N([H])c2c([H])c([H])c(Cl)c(OC([H])([H])[H])c2[H])oc1C(=O)N1C([H])([H])C([H])([H])C([H])([H])C([H])([H])[C@]1([H])C([H])([H])[H]


 27 29  0  0  0  0  0  0  0  0999 V2000
  -87.0862   29.2712   -1.0005 C   0  0  0  0  0  0  0  0  0  0  0  0
  -87.6055   28.2298   -1.7055 C   0  0  0  0  0  0  0  0  0  0  0  0
  -88.0695   28.7630   -2.8803 N   0  0  0  0  0  0  0  0  0  0  0  0
  -87.8316   30.0786   -2.8693 C   0  0  0  0  0  0  0  0  0  0  0  0
  -87.2512   30.3617   -1.7537 O   0  0  0  0  0  0  0  0  0  0  0  0
  -85.5503   29.3302    3.0836 C   0  0  0  0  0  0  0  0  0  0  0  0
  -84.7761   30.0339    2.0349 C   0  0  0  0  0  0  0  0  0  0  0  0
  -83.3561   29.5018    1.9053 C   0  0  0  0  0  0  0  0  0  0  0  0
  -82.5561   30.5962    1.2335 C   0  0  0  0  0  0  0  0  0  0  0  0
  -83.4010   31.5379    0.4466 C   0  0  0  0  0  0  0  0  0  0  0  0
  -84.5633   30.8333   -0.2506 C   0  0  0  0  0  0  0  0  0  0  0  0
  -85.3174   30.0348    0.6931 N   0  0  0  0  0  0  0  0  0  0  0  0
  -86.4562   29.3287    0.3052 C   0  0  0  0  0  0  0  0  0  0  0  0
  -87.0692   28.6123    1.1988 O   0  0  0  0  0  0  0  0  0  0  0  0
  -88.1618   31.0487   -3.9247 C   0  0  0  0  0  0  0  0  0  0  0  0
  -88.0692   30.6495   -5.0965 O   0  0  0  0  0  0  0  0  0  0  0  0
  -88.5533   32.3399   -3.5546 N   0  0  0  0  0  0  0  0  0  0  0  0
  -88.5848   32.5252   -2.4934 H   0  0  0  0  0  0  0  0  0  0  0  0
  -88.9090   33.4017   -4.4013 C   0  0  0  0  0  0  0  0  0  0  0  0
  -90.1739   33.6557   -4.8809 C   0  0  0  0  0  0  0  0  0  0  0  0
  -90.4271   34.7370   -5.7333 C   0  0  0  0  0  0  0  0  0  0  0  0
  -89.3984   35.5674   -6.1040 C   0  0  0  0  0  0  0  0  0  0  0  0
  -89.6459   36.9316   -7.1630 Cl  0  0  0  0  0  0  0  0  0  0  0  0
  -88.1309   35.3431   -5.6451 C   0  0  0  0  0  0  0  0  0  0  0  0
  -87.9018   34.2860   -4.8164 C   0  0  0  0  0  0  0  0  0  0  0  0
  -87.0544   36.1657   -5.9989 O   0  0  0  0  0  0  0  0  0  0  0  0
  -86.5695   37.1415   -5.1081 C   0  0  0  0  0  0  0  0  0  0  0  0
  6  7  1  0  0  0
  7  8  1  0  0  0
  8  9  1  0  0  0
  9 10  1  0  0  0
 10 11  1  0  0  0
 11 12  1  0  0  0
 12 13  1  0  0  0
 13 14  2  0  0  0
 13  1  1  0  0  0
  1  2  2  0  0  0
  2  3  1  0  0  0
  3  4  2  0  0  0
  4  5  1  0  0  0
  4 15  1  0  0  0
 15 16  2  0  0  0
 15 17  1  0  0  0
 17 19  1  0  0  0
 19 20  2  0  0  0
 20 21  1  0  0  0
 21 22  2  0  0  0
 22 23  1  0  0  0
 22 24  1  0  0  0
 24 26  1  0  0  0
 26 27  1  0  0  0
 24 25  2  0  0  0
 12  7  1  0  0  0
  5  1  1  0  0  0
 25 19  1  0  0  0
 17 18  1  0  0  0
M  END
> <minimizedAffinity>
-8.57520

> <CNNscore>
0.2371406108

> <CNNaffinity>
5.8419628143

> <CNN_VS>
1.3853666782

> <CNNaffinity_variance>
0.1834605187

$$$$
[H]c1nc(C(=O)N([H])c2c([H])c([H])c(Cl)c(OC([H])([H])[H])c2[H])oc1C(=O)N1C([H])([H])C([H])([H])C([H])([H])C([H])([H])[C@]1([H])C([H])([H])[H]


 27 29  0  0  0  0  0  0  0  0999 V2000
  -86.5472   31.5024   -0.4138 C   0  0  0  0  0  0  0  0  0  0  0  0
  -85.4393   32.2895   -0.3470 C   0  0  0  0  0  0  0  0  0  0  0  0
  -85.6781   33.3494   -1.1832 N   0  0  0  0  0  0  0  0  0  0  0  0
  -86.8895   33.1932   -1.7269 C   0  0  0  0  0  0  0  0  0  0  0  0
  -87.3883   32.0990   -1.2624 O   0  0  0  0  0  0  0  0  0  0  0  0
  -87.9314   27.8075    1.4503 C   0  0  0  0  0  0  0  0  0  0  0  0
  -86.6048   28.3358    1.8448 C   0  0  0  0  0  0  0  0  0  0  0  0
  -85.4819   27.3431    1.5802 C   0  0  0  0  0  0  0  0  0  0  0  0
  -84.3344   27.7573    2.4751 C   0  0  0  0  0  0  0  0  0  0  0  0
  -84.3965   29.1901    2.8787 C   0  0  0  0  0  0  0  0  0  0  0  0
  -84.9221   30.0877    1.7600 C   0  0  0  0  0  0  0  0  0  0  0  0
  -86.1763   29.5803    1.2439 N   0  0  0  0  0  0  0  0  0  0  0  0
  -86.8788   30.2521    0.2434 C   0  0  0  0  0  0  0  0  0  0  0  0
  -87.9847   29.7262   -0.1901 O   0  0  0  0  0  0  0  0  0  0  0  0
  -87.5553   34.0910   -2.6832 C   0  0  0  0  0  0  0  0  0  0  0  0
  -88.7545   34.3354   -2.4753 O   0  0  0  0  0  0  0  0  0  0  0  0
  -86.8135   34.6078   -3.7509 N   0  0  0  0  0  0  0  0  0  0  0  0
  -85.7815   34.2989   -3.7869 H   0  0  0  0  0  0  0  0  0  0  0  0
  -87.2583   35.4751   -4.7612 C   0  0  0  0  0  0  0  0  0  0  0  0
  -88.3016   35.2313   -5.6253 C   0  0  0  0  0  0  0  0  0  0  0  0
  -88.6631   36.1568   -6.6116 C   0  0  0  0  0  0  0  0  0  0  0  0
  -87.9684   37.3354   -6.7269 C   0  0  0  0  0  0  0  0  0  0  0  0
  -88.3670   38.5306   -7.9337 Cl  0  0  0  0  0  0  0  0  0  0  0  0
  -86.9275   37.6082   -5.8845 C   0  0  0  0  0  0  0  0  0  0  0  0
  -86.5887   36.6964   -4.9303 C   0  0  0  0  0  0  0  0  0  0  0  0
  -86.1936   38.7978   -5.9685 O   0  0  0  0  0  0  0  0  0  0  0  0
  -84.9021   38.8102   -6.5276 C   0  0  0  0  0  0  0  0  0  0  0  0
  6  7  1  0  0  0
  7  8  1  0  0  0
  8  9  1  0  0  0
  9 10  1  0  0  0
 10 11  1  0  0  0
 11 12  1  0  0  0
 12 13  1  0  0  0
 13 14  2  0  0  0
 13  1  1  0  0  0
  1  2  2  0  0  0
  2  3  1  0  0  0
  3  4  2  0  0  0
  4  5  1  0  0  0
  4 15  1  0  0  0
 15 16  2  0  0  0
 15 17  1  0  0  0
 17 19  1  0  0  0
 19 20  2  0  0  0
 20 21  1  0  0  0
 21 22  2  0  0  0
 22 23  1  0  0  0
 22 24  1  0  0  0
 24 26  1  0  0  0
 26 27  1  0  0  0
 24 25  2  0  0  0
 12  7  1  0  0  0
  5  1  1  0  0  0
 25 19  1  0  0  0
 17 18  1  0  0  0
M  END
> <minimizedAffinity>
-7.67310

> <CNNscore>
0.2232668251

> <CNNaffinity>
5.6934490204

> <CNN_VS>
1.2711583376

> <CNNaffinity_variance>
0.1604778320

$$$$
[H]c1nc(C(=O)N([H])c2c([H])c([H])c(Cl)c(OC([H])([H])[H])c2[H])oc1C(=O)N1C([H])([H])C([H])([H])C([H])([H])C([H])([H])[C@]1([H])C([H])([H])[H]


 27 29  0  0  0  0  0  0  0  0999 V2000
  -87.1847   30.7123   -1.0213 C   0  0  0  0  0  0  0  0  0  0  0  0
  -87.7792   30.0350   -2.0406 C   0  0  0  0  0  0  0  0  0  0  0  0
  -88.2270   30.9891   -2.9175 N   0  0  0  0  0  0  0  0  0  0  0  0
  -87.9068   32.1926   -2.4310 C   0  0  0  0  0  0  0  0  0  0  0  0
  -87.2925   32.0113   -1.3123 O   0  0  0  0  0  0  0  0  0  0  0  0
  -85.5884   29.1892    2.7436 C   0  0  0  0  0  0  0  0  0  0  0  0
  -84.7625   30.1445    1.9692 C   0  0  0  0  0  0  0  0  0  0  0  0
  -83.4064   29.5664    1.5907 C   0  0  0  0  0  0  0  0  0  0  0  0
  -82.5093   30.7505    1.3041 C   0  0  0  0  0  0  0  0  0  0  0  0
  -83.2655   31.9812    0.9391 C   0  0  0  0  0  0  0  0  0  0  0  0
  -84.5043   31.6755    0.0991 C   0  0  0  0  0  0  0  0  0  0  0  0
  -85.3214   30.6671    0.7412 N   0  0  0  0  0  0  0  0  0  0  0  0
  -86.5322   30.2488    0.1889 C   0  0  0  0  0  0  0  0  0  0  0  0
  -87.2013   29.3218    0.8057 O   0  0  0  0  0  0  0  0  0  0  0  0
  -88.1916   33.5005   -3.0409 C   0  0  0  0  0  0  0  0  0  0  0  0
  -89.0551   34.1979   -2.4850 O   0  0  0  0  0  0  0  0  0  0  0  0
  -87.4871   33.8760   -4.1899 N   0  0  0  0  0  0  0  0  0  0  0  0
  -86.7685   33.1558   -4.5454 H   0  0  0  0  0  0  0  0  0  0  0  0
  -87.6084   35.0718   -4.9153 C   0  0  0  0  0  0  0  0  0  0  0  0
  -86.8637   36.2115   -4.7129 C   0  0  0  0  0  0  0  0  0  0  0  0
  -87.0682   37.3626   -5.4831 C   0  0  0  0  0  0  0  0  0  0  0  0
  -88.0294   37.3641   -6.4634 C   0  0  0  0  0  0  0  0  0  0  0  0
  -88.3350   38.7647   -7.4579 Cl  0  0  0  0  0  0  0  0  0  0  0  0
  -88.7858   36.2488   -6.6901 C   0  0  0  0  0  0  0  0  0  0  0  0
  -88.5739   35.1370   -5.9313 C   0  0  0  0  0  0  0  0  0  0  0  0
  -89.7757   36.2088   -7.6797 O   0  0  0  0  0  0  0  0  0  0  0  0
  -91.1349   36.3573   -7.3462 C   0  0  0  0  0  0  0  0  0  0  0  0
  6  7  1  0  0  0
  7  8  1  0  0  0
  8  9  1  0  0  0
  9 10  1  0  0  0
 10 11  1  0  0  0
 11 12  1  0  0  0
 12 13  1  0  0  0
 13 14  2  0  0  0
 13  1  1  0  0  0
  1  2  2  0  0  0
  2  3  1  0  0  0
  3  4  2  0  0  0
  4  5  1  0  0  0
  4 15  1  0  0  0
 15 16  2  0  0  0
 15 17  1  0  0  0
 17 19  1  0  0  0
 19 20  2  0  0  0
 20 21  1  0  0  0
 21 22  2  0  0  0
 22 23  1  0  0  0
 22 24  1  0  0  0
 24 26  1  0  0  0
 26 27  1  0  0  0
 24 25  2  0  0  0
 12  7  1  0  0  0
  5  1  1  0  0  0
 25 19  1  0  0  0
 17 18  1  0  0  0
M  END
> <minimizedAffinity>
-7.62107

> <CNNscore>
0.2090150267

> <CNNaffinity>
5.5783491135

> <CNN_VS>
1.1659587622

> <CNNaffinity_variance>
0.1947369277

$$$$
[H]c1nc(C(=O)N([H])c2c([H])c([H])c(Cl)c(OC([H])([H])[H])c2[H])oc1C(=O)N1C([H])([H])C([H])([H])C([H])([H])C([H])([H])[C@]1([H])C([H])([H])[H]


 27 29  0  0  0  0  0  0  0  0999 V2000
  -87.0704   29.2596   -1.0483 C   0  0  0  0  0  0  0  0  0  0  0  0
  -87.5431   28.2358   -1.8097 C   0  0  0  0  0  0  0  0  0  0  0  0
  -87.9609   28.8019   -2.9864 N   0  0  0  0  0  0  0  0  0  0  0  0
  -87.7418   30.1192   -2.9219 C   0  0  0  0  0  0  0  0  0  0  0  0
  -87.2162   30.3722   -1.7724 O   0  0  0  0  0  0  0  0  0  0  0  0
  -85.7295   29.2345    3.1043 C   0  0  0  0  0  0  0  0  0  0  0  0
  -84.8644   29.8863    2.0938 C   0  0  0  0  0  0  0  0  0  0  0  0
  -83.4754   29.2672    2.0317 C   0  0  0  0  0  0  0  0  0  0  0  0
  -82.5784   30.3084    1.3990 C   0  0  0  0  0  0  0  0  0  0  0  0
  -83.3251   31.2983    0.5731 C   0  0  0  0  0  0  0  0  0  0  0  0
  -84.4944   30.6650   -0.1788 C   0  0  0  0  0  0  0  0  0  0  0  0
  -85.3403   29.9170    0.7277 N   0  0  0  0  0  0  0  0  0  0  0  0
  -86.5008   29.2815    0.2859 C   0  0  0  0  0  0  0  0  0  0  0  0
  -87.1986   28.6067    1.1491 O   0  0  0  0  0  0  0  0  0  0  0  0
  -88.0372   31.1196   -3.9591 C   0  0  0  0  0  0  0  0  0  0  0  0
  -88.0574   30.7154   -5.1327 O   0  0  0  0  0  0  0  0  0  0  0  0
  -88.2738   32.4428   -3.5712 N   0  0  0  0  0  0  0  0  0  0  0  0
  -88.2213   32.6282   -2.5108 H   0  0  0  0  0  0  0  0  0  0  0  0
  -88.5726   33.5366   -4.3990 C   0  0  0  0  0  0  0  0  0  0  0  0
  -87.6877   34.5200   -4.7789 C   0  0  0  0  0  0  0  0  0  0  0  0
  -88.0856   35.5813   -5.6006 C   0  0  0  0  0  0  0  0  0  0  0  0
  -89.3839   35.6511   -6.0419 C   0  0  0  0  0  0  0  0  0  0  0  0
  -89.9445   36.9466   -7.0673 Cl  0  0  0  0  0  0  0  0  0  0  0  0
  -90.2874   34.6907   -5.6831 C   0  0  0  0  0  0  0  0  0  0  0  0
  -89.8835   33.6646   -4.8827 C   0  0  0  0  0  0  0  0  0  0  0  0
  -91.6201   34.7248   -6.1115 O   0  0  0  0  0  0  0  0  0  0  0  0
  -92.2138   33.5982   -6.7108 C   0  0  0  0  0  0  0  0  0  0  0  0
  6  7  1  0  0  0
  7  8  1  0  0  0
  8  9  1  0  0  0
  9 10  1  0  0  0
 10 11  1  0  0  0
 11 12  1  0  0  0
 12 13  1  0  0  0
 13 14  2  0  0  0
 13  1  1  0  0  0
  1  2  2  0  0  0
  2  3  1  0  0  0
  3  4  2  0  0  0
  4  5  1  0  0  0
  4 15  1  0  0  0
 15 16  2  0  0  0
 15 17  1  0  0  0
 17 19  1  0  0  0
 19 20  2  0  0  0
 20 21  1  0  0  0
 21 22  2  0  0  0
 22 23  1  0  0  0
 22 24  1  0  0  0
 24 26  1  0  0  0
 26 27  1  0  0  0
 24 25  2  0  0  0
 12  7  1  0  0  0
  5  1  1  0  0  0
 25 19  1  0  0  0
 17 18  1  0  0  0
M  END
> <minimizedAffinity>
-8.23532

> <CNNscore>
0.1955208927

> <CNNaffinity>
5.7237887383

> <CNN_VS>
1.1191202402

> <CNNaffinity_variance>
0.1482355297

$$$$
[H]O[C@@]([H])(C(=O)N1C([H])([H])C([H])([H])N(c2c([H])c([H])c([H])c(N([H])c3nc4c(F)c([H])c(Cl)c([H])c4n3-c3c([H])c([H])c([H])c(Cl)c3[H])c2[H])C([H])([H])C1([H])[H])C([H])([H])[H]


 38 42  0  0  0  0  0  0  0  0999 V2000
  -86.7902   26.6502    0.9820 N   0  0  0  0  0  0  0  0  0  0  0  0
  -86.2600   25.8216    0.5762 H   0  0  0  0  0  0  0  0  0  0  0  0
  -86.2774   27.9566    0.8928 C   0  0  0  0  0  0  0  0  0  0  0  0
  -85.2314   28.5735    1.4596 N   0  0  0  0  0  0  0  0  0  0  0  0
  -85.1236   29.8502    1.0738 C   0  0  0  0  0  0  0  0  0  0  0  0
  -84.2521   30.8889    1.3541 C   0  0  0  0  0  0  0  0  0  0  0  0
  -83.2308   30.6817    2.2042 F   0  0  0  0  0  0  0  0  0  0  0  0
  -84.4335   32.1197    0.7661 C   0  0  0  0  0  0  0  0  0  0  0  0
  -85.4930   32.3376   -0.1167 C   0  0  0  0  0  0  0  0  0  0  0  0
  -85.7462   33.8969   -0.8793 Cl  0  0  0  0  0  0  0  0  0  0  0  0
  -86.3513   31.2959   -0.3859 C   0  0  0  0  0  0  0  0  0  0  0  0
  -86.1753   30.0446    0.2056 C   0  0  0  0  0  0  0  0  0  0  0  0
  -86.8733   28.9050    0.0939 N   0  0  0  0  0  0  0  0  0  0  0  0
  -88.0285   28.6982   -0.7060 C   0  0  0  0  0  0  0  0  0  0  0  0
  -87.8589   28.1589   -1.9770 C   0  0  0  0  0  0  0  0  0  0  0  0
  -88.9240   27.9274   -2.8144 C   0  0  0  0  0  0  0  0  0  0  0  0
  -90.1786   28.2432   -2.3660 C   0  0  0  0  0  0  0  0  0  0  0  0
  -90.3702   28.7803   -1.1058 C   0  0  0  0  0  0  0  0  0  0  0  0
  -92.0065   29.1646   -0.5886 Cl  0  0  0  0  0  0  0  0  0  0  0  0
  -89.2907   29.0038   -0.2846 C   0  0  0  0  0  0  0  0  0  0  0  0
  -90.0853   25.0308    1.6001 C   0  0  0  0  0  0  0  0  0  0  0  0
  -90.5363   25.6852    2.7273 C   0  0  0  0  0  0  0  0  0  0  0  0
  -89.7533   26.6497    3.2826 C   0  0  0  0  0  0  0  0  0  0  0  0
  -88.5128   26.9810    2.7308 C   0  0  0  0  0  0  0  0  0  0  0  0
  -88.0264   26.3577    1.6122 C   0  0  0  0  0  0  0  0  0  0  0  0
  -88.8629   25.3691    1.0698 C   0  0  0  0  0  0  0  0  0  0  0  0
  -92.4822   23.4114   -2.5481 C   0  0  0  0  0  0  0  0  0  0  0  0
  -91.8371   22.5999   -3.3122 O   0  0  0  0  0  0  0  0  0  0  0  0
  -92.1951   23.3514   -1.1750 N   0  0  0  0  0  0  0  0  0  0  0  0
  -91.1883   22.3716   -0.7377 C   0  0  0  0  0  0  0  0  0  0  0  0
  -90.1510   23.0392    0.1430 C   0  0  0  0  0  0  0  0  0  0  0  0
  -90.8476   24.0111    0.9794 N   0  0  0  0  0  0  0  0  0  0  0  0
  -92.2672   23.9038    1.1521 C   0  0  0  0  0  0  0  0  0  0  0  0
  -92.8624   24.2167   -0.2369 C   0  0  0  0  0  0  0  0  0  0  0  0
  -92.6470   25.5135   -3.6903 C   0  0  0  0  0  0  0  0  0  0  0  0
  -93.4590   24.3309   -3.1502 C   0  0  0  0  0  0  0  0  0  0  0  0
  -94.2502   23.7821   -4.1094 O   0  0  0  0  0  0  0  0  0  0  0  0
  -94.3505   24.3575   -4.9115 H   0  0  0  0  0  0  0  0  0  0  0  0
 35 36  1  0  0  0
 36 37  1  0  0  0
 36 27  1  0  0  0
 27 28  2  0  0  0
 27 29  1  0  0  0
 29 30  1  0  0  0
 30 31  1  0  0  0
 31 32  1  0  0  0
 32 33  1  0  0  0
 33 34  1  0  0  0
 32 21  1  0  0  0
 21 22  2  0  0  0
 22 23  1  0  0  0
 23 24  2  0  0  0
 24 25  1  0  0  0
 25  1  1  0  0  0
  1  3  1  0  0  0
  3  4  2  0  0  0
  4  5  1  0  0  0
  5  6  2  0  0  0
  6  7  1  0  0  0
  6  8  1  0  0  0
  8  9  2  0  0  0
  9 10  1  0  0  0
  9 11  1  0  0  0
 11 12  2  0  0  0
 12 13  1  0  0  0
 13 14  1  0  0  0
 14 15  2  0  0  0
 15 16  1  0  0  0
 16 17  2  0  0  0
 17 18  1  0  0  0
 18 19  1  0  0  0
 18 20  2  0  0  0
 25 26  2  0  0  0
 34 29  1  0  0  0
 26 21  1  0  0  0
 13  3  1  0  0  0
 20 14  1  0  0  0
 12  5  1  0  0  0
 37 38  1  0  0  0
  1  2  1  0  0  0
M  END
> <minimizedAffinity>
-8.77712

> <CNNscore>
0.2346808463

> <CNNaffinity>
6.9661116600

> <CNN_VS>
1.6348129511

> <CNNaffinity_variance>
0.3111140430

$$$$
[H]O[C@@]([H])(C(=O)N1C([H])([H])C([H])([H])N(c2c([H])c([H])c([H])c(N([H])c3nc4c(F)c([H])c(Cl)c([H])c4n3-c3c([H])c([H])c([H])c(Cl)c3[H])c2[H])C([H])([H])C1([H])[H])C([H])([H])[H]


 38 42  0  0  0  0  0  0  0  0999 V2000
  -88.0639   31.6379   -0.9159 N   0  0  0  0  0  0  0  0  0  0  0  0
  -88.9628   31.7818   -0.3649 H   0  0  0  0  0  0  0  0  0  0  0  0
  -86.8691   31.2651   -0.2747 C   0  0  0  0  0  0  0  0  0  0  0  0
  -85.7483   31.9299    0.0381 N   0  0  0  0  0  0  0  0  0  0  0  0
  -84.8533   31.1538    0.6603 C   0  0  0  0  0  0  0  0  0  0  0  0
  -83.5823   31.3426    1.1759 C   0  0  0  0  0  0  0  0  0  0  0  0
  -83.0080   32.5554    1.0873 F   0  0  0  0  0  0  0  0  0  0  0  0
  -82.9171   30.2959    1.7723 C   0  0  0  0  0  0  0  0  0  0  0  0
  -83.5109   29.0357    1.8655 C   0  0  0  0  0  0  0  0  0  0  0  0
  -82.6844   27.6854    2.6207 Cl  0  0  0  0  0  0  0  0  0  0  0  0
  -84.7747   28.8629    1.3486 C   0  0  0  0  0  0  0  0  0  0  0  0
  -85.4569   29.9182    0.7422 C   0  0  0  0  0  0  0  0  0  0  0  0
  -86.6725   29.9814    0.1794 N   0  0  0  0  0  0  0  0  0  0  0  0
  -87.6055   28.9167    0.0650 C   0  0  0  0  0  0  0  0  0  0  0  0
  -87.4650   28.0324   -0.9996 C   0  0  0  0  0  0  0  0  0  0  0  0
  -88.3250   26.9760   -1.1829 C   0  0  0  0  0  0  0  0  0  0  0  0
  -89.3416   26.8069   -0.2815 C   0  0  0  0  0  0  0  0  0  0  0  0
  -89.4999   27.6742    0.7844 C   0  0  0  0  0  0  0  0  0  0  0  0
  -90.8256   27.4030    1.9074 Cl  0  0  0  0  0  0  0  0  0  0  0  0
  -88.6282   28.7243    0.9487 C   0  0  0  0  0  0  0  0  0  0  0  0
  -88.4497   33.4407   -4.1506 C   0  0  0  0  0  0  0  0  0  0  0  0
  -88.3655   32.4214   -5.0759 C   0  0  0  0  0  0  0  0  0  0  0  0
  -88.1756   31.1486   -4.6335 C   0  0  0  0  0  0  0  0  0  0  0  0
  -88.0663   30.8656   -3.2693 C   0  0  0  0  0  0  0  0  0  0  0  0
  -88.1448   31.8463   -2.3162 C   0  0  0  0  0  0  0  0  0  0  0  0
  -88.3405   33.1450   -2.8124 C   0  0  0  0  0  0  0  0  0  0  0  0
  -86.3549   37.7556   -5.7531 C   0  0  0  0  0  0  0  0  0  0  0  0
  -86.3859   37.9807   -7.0208 O   0  0  0  0  0  0  0  0  0  0  0  0
  -87.4200   37.0153   -5.2153 N   0  0  0  0  0  0  0  0  0  0  0  0
  -88.4683   36.5671   -6.1453 C   0  0  0  0  0  0  0  0  0  0  0  0
  -88.7273   35.0837   -5.9720 C   0  0  0  0  0  0  0  0  0  0  0  0
  -88.6373   34.7878   -4.5459 N   0  0  0  0  0  0  0  0  0  0  0  0
  -88.7462   35.8563   -3.5956 C   0  0  0  0  0  0  0  0  0  0  0  0
  -87.4786   36.7101   -3.8091 C   0  0  0  0  0  0  0  0  0  0  0  0
  -84.1506   38.6720   -5.9812 C   0  0  0  0  0  0  0  0  0  0  0  0
  -85.2285   38.2778   -4.9652 C   0  0  0  0  0  0  0  0  0  0  0  0
  -85.5372   39.3065   -4.1323 O   0  0  0  0  0  0  0  0  0  0  0  0
  -84.8752   40.0451   -4.1593 H   0  0  0  0  0  0  0  0  0  0  0  0
 35 36  1  0  0  0
 36 37  1  0  0  0
 36 27  1  0  0  0
 27 28  2  0  0  0
 27 29  1  0  0  0
 29 30  1  0  0  0
 30 31  1  0  0  0
 31 32  1  0  0  0
 32 33  1  0  0  0
 33 34  1  0  0  0
 32 21  1  0  0  0
 21 22  2  0  0  0
 22 23  1  0  0  0
 23 24  2  0  0  0
 24 25  1  0  0  0
 25  1  1  0  0  0
  1  3  1  0  0  0
  3  4  2  0  0  0
  4  5  1  0  0  0
  5  6  2  0  0  0
  6  7  1  0  0  0
  6  8  1  0  0  0
  8  9  2  0  0  0
  9 10  1  0  0  0
  9 11  1  0  0  0
 11 12  2  0  0  0
 12 13  1  0  0  0
 13 14  1  0  0  0
 14 15  2  0  0  0
 15 16  1  0  0  0
 16 17  2  0  0  0
 17 18  1  0  0  0
 18 19  1  0  0  0
 18 20  2  0  0  0
 25 26  2  0  0  0
 34 29  1  0  0  0
 26 21  1  0  0  0
 13  3  1  0  0  0
 20 14  1  0  0  0
 12  5  1  0  0  0
 37 38  1  0  0  0
  1  2  1  0  0  0
M  END
> <minimizedAffinity>
-10.03330

> <CNNscore>
0.1466908008

> <CNNaffinity>
6.8899126053

> <CNN_VS>
1.0106867552

> <CNNaffinity_variance>
0.5658264756

$$$$
[H]O[C@@]([H])(C(=O)N1C([H])([H])C([H])([H])N(c2c([H])c([H])c([H])c(N([H])c3nc4c(F)c([H])c(Cl)c([H])c4n3-c3c([H])c([H])c([H])c(Cl)c3[H])c2[H])C([H])([H])C1([H])[H])C([H])([H])[H]


 38 42  0  0  0  0  0  0  0  0999 V2000
  -88.1377   31.5642   -0.8935 N   0  0  0  0  0  0  0  0  0  0  0  0
  -89.0240   31.7177   -0.3249 H   0  0  0  0  0  0  0  0  0  0  0  0
  -86.9242   31.2210   -0.2713 C   0  0  0  0  0  0  0  0  0  0  0  0
  -85.8101   31.9099    0.0119 N   0  0  0  0  0  0  0  0  0  0  0  0
  -84.8892   31.1577    0.6257 C   0  0  0  0  0  0  0  0  0  0  0  0
  -83.6122   31.3758    1.1144 C   0  0  0  0  0  0  0  0  0  0  0  0
  -83.0622   32.5977    1.0004 F   0  0  0  0  0  0  0  0  0  0  0  0
  -82.9165   30.3487    1.7100 C   0  0  0  0  0  0  0  0  0  0  0  0
  -83.4851   29.0791    1.8294 C   0  0  0  0  0  0  0  0  0  0  0  0
  -82.6195   27.7532    2.5841 Cl  0  0  0  0  0  0  0  0  0  0  0  0
  -84.7552   28.8771    1.3391 C   0  0  0  0  0  0  0  0  0  0  0  0
  -85.4682   29.9124    0.7337 C   0  0  0  0  0  0  0  0  0  0  0  0
  -86.6953   29.9467    0.1939 N   0  0  0  0  0  0  0  0  0  0  0  0
  -87.6105   28.8639    0.1100 C   0  0  0  0  0  0  0  0  0  0  0  0
  -87.4678   27.9638   -0.9409 C   0  0  0  0  0  0  0  0  0  0  0  0
  -88.3112   26.8893   -1.0948 C   0  0  0  0  0  0  0  0  0  0  0  0
  -89.3130   26.7181   -0.1773 C   0  0  0  0  0  0  0  0  0  0  0  0
  -89.4732   27.6010    0.8754 C   0  0  0  0  0  0  0  0  0  0  0  0
  -90.7795   27.3262    2.0202 Cl  0  0  0  0  0  0  0  0  0  0  0  0
  -88.6184   28.6690    1.0103 C   0  0  0  0  0  0  0  0  0  0  0  0
  -88.9334   33.1734   -4.1555 C   0  0  0  0  0  0  0  0  0  0  0  0
  -88.5869   32.1971   -5.0659 C   0  0  0  0  0  0  0  0  0  0  0  0
  -88.0874   31.0183   -4.6046 C   0  0  0  0  0  0  0  0  0  0  0  0
  -87.9235   30.7881   -3.2360 C   0  0  0  0  0  0  0  0  0  0  0  0
  -88.2551   31.7289   -2.2971 C   0  0  0  0  0  0  0  0  0  0  0  0
  -88.7662   32.9307   -2.8126 C   0  0  0  0  0  0  0  0  0  0  0  0
  -92.7639   36.4725   -4.0232 C   0  0  0  0  0  0  0  0  0  0  0  0
  -92.6691   37.4392   -3.1776 O   0  0  0  0  0  0  0  0  0  0  0  0
  -91.5633   35.9824   -4.5617 N   0  0  0  0  0  0  0  0  0  0  0  0
  -90.3135   36.6153   -4.1122 C   0  0  0  0  0  0  0  0  0  0  0  0
  -89.3207   35.5614   -3.6639 C   0  0  0  0  0  0  0  0  0  0  0  0
  -89.4497   34.4252   -4.5706 N   0  0  0  0  0  0  0  0  0  0  0  0
  -90.0831   34.6077   -5.8442 C   0  0  0  0  0  0  0  0  0  0  0  0
  -91.5616   34.9032   -5.5153 C   0  0  0  0  0  0  0  0  0  0  0  0
  -94.9201   36.0262   -3.0733 C   0  0  0  0  0  0  0  0  0  0  0  0
  -94.0969   35.9539   -4.3644 C   0  0  0  0  0  0  0  0  0  0  0  0
  -94.7156   36.5904   -5.3935 O   0  0  0  0  0  0  0  0  0  0  0  0
  -95.6713   36.7884   -5.2145 H   0  0  0  0  0  0  0  0  0  0  0  0
 35 36  1  0  0  0
 36 37  1  0  0  0
 36 27  1  0  0  0
 27 28  2  0  0  0
 27 29  1  0  0  0
 29 30  1  0  0  0
 30 31  1  0  0  0
 31 32  1  0  0  0
 32 33  1  0  0  0
 33 34  1  0  0  0
 32 21  1  0  0  0
 21 22  2  0  0  0
 22 23  1  0  0  0
 23 24  2  0  0  0
 24 25  1  0  0  0
 25  1  1  0  0  0
  1  3  1  0  0  0
  3  4  2  0  0  0
  4  5  1  0  0  0
  5  6  2  0  0  0
  6  7  1  0  0  0
  6  8  1  0  0  0
  8  9  2  0  0  0
  9 10  1  0  0  0
  9 11  1  0  0  0
 11 12  2  0  0  0
 12 13  1  0  0  0
 13 14  1  0  0  0
 14 15  2  0  0  0
 15 16  1  0  0  0
 16 17  2  0  0  0
 17 18  1  0  0  0
 18 19  1  0  0  0
 18 20  2  0  0  0
 25 26  2  0  0  0
 34 29  1  0  0  0
 26 21  1  0  0  0
 13  3  1  0  0  0
 20 14  1  0  0  0
 12  5  1  0  0  0
 37 38  1  0  0  0
  1  2  1  0  0  0
M  END
> <minimizedAffinity>
-9.58092

> <CNNscore>
0.1156314611

> <CNNaffinity>
6.7544770241

> <CNN_VS>
0.7810300589

> <CNNaffinity_variance>
0.1941225529

$$$$
[H]O[C@@]([H])(C(=O)N1C([H])([H])C([H])([H])N(c2c([H])c([H])c([H])c(N([H])c3nc4c(F)c([H])c(Cl)c([H])c4n3-c3c([H])c([H])c([H])c(Cl)c3[H])c2[H])C([H])([H])C1([H])[H])C([H])([H])[H]


 38 42  0  0  0  0  0  0  0  0999 V2000
  -87.8173   31.5628   -4.4003 N   0  0  0  0  0  0  0  0  0  0  0  0
  -86.9640   31.1068   -4.8435 H   0  0  0  0  0  0  0  0  0  0  0  0
  -87.9959   32.9573   -4.4317 C   0  0  0  0  0  0  0  0  0  0  0  0
  -88.5380   33.7940   -5.3273 N   0  0  0  0  0  0  0  0  0  0  0  0
  -88.4888   35.0697   -4.9263 C   0  0  0  0  0  0  0  0  0  0  0  0
  -88.8950   36.2813   -5.4594 C   0  0  0  0  0  0  0  0  0  0  0  0
  -89.4942   36.3045   -6.6631 F   0  0  0  0  0  0  0  0  0  0  0  0
  -88.6852   37.4478   -4.7603 C   0  0  0  0  0  0  0  0  0  0  0  0
  -88.0631   37.4266   -3.5105 C   0  0  0  0  0  0  0  0  0  0  0  0
  -87.7840   38.8992   -2.5992 Cl  0  0  0  0  0  0  0  0  0  0  0  0
  -87.6648   36.2150   -2.9931 C   0  0  0  0  0  0  0  0  0  0  0  0
  -87.8733   35.0271   -3.6947 C   0  0  0  0  0  0  0  0  0  0  0  0
  -87.5746   33.7551   -3.3930 N   0  0  0  0  0  0  0  0  0  0  0  0
  -86.9349   33.2962   -2.2109 C   0  0  0  0  0  0  0  0  0  0  0  0
  -87.7189   32.6962   -1.2310 C   0  0  0  0  0  0  0  0  0  0  0  0
  -87.1787   32.2252   -0.0580 C   0  0  0  0  0  0  0  0  0  0  0  0
  -85.8295   32.3601    0.1315 C   0  0  0  0  0  0  0  0  0  0  0  0
  -85.0311   32.9536   -0.8296 C   0  0  0  0  0  0  0  0  0  0  0  0
  -83.3049   33.0970   -0.5261 Cl  0  0  0  0  0  0  0  0  0  0  0  0
  -85.5922   33.4177   -1.9955 C   0  0  0  0  0  0  0  0  0  0  0  0
  -89.1094   28.7991   -2.2661 C   0  0  0  0  0  0  0  0  0  0  0  0
  -90.4677   28.8470   -2.5002 C   0  0  0  0  0  0  0  0  0  0  0  0
  -90.9531   29.7906   -3.3521 C   0  0  0  0  0  0  0  0  0  0  0  0
  -90.1019   30.7006   -3.9848 C   0  0  0  0  0  0  0  0  0  0  0  0
  -88.7471   30.6887   -3.7821 C   0  0  0  0  0  0  0  0  0  0  0  0
  -88.2859   29.7013   -2.8968 C   0  0  0  0  0  0  0  0  0  0  0  0
  -89.3930   26.3769    2.1642 C   0  0  0  0  0  0  0  0  0  0  0  0
  -89.9167   25.2004    2.1506 O   0  0  0  0  0  0  0  0  0  0  0  0
  -88.7042   26.7767    1.0078 N   0  0  0  0  0  0  0  0  0  0  0  0
  -88.6447   25.8193   -0.1078 C   0  0  0  0  0  0  0  0  0  0  0  0
  -89.0714   26.4879   -1.3994 C   0  0  0  0  0  0  0  0  0  0  0  0
  -88.5418   27.8477   -1.3836 N   0  0  0  0  0  0  0  0  0  0  0  0
  -87.4699   28.1767   -0.4896 C   0  0  0  0  0  0  0  0  0  0  0  0
  -88.0830   28.0732    0.9228 C   0  0  0  0  0  0  0  0  0  0  0  0
  -90.8266   28.0258    3.1525 C   0  0  0  0  0  0  0  0  0  0  0  0
  -89.5466   27.2101    3.3661 C   0  0  0  0  0  0  0  0  0  0  0  0
  -89.5741   26.5262    4.5403 O   0  0  0  0  0  0  0  0  0  0  0  0
  -90.2860   26.8363    5.1581 H   0  0  0  0  0  0  0  0  0  0  0  0
 35 36  1  0  0  0
 36 37  1  0  0  0
 36 27  1  0  0  0
 27 28  2  0  0  0
 27 29  1  0  0  0
 29 30  1  0  0  0
 30 31  1  0  0  0
 31 32  1  0  0  0
 32 33  1  0  0  0
 33 34  1  0  0  0
 32 21  1  0  0  0
 21 22  2  0  0  0
 22 23  1  0  0  0
 23 24  2  0  0  0
 24 25  1  0  0  0
 25  1  1  0  0  0
  1  3  1  0  0  0
  3  4  2  0  0  0
  4  5  1  0  0  0
  5  6  2  0  0  0
  6  7  1  0  0  0
  6  8  1  0  0  0
  8  9  2  0  0  0
  9 10  1  0  0  0
  9 11  1  0  0  0
 11 12  2  0  0  0
 12 13  1  0  0  0
 13 14  1  0  0  0
 14 15  2  0  0  0
 15 16  1  0  0  0
 16 17  2  0  0  0
 17 18  1  0  0  0
 18 19  1  0  0  0
 18 20  2  0  0  0
 25 26  2  0  0  0
 34 29  1  0  0  0
 26 21  1  0  0  0
 13  3  1  0  0  0
 20 14  1  0  0  0
 12  5  1  0  0  0
 37 38  1  0  0  0
  1  2  1  0  0  0
M  END
> <minimizedAffinity>
-8.98026

> <CNNscore>
0.0931034312

> <CNNaffinity>
6.7538414001

> <CNN_VS>
0.6288058162

> <CNNaffinity_variance>
0.4128867686

$$$$
[H]O[C@@]([H])(C(=O)N1C([H])([H])C([H])([H])N(c2c([H])c([H])c([H])c(N([H])c3nc4c(F)c([H])c(Cl)c([H])c4n3-c3c([H])c([H])c([H])c(Cl)c3[H])c2[H])C([H])([H])C1([H])[H])C([H])([H])[H]


 38 42  0  0  0  0  0  0  0  0999 V2000
  -87.0217   33.9122   -3.6794 N   0  0  0  0  0  0  0  0  0  0  0  0
  -86.7512   33.4615   -4.6046 H   0  0  0  0  0  0  0  0  0  0  0  0
  -87.5898   35.1978   -3.6347 C   0  0  0  0  0  0  0  0  0  0  0  0
  -87.1242   36.3951   -3.2529 N   0  0  0  0  0  0  0  0  0  0  0  0
  -88.0388   37.3627   -3.3864 C   0  0  0  0  0  0  0  0  0  0  0  0
  -88.0671   38.7254   -3.1429 C   0  0  0  0  0  0  0  0  0  0  0  0
  -86.9702   39.3310   -2.6545 F   0  0  0  0  0  0  0  0  0  0  0  0
  -89.2093   39.4487   -3.3996 C   0  0  0  0  0  0  0  0  0  0  0  0
  -90.3496   38.8224   -3.9065 C   0  0  0  0  0  0  0  0  0  0  0  0
  -91.8178   39.7216   -4.2422 Cl  0  0  0  0  0  0  0  0  0  0  0  0
  -90.3068   37.4674   -4.1437 C   0  0  0  0  0  0  0  0  0  0  0  0
  -89.1533   36.7258   -3.8864 C   0  0  0  0  0  0  0  0  0  0  0  0
  -88.8864   35.4203   -4.0375 N   0  0  0  0  0  0  0  0  0  0  0  0
  -89.7771   34.4283   -4.5269 C   0  0  0  0  0  0  0  0  0  0  0  0
  -90.0872   34.4360   -5.8829 C   0  0  0  0  0  0  0  0  0  0  0  0
  -90.9403   33.5114   -6.4368 C   0  0  0  0  0  0  0  0  0  0  0  0
  -91.4894   32.5649   -5.6139 C   0  0  0  0  0  0  0  0  0  0  0  0
  -91.1949   32.5387   -4.2626 C   0  0  0  0  0  0  0  0  0  0  0  0
  -91.9326   31.2976   -3.2588 Cl  0  0  0  0  0  0  0  0  0  0  0  0
  -90.3391   33.4731   -3.7295 C   0  0  0  0  0  0  0  0  0  0  0  0
  -87.2360   31.1001   -1.2486 C   0  0  0  0  0  0  0  0  0  0  0  0
  -86.4121   31.5217   -0.2261 C   0  0  0  0  0  0  0  0  0  0  0  0
  -85.7851   32.7238   -0.3430 C   0  0  0  0  0  0  0  0  0  0  0  0
  -85.9641   33.5263   -1.4731 C   0  0  0  0  0  0  0  0  0  0  0  0
  -86.7733   33.1474   -2.5114 C   0  0  0  0  0  0  0  0  0  0  0  0
  -87.4014   31.9017   -2.3532 C   0  0  0  0  0  0  0  0  0  0  0  0
  -89.5681   27.6263    1.5919 C   0  0  0  0  0  0  0  0  0  0  0  0
  -90.8546   27.6737    1.6280 O   0  0  0  0  0  0  0  0  0  0  0  0
  -88.9520   28.0510    0.4038 N   0  0  0  0  0  0  0  0  0  0  0  0
  -89.8287   28.5090   -0.6853 C   0  0  0  0  0  0  0  0  0  0  0  0
  -89.3693   29.8588   -1.1993 C   0  0  0  0  0  0  0  0  0  0  0  0
  -87.9100   29.8556   -1.1930 N   0  0  0  0  0  0  0  0  0  0  0  0
  -87.2077   28.6065   -1.1372 C   0  0  0  0  0  0  0  0  0  0  0  0
  -87.5188   28.0366    0.2627 C   0  0  0  0  0  0  0  0  0  0  0  0
  -89.7399   27.4455    3.9770 C   0  0  0  0  0  0  0  0  0  0  0  0
  -88.8407   27.1400    2.7738 C   0  0  0  0  0  0  0  0  0  0  0  0
  -88.4839   25.8293    2.7305 O   0  0  0  0  0  0  0  0  0  0  0  0
  -88.6598   25.3467    3.5795 H   0  0  0  0  0  0  0  0  0  0  0  0
 35 36  1  0  0  0
 36 37  1  0  0  0
 36 27  1  0  0  0
 27 28  2  0  0  0
 27 29  1  0  0  0
 29 30  1  0  0  0
 30 31  1  0  0  0
 31 32  1  0  0  0
 32 33  1  0  0  0
 33 34  1  0  0  0
 32 21  1  0  0  0
 21 22  2  0  0  0
 22 23  1  0  0  0
 23 24  2  0  0  0
 24 25  1  0  0  0
 25  1  1  0  0  0
  1  3  1  0  0  0
  3  4  2  0  0  0
  4  5  1  0  0  0
  5  6  2  0  0  0
  6  7  1  0  0  0
  6  8  1  0  0  0
  8  9  2  0  0  0
  9 10  1  0  0  0
  9 11  1  0  0  0
 11 12  2  0  0  0
 12 13  1  0  0  0
 13 14  1  0  0  0
 14 15  2  0  0  0
 15 16  1  0  0  0
 16 17  2  0  0  0
 17 18  1  0  0  0
 18 19  1  0  0  0
 18 20  2  0  0  0
 25 26  2  0  0  0
 34 29  1  0  0  0
 26 21  1  0  0  0
 13  3  1  0  0  0
 20 14  1  0  0  0
 12  5  1  0  0  0
 37 38  1  0  0  0
  1  2  1  0  0  0
M  END
> <minimizedAffinity>
-8.30098

> <CNNscore>
0.0874989107

> <CNNaffinity>
6.5705819130

> <CNN_VS>
0.5749187469

> <CNNaffinity_variance>
0.2902091146

$$$$
[H]O[C@@]([H])(C(=O)N1C([H])([H])C([H])([H])N(c2c([H])c([H])c([H])c(N([H])c3nc4c(F)c([H])c(Cl)c([H])c4n3-c3c([H])c([H])c([H])c(Cl)c3[H])c2[H])C([H])([H])C1([H])[H])C([H])([H])[H]


 38 42  0  0  0  0  0  0  0  0999 V2000
  -88.9437   28.5415    0.3960 N   0  0  0  0  0  0  0  0  0  0  0  0
  -89.7474   29.1589    0.7204 H   0  0  0  0  0  0  0  0  0  0  0  0
  -87.6078   28.8776    0.6789 C   0  0  0  0  0  0  0  0  0  0  0  0
  -86.6824   28.3556    1.4956 N   0  0  0  0  0  0  0  0  0  0  0  0
  -85.5208   29.0172    1.4371 C   0  0  0  0  0  0  0  0  0  0  0  0
  -84.2887   28.8917    2.0561 C   0  0  0  0  0  0  0  0  0  0  0  0
  -84.0968   27.9046    2.9490 F   0  0  0  0  0  0  0  0  0  0  0  0
  -83.2735   29.7712    1.7571 C   0  0  0  0  0  0  0  0  0  0  0  0
  -83.4701   30.7970    0.8307 C   0  0  0  0  0  0  0  0  0  0  0  0
  -82.1925   31.9310    0.4322 Cl  0  0  0  0  0  0  0  0  0  0  0  0
  -84.7000   30.9096    0.2233 C   0  0  0  0  0  0  0  0  0  0  0  0
  -85.7353   30.0225    0.5200 C   0  0  0  0  0  0  0  0  0  0  0  0
  -86.9926   29.9416    0.0606 N   0  0  0  0  0  0  0  0  0  0  0  0
  -87.5975   30.7981   -0.8973 C   0  0  0  0  0  0  0  0  0  0  0  0
  -88.2339   31.9477   -0.4409 C   0  0  0  0  0  0  0  0  0  0  0  0
  -88.8439   32.8290   -1.3015 C   0  0  0  0  0  0  0  0  0  0  0  0
  -88.8129   32.5492   -2.6414 C   0  0  0  0  0  0  0  0  0  0  0  0
  -88.1857   31.4118   -3.1172 C   0  0  0  0  0  0  0  0  0  0  0  0
  -88.1806   31.1090   -4.8494 Cl  0  0  0  0  0  0  0  0  0  0  0  0
  -87.5819   30.5438   -2.2387 C   0  0  0  0  0  0  0  0  0  0  0  0
  -90.9813   26.2288   -1.6925 C   0  0  0  0  0  0  0  0  0  0  0  0
  -90.1711   25.1170   -1.7895 C   0  0  0  0  0  0  0  0  0  0  0  0
  -88.9572   25.1349   -1.1747 C   0  0  0  0  0  0  0  0  0  0  0  0
  -88.5272   26.2529   -0.4549 C   0  0  0  0  0  0  0  0  0  0  0  0
  -89.2994   27.3777   -0.3319 C   0  0  0  0  0  0  0  0  0  0  0  0
  -90.5434   27.3201   -0.9803 C   0  0  0  0  0  0  0  0  0  0  0  0
  -93.6192   26.5545   -5.9949 C   0  0  0  0  0  0  0  0  0  0  0  0
  -94.0536   25.4500   -6.4950 O   0  0  0  0  0  0  0  0  0  0  0  0
  -93.5090   26.6162   -4.5964 N   0  0  0  0  0  0  0  0  0  0  0  0
  -93.8981   25.4189   -3.8349 C   0  0  0  0  0  0  0  0  0  0  0  0
  -92.8056   25.0396   -2.8551 C   0  0  0  0  0  0  0  0  0  0  0  0
  -92.2518   26.2777   -2.3168 N   0  0  0  0  0  0  0  0  0  0  0  0
  -93.0035   27.4938   -2.4285 C   0  0  0  0  0  0  0  0  0  0  0  0
  -93.0336   27.8063   -3.9394 C   0  0  0  0  0  0  0  0  0  0  0  0
  -94.5218   28.5440   -6.9838 C   0  0  0  0  0  0  0  0  0  0  0  0
  -93.2731   27.6588   -6.9021 C   0  0  0  0  0  0  0  0  0  0  0  0
  -92.1718   28.3715   -6.5467 O   0  0  0  0  0  0  0  0  0  0  0  0
  -92.2978   29.3526   -6.6242 H   0  0  0  0  0  0  0  0  0  0  0  0
 35 36  1  0  0  0
 36 37  1  0  0  0
 36 27  1  0  0  0
 27 28  2  0  0  0
 27 29  1  0  0  0
 29 30  1  0  0  0
 30 31  1  0  0  0
 31 32  1  0  0  0
 32 33  1  0  0  0
 33 34  1  0  0  0
 32 21  1  0  0  0
 21 22  2  0  0  0
 22 23  1  0  0  0
 23 24  2  0  0  0
 24 25  1  0  0  0
 25  1  1  0  0  0
  1  3  1  0  0  0
  3  4  2  0  0  0
  4  5  1  0  0  0
  5  6  2  0  0  0
  6  7  1  0  0  0
  6  8  1  0  0  0
  8  9  2  0  0  0
  9 10  1  0  0  0
  9 11  1  0  0  0
 11 12  2  0  0  0
 12 13  1  0  0  0
 13 14  1  0  0  0
 14 15  2  0  0  0
 15 16  1  0  0  0
 16 17  2  0  0  0
 17 18  1  0  0  0
 18 19  1  0  0  0
 18 20  2  0  0  0
 25 26  2  0  0  0
 34 29  1  0  0  0
 26 21  1  0  0  0
 13  3  1  0  0  0
 20 14  1  0  0  0
 12  5  1  0  0  0
 37 38  1  0  0  0
  1  2  1  0  0  0
M  END
> <minimizedAffinity>
-9.85306

> <CNNscore>
0.0865823105

> <CNNaffinity>
6.4361624718

> <CNN_VS>
0.5572578311

> <CNNaffinity_variance>
0.4734946787

$$$$
[H]O[C@@]([H])(C(=O)N1C([H])([H])C([H])([H])N(c2c([H])c([H])c([H])c(N([H])c3nc4c(F)c([H])c(Cl)c([H])c4n3-c3c([H])c([H])c([H])c(Cl)c3[H])c2[H])C([H])([H])C1([H])[H])C([H])([H])[H]


 38 42  0  0  0  0  0  0  0  0999 V2000
  -86.9554   34.2734   -2.2799 N   0  0  0  0  0  0  0  0  0  0  0  0
  -86.3753   35.1631   -2.2136 H   0  0  0  0  0  0  0  0  0  0  0  0
  -88.0193   34.1647   -3.1929 C   0  0  0  0  0  0  0  0  0  0  0  0
  -88.8615   33.1710   -3.5081 N   0  0  0  0  0  0  0  0  0  0  0  0
  -89.7354   33.5265   -4.4570 C   0  0  0  0  0  0  0  0  0  0  0  0
  -90.7774   32.8964   -5.1159 C   0  0  0  0  0  0  0  0  0  0  0  0
  -91.0741   31.6203   -4.8122 F   0  0  0  0  0  0  0  0  0  0  0  0
  -91.4994   33.5736   -6.0718 C   0  0  0  0  0  0  0  0  0  0  0  0
  -91.1933   34.8983   -6.3892 C   0  0  0  0  0  0  0  0  0  0  0  0
  -92.0980   35.7836   -7.6035 Cl  0  0  0  0  0  0  0  0  0  0  0  0
  -90.1550   35.5118   -5.7260 C   0  0  0  0  0  0  0  0  0  0  0  0
  -89.4174   34.8331   -4.7554 C   0  0  0  0  0  0  0  0  0  0  0  0
  -88.3831   35.2215   -3.9952 N   0  0  0  0  0  0  0  0  0  0  0  0
  -87.7611   36.4983   -4.0056 C   0  0  0  0  0  0  0  0  0  0  0  0
  -88.2168   37.4577   -3.1073 C   0  0  0  0  0  0  0  0  0  0  0  0
  -87.6695   38.7174   -3.0525 C   0  0  0  0  0  0  0  0  0  0  0  0
  -86.6484   39.0160   -3.9143 C   0  0  0  0  0  0  0  0  0  0  0  0
  -86.1796   38.0772   -4.8156 C   0  0  0  0  0  0  0  0  0  0  0  0
  -84.8656   38.5226   -5.8961 Cl  0  0  0  0  0  0  0  0  0  0  0  0
  -86.7416   36.8233   -4.8535 C   0  0  0  0  0  0  0  0  0  0  0  0
  -87.1675   31.0353   -0.4545 C   0  0  0  0  0  0  0  0  0  0  0  0
  -86.0373   31.0597    0.3355 C   0  0  0  0  0  0  0  0  0  0  0  0
  -85.2078   32.1358    0.2597 C   0  0  0  0  0  0  0  0  0  0  0  0
  -85.4844   33.2035   -0.5986 C   0  0  0  0  0  0  0  0  0  0  0  0
  -86.5953   33.2214   -1.3999 C   0  0  0  0  0  0  0  0  0  0  0  0
  -87.4251   32.0939   -1.2930 C   0  0  0  0  0  0  0  0  0  0  0  0
  -90.0875   27.9647    2.3059 C   0  0  0  0  0  0  0  0  0  0  0  0
  -91.3406   28.2551    2.3677 O   0  0  0  0  0  0  0  0  0  0  0  0
  -89.4154   28.3089    1.1221 N   0  0  0  0  0  0  0  0  0  0  0  0
  -90.2011   28.9666    0.0663 C   0  0  0  0  0  0  0  0  0  0  0  0
  -89.4981   30.2226   -0.4087 C   0  0  0  0  0  0  0  0  0  0  0  0
  -88.0664   29.9410   -0.4298 N   0  0  0  0  0  0  0  0  0  0  0  0
  -87.6153   28.5797   -0.4309 C   0  0  0  0  0  0  0  0  0  0  0  0
  -88.0132   28.0269    0.9538 C   0  0  0  0  0  0  0  0  0  0  0  0
  -90.1252   27.8907    4.7026 C   0  0  0  0  0  0  0  0  0  0  0  0
  -89.4527   27.3042    3.4563 C   0  0  0  0  0  0  0  0  0  0  0  0
  -89.5104   25.9464    3.4436 O   0  0  0  0  0  0  0  0  0  0  0  0
  -89.7585   25.5562    4.3216 H   0  0  0  0  0  0  0  0  0  0  0  0
 35 36  1  0  0  0
 36 37  1  0  0  0
 36 27  1  0  0  0
 27 28  2  0  0  0
 27 29  1  0  0  0
 29 30  1  0  0  0
 30 31  1  0  0  0
 31 32  1  0  0  0
 32 33  1  0  0  0
 33 34  1  0  0  0
 32 21  1  0  0  0
 21 22  2  0  0  0
 22 23  1  0  0  0
 23 24  2  0  0  0
 24 25  1  0  0  0
 25  1  1  0  0  0
  1  3  1  0  0  0
  3  4  2  0  0  0
  4  5  1  0  0  0
  5  6  2  0  0  0
  6  7  1  0  0  0
  6  8  1  0  0  0
  8  9  2  0  0  0
  9 10  1  0  0  0
  9 11  1  0  0  0
 11 12  2  0  0  0
 12 13  1  0  0  0
 13 14  1  0  0  0
 14 15  2  0  0  0
 15 16  1  0  0  0
 16 17  2  0  0  0
 17 18  1  0  0  0
 18 19  1  0  0  0
 18 20  2  0  0  0
 25 26  2  0  0  0
 34 29  1  0  0  0
 26 21  1  0  0  0
 13  3  1  0  0  0
 20 14  1  0  0  0
 12  5  1  0  0  0
 37 38  1  0  0  0
  1  2  1  0  0  0
M  END
> <minimizedAffinity>
-9.20190

> <CNNscore>
0.0800229982

> <CNNaffinity>
6.4781494141

> <CNN_VS>
0.5184009671

> <CNNaffinity_variance>
0.3792319596

$$$$
[H]O[C@@]([H])(C(=O)N1C([H])([H])C([H])([H])N(c2c([H])c([H])c([H])c(N([H])c3nc4c(F)c([H])c(Cl)c([H])c4n3-c3c([H])c([H])c([H])c(Cl)c3[H])c2[H])C([H])([H])C1([H])[H])C([H])([H])[H]


 38 42  0  0  0  0  0  0  0  0999 V2000
  -87.5513   27.8477    1.1120 N   0  0  0  0  0  0  0  0  0  0  0  0
  -86.5580   27.4673    1.1405 H   0  0  0  0  0  0  0  0  0  0  0  0
  -87.8666   29.0048    0.3776 C   0  0  0  0  0  0  0  0  0  0  0  0
  -88.9755   29.4212   -0.2493 N   0  0  0  0  0  0  0  0  0  0  0  0
  -88.8136   30.6161   -0.8295 C   0  0  0  0  0  0  0  0  0  0  0  0
  -89.6182   31.4611   -1.5749 C   0  0  0  0  0  0  0  0  0  0  0  0
  -90.8851   31.0987   -1.8432 F   0  0  0  0  0  0  0  0  0  0  0  0
  -89.1214   32.6591   -2.0348 C   0  0  0  0  0  0  0  0  0  0  0  0
  -87.8063   33.0377   -1.7579 C   0  0  0  0  0  0  0  0  0  0  0  0
  -87.1490   34.5592   -2.3323 Cl  0  0  0  0  0  0  0  0  0  0  0  0
  -87.0182   32.1877   -1.0157 C   0  0  0  0  0  0  0  0  0  0  0  0
  -87.5133   30.9710   -0.5453 C   0  0  0  0  0  0  0  0  0  0  0  0
  -86.9390   30.0019    0.1824 N   0  0  0  0  0  0  0  0  0  0  0  0
  -85.6063   29.9928    0.6732 C   0  0  0  0  0  0  0  0  0  0  0  0
  -84.8005   31.0945    0.4049 C   0  0  0  0  0  0  0  0  0  0  0  0
  -83.4996   31.1651    0.8433 C   0  0  0  0  0  0  0  0  0  0  0  0
  -83.0024   30.1114    1.5625 C   0  0  0  0  0  0  0  0  0  0  0  0
  -83.7860   29.0061    1.8407 C   0  0  0  0  0  0  0  0  0  0  0  0
  -83.0887   27.6854    2.7690 Cl  0  0  0  0  0  0  0  0  0  0  0  0
  -85.0845   28.9562    1.3925 C   0  0  0  0  0  0  0  0  0  0  0  0
  -90.0663   25.2274    1.9313 C   0  0  0  0  0  0  0  0  0  0  0  0
  -90.4967   25.6042    3.1862 C   0  0  0  0  0  0  0  0  0  0  0  0
  -89.9540   26.7125    3.7599 C   0  0  0  0  0  0  0  0  0  0  0  0
  -88.9778   27.4642    3.1003 C   0  0  0  0  0  0  0  0  0  0  0  0
  -88.5219   27.1271    1.8533 C   0  0  0  0  0  0  0  0  0  0  0  0
  -89.1056   25.9781    1.2961 C   0  0  0  0  0  0  0  0  0  0  0  0
  -92.4078   23.2935   -2.1125 C   0  0  0  0  0  0  0  0  0  0  0  0
  -91.6611   22.7618   -3.0171 O   0  0  0  0  0  0  0  0  0  0  0  0
  -91.9485   23.2183   -0.7878 N   0  0  0  0  0  0  0  0  0  0  0  0
  -90.6623   22.5423   -0.5563 C   0  0  0  0  0  0  0  0  0  0  0  0
  -89.7523   23.4148    0.2851 C   0  0  0  0  0  0  0  0  0  0  0  0
  -90.5841   24.0793    1.2832 N   0  0  0  0  0  0  0  0  0  0  0  0
  -91.8847   23.5536    1.5806 C   0  0  0  0  0  0  0  0  0  0  0  0
  -92.7099   23.7821    0.2968 C   0  0  0  0  0  0  0  0  0  0  0  0
  -93.3785   24.6328   -3.8488 C   0  0  0  0  0  0  0  0  0  0  0  0
  -93.6690   23.9328   -2.5165 C   0  0  0  0  0  0  0  0  0  0  0  0
  -94.7348   23.0946   -2.6087 O   0  0  0  0  0  0  0  0  0  0  0  0
  -95.2794   23.2411   -3.4252 H   0  0  0  0  0  0  0  0  0  0  0  0
 35 36  1  0  0  0
 36 37  1  0  0  0
 36 27  1  0  0  0
 27 28  2  0  0  0
 27 29  1  0  0  0
 29 30  1  0  0  0
 30 31  1  0  0  0
 31 32  1  0  0  0
 32 33  1  0  0  0
 33 34  1  0  0  0
 32 21  1  0  0  0
 21 22  2  0  0  0
 22 23  1  0  0  0
 23 24  2  0  0  0
 24 25  1  0  0  0
 25  1  1  0  0  0
  1  3  1  0  0  0
  3  4  2  0  0  0
  4  5  1  0  0  0
  5  6  2  0  0  0
  6  7  1  0  0  0
  6  8  1  0  0  0
  8  9  2  0  0  0
  9 10  1  0  0  0
  9 11  1  0  0  0
 11 12  2  0  0  0
 12 13  1  0  0  0
 13 14  1  0  0  0
 14 15  2  0  0  0
 15 16  1  0  0  0
 16 17  2  0  0  0
 17 18  1  0  0  0
 18 19  1  0  0  0
 18 20  2  0  0  0
 25 26  2  0  0  0
 34 29  1  0  0  0
 26 21  1  0  0  0
 13  3  1  0  0  0
 20 14  1  0  0  0
 12  5  1  0  0  0
 37 38  1  0  0  0
  1  2  1  0  0  0
M  END
> <minimizedAffinity>
-10.21625

> <CNNscore>
0.0783420280

> <CNNaffinity>
6.6917786598

> <CNN_VS>
0.5242475271

> <CNNaffinity_variance>
0.2372281104

$$$$
[H]O[C@@]([H])(C(=O)N1C([H])([H])C([H])([H])N(c2c([H])c([H])c([H])c(N([H])c3nc4c(F)c([H])c(Cl)c([H])c4n3-c3c([H])c([H])c([H])c(Cl)c3[H])c2[H])C([H])([H])C1([H])[H])C([H])([H])[H]


 38 42  0  0  0  0  0  0  0  0999 V2000
  -88.0285   27.2410   -2.0442 N   0  0  0  0  0  0  0  0  0  0  0  0
  -87.9315   27.0718   -3.0903 H   0  0  0  0  0  0  0  0  0  0  0  0
  -87.3162   28.2711   -1.4045 C   0  0  0  0  0  0  0  0  0  0  0  0
  -86.3383   28.2799   -0.4882 N   0  0  0  0  0  0  0  0  0  0  0  0
  -85.9560   29.5206   -0.1642 C   0  0  0  0  0  0  0  0  0  0  0  0
  -85.0194   30.0640    0.6987 C   0  0  0  0  0  0  0  0  0  0  0  0
  -84.2527   29.2452    1.4404 F   0  0  0  0  0  0  0  0  0  0  0  0
  -84.8786   31.4296    0.7930 C   0  0  0  0  0  0  0  0  0  0  0  0
  -85.6735   32.2820    0.0243 C   0  0  0  0  0  0  0  0  0  0  0  0
  -85.5137   34.0259    0.1260 Cl  0  0  0  0  0  0  0  0  0  0  0  0
  -86.6002   31.7277   -0.8291 C   0  0  0  0  0  0  0  0  0  0  0  0
  -86.7501   30.3443   -0.9314 C   0  0  0  0  0  0  0  0  0  0  0  0
  -87.5716   29.5945   -1.6806 N   0  0  0  0  0  0  0  0  0  0  0  0
  -88.5415   30.0698   -2.6029 C   0  0  0  0  0  0  0  0  0  0  0  0
  -88.0952   30.6087   -3.8051 C   0  0  0  0  0  0  0  0  0  0  0  0
  -88.9676   31.0908   -4.7517 C   0  0  0  0  0  0  0  0  0  0  0  0
  -90.3090   31.0296   -4.4843 C   0  0  0  0  0  0  0  0  0  0  0  0
  -90.7747   30.4977   -3.2954 C   0  0  0  0  0  0  0  0  0  0  0  0
  -92.5095   30.4476   -3.0118 Cl  0  0  0  0  0  0  0  0  0  0  0  0
  -89.8846   30.0213   -2.3625 C   0  0  0  0  0  0  0  0  0  0  0  0
  -91.0763   25.2393   -1.2915 C   0  0  0  0  0  0  0  0  0  0  0  0
  -90.7801   24.6896   -0.0618 C   0  0  0  0  0  0  0  0  0  0  0  0
  -89.5787   24.9734    0.5107 C   0  0  0  0  0  0  0  0  0  0  0  0
  -88.6527   25.8051   -0.1249 C   0  0  0  0  0  0  0  0  0  0  0  0
  -88.9055   26.3728   -1.3457 C   0  0  0  0  0  0  0  0  0  0  0  0
  -90.1546   26.0557   -1.9030 C   0  0  0  0  0  0  0  0  0  0  0  0
  -93.9777   25.9288   -5.3758 C   0  0  0  0  0  0  0  0  0  0  0  0
  -93.9655   24.9940   -6.2616 O   0  0  0  0  0  0  0  0  0  0  0  0
  -93.7822   25.5389   -4.0412 N   0  0  0  0  0  0  0  0  0  0  0  0
  -93.5823   24.1050   -3.7789 C   0  0  0  0  0  0  0  0  0  0  0  0
  -92.3502   23.8929   -2.9221 C   0  0  0  0  0  0  0  0  0  0  0  0
  -92.3050   24.9761   -1.9453 N   0  0  0  0  0  0  0  0  0  0  0  0
  -93.4937   25.7308   -1.6736 C   0  0  0  0  0  0  0  0  0  0  0  0
  -93.7785   26.5080   -2.9760 C   0  0  0  0  0  0  0  0  0  0  0  0
  -92.9453   27.7036   -6.6150 C   0  0  0  0  0  0  0  0  0  0  0  0
  -94.1913   27.3175   -5.8099 C   0  0  0  0  0  0  0  0  0  0  0  0
  -95.3335   27.5304   -6.5149 O   0  0  0  0  0  0  0  0  0  0  0  0
  -95.1994   28.1000   -7.3162 H   0  0  0  0  0  0  0  0  0  0  0  0
 35 36  1  0  0  0
 36 37  1  0  0  0
 36 27  1  0  0  0
 27 28  2  0  0  0
 27 29  1  0  0  0
 29 30  1  0  0  0
 30 31  1  0  0  0
 31 32  1  0  0  0
 32 33  1  0  0  0
 33 34  1  0  0  0
 32 21  1  0  0  0
 21 22  2  0  0  0
 22 23  1  0  0  0
 23 24  2  0  0  0
 24 25  1  0  0  0
 25  1  1  0  0  0
  1  3  1  0  0  0
  3  4  2  0  0  0
  4  5  1  0  0  0
  5  6  2  0  0  0
  6  7  1  0  0  0
  6  8  1  0  0  0
  8  9  2  0  0  0
  9 10  1  0  0  0
  9 11  1  0  0  0
 11 12  2  0  0  0
 12 13  1  0  0  0
 13 14  1  0  0  0
 14 15  2  0  0  0
 15 16  1  0  0  0
 16 17  2  0  0  0
 17 18  1  0  0  0
 18 19  1  0  0  0
 18 20  2  0  0  0
 25 26  2  0  0  0
 34 29  1  0  0  0
 26 21  1  0  0  0
 13  3  1  0  0  0
 20 14  1  0  0  0
 12  5  1  0  0  0
 37 38  1  0  0  0
  1  2  1  0  0  0
M  END
> <minimizedAffinity>
-8.09976

> <CNNscore>
0.0649172291

> <CNNaffinity>
6.2519769669

> <CNN_VS>
0.4058610201

> <CNNaffinity_variance>
0.4480900168

$$$$
[H]c1c([H])c([H])c(N2C([H])([H])C([H])([H])C([H])(C([H])([H])N([H])C(=O)Oc3c([H])c([H])c([H])c([H])c3-c3c([H])c([H])c(OC([H])([H])[H])c([H])c3[H])C([H])([H])C2([H])[H])c(F)c1[H]


 33 36  0  0  0  0  0  0  0  0999 V2000
  -88.1074   28.5463   -1.1400 C   0  0  0  0  0  0  0  0  0  0  0  0
  -88.8483   28.9023   -0.2201 O   0  0  0  0  0  0  0  0  0  0  0  0
  -88.4444   27.6477   -2.1616 N   0  0  0  0  0  0  0  0  0  0  0  0
  -87.6413   27.4313   -2.8978 H   0  0  0  0  0  0  0  0  0  0  0  0
  -86.8189   29.1389   -1.0943 O   0  0  0  0  0  0  0  0  0  0  0  0
  -85.9915   30.7183    0.4559 C   0  0  0  0  0  0  0  0  0  0  0  0
  -85.3458   31.0430    1.6559 C   0  0  0  0  0  0  0  0  0  0  0  0
  -84.8849   30.0580    2.5035 C   0  0  0  0  0  0  0  0  0  0  0  0
  -85.0725   28.7456    2.1461 C   0  0  0  0  0  0  0  0  0  0  0  0
  -85.7057   28.4308    0.9684 C   0  0  0  0  0  0  0  0  0  0  0  0
  -86.1768   29.4029    0.1015 C   0  0  0  0  0  0  0  0  0  0  0  0
  -87.3843   33.8707   -2.0847 C   0  0  0  0  0  0  0  0  0  0  0  0
  -86.0408   33.6169   -1.9252 C   0  0  0  0  0  0  0  0  0  0  0  0
  -85.5749   32.5904   -1.1004 C   0  0  0  0  0  0  0  0  0  0  0  0
  -86.4699   31.7872   -0.4096 C   0  0  0  0  0  0  0  0  0  0  0  0
  -87.8141   32.0376   -0.5663 C   0  0  0  0  0  0  0  0  0  0  0  0
  -88.2728   33.0712   -1.3973 C   0  0  0  0  0  0  0  0  0  0  0  0
  -87.1171   35.1634   -4.1090 C   0  0  0  0  0  0  0  0  0  0  0  0
  -87.8369   34.9003   -2.9125 O   0  0  0  0  0  0  0  0  0  0  0  0
  -89.6358   26.9835   -2.4028 C   0  0  0  0  0  0  0  0  0  0  0  0
  -90.0891   25.7709   -1.7156 C   0  0  0  0  0  0  0  0  0  0  0  0
  -91.3882   25.7335   -1.0256 C   0  0  0  0  0  0  0  0  0  0  0  0
  -91.4007   26.4911    0.2867 C   0  0  0  0  0  0  0  0  0  0  0  0
  -90.4030   25.9325    1.1993 N   0  0  0  0  0  0  0  0  0  0  0  0
  -89.5157   24.9288    0.5984 C   0  0  0  0  0  0  0  0  0  0  0  0
  -88.9613   25.4236   -0.7006 C   0  0  0  0  0  0  0  0  0  0  0  0
  -90.2968   26.3238    2.5586 C   0  0  0  0  0  0  0  0  0  0  0  0
  -89.9893   25.3884    3.5520 C   0  0  0  0  0  0  0  0  0  0  0  0
  -89.8827   25.7594    4.8729 C   0  0  0  0  0  0  0  0  0  0  0  0
  -90.0783   27.0824    5.2613 C   0  0  0  0  0  0  0  0  0  0  0  0
  -90.3839   28.0246    4.2926 C   0  0  0  0  0  0  0  0  0  0  0  0
  -90.4867   27.6360    2.9746 C   0  0  0  0  0  0  0  0  0  0  0  0
  -90.7881   28.5925    2.0558 F   0  0  0  0  0  0  0  0  0  0  0  0
 18 19  1  0  0  0
 19 12  1  0  0  0
 12 13  2  0  0  0
 13 14  1  0  0  0
 14 15  2  0  0  0
 15 16  1  0  0  0
 16 17  2  0  0  0
 15  6  1  0  0  0
  6  7  2  0  0  0
  7  8  1  0  0  0
  8  9  2  0  0  0
  9 10  1  0  0  0
 10 11  2  0  0  0
 11  5  1  0  0  0
  5  1  1  0  0  0
  1  2  2  0  0  0
  1  3  1  0  0  0
  3 20  1  0  0  0
 20 21  1  0  0  0
 21 22  1  0  0  0
 22 23  1  0  0  0
 23 24  1  0  0  0
 24 25  1  0  0  0
 25 26  1  0  0  0
 24 27  1  0  0  0
 27 28  2  0  0  0
 28 29  1  0  0  0
 29 30  2  0  0  0
 30 31  1  0  0  0
 31 32  2  0  0  0
 32 33  1  0  0  0
 17 12  1  0  0  0
 11  6  1  0  0  0
 26 21  1  0  0  0
 32 27  1  0  0  0
  3  4  1  0  0  0
M  END
> <minimizedAffinity>
-9.37325

> <CNNscore>
0.4779932499

> <CNNaffinity>
6.6227350235

> <CNN_VS>
3.1656227112

> <CNNaffinity_variance>
0.1856494695

$$$$
[H]c1c([H])c([H])c(N2C([H])([H])C([H])([H])C([H])(C([H])([H])N([H])C(=O)Oc3c([H])c([H])c([H])c([H])c3-c3c([H])c([H])c(OC([H])([H])[H])c([H])c3[H])C([H])([H])C2([H])[H])c(F)c1[H]


 33 36  0  0  0  0  0  0  0  0999 V2000
  -86.9237   29.1132   -0.1063 C   0  0  0  0  0  0  0  0  0  0  0  0
  -86.5803   28.1297    0.5544 O   0  0  0  0  0  0  0  0  0  0  0  0
  -87.5371   29.0795   -1.3662 N   0  0  0  0  0  0  0  0  0  0  0  0
  -87.7606   30.0683   -1.8204 H   0  0  0  0  0  0  0  0  0  0  0  0
  -86.6412   30.3510    0.5273 O   0  0  0  0  0  0  0  0  0  0  0  0
  -85.1750   32.0480   -0.2163 C   0  0  0  0  0  0  0  0  0  0  0  0
  -83.9109   32.6499   -0.2599 C   0  0  0  0  0  0  0  0  0  0  0  0
  -82.8447   32.1135    0.4305 C   0  0  0  0  0  0  0  0  0  0  0  0
  -83.0478   30.9716    1.1654 C   0  0  0  0  0  0  0  0  0  0  0  0
  -84.2887   30.3837    1.2055 C   0  0  0  0  0  0  0  0  0  0  0  0
  -85.3740   30.9043    0.5203 C   0  0  0  0  0  0  0  0  0  0  0  0
  -88.4073   33.8270   -2.3888 C   0  0  0  0  0  0  0  0  0  0  0  0
  -87.1010   33.9709   -2.7984 C   0  0  0  0  0  0  0  0  0  0  0  0
  -86.0387   33.3938   -2.0987 C   0  0  0  0  0  0  0  0  0  0  0  0
  -86.2777   32.6484   -0.9538 C   0  0  0  0  0  0  0  0  0  0  0  0
  -87.5825   32.5022   -0.5408 C   0  0  0  0  0  0  0  0  0  0  0  0
  -88.6432   33.0856   -1.2504 C   0  0  0  0  0  0  0  0  0  0  0  0
  -90.0629   33.6560   -4.1410 C   0  0  0  0  0  0  0  0  0  0  0  0
  -89.4603   34.4092   -3.0976 O   0  0  0  0  0  0  0  0  0  0  0  0
  -87.9169   27.9953   -2.1403 C   0  0  0  0  0  0  0  0  0  0  0  0
  -89.1462   27.2158   -1.9693 C   0  0  0  0  0  0  0  0  0  0  0  0
  -90.3628   27.8335   -1.4180 C   0  0  0  0  0  0  0  0  0  0  0  0
  -90.2979   28.0734    0.0768 C   0  0  0  0  0  0  0  0  0  0  0  0
  -90.0907   26.8078    0.7808 N   0  0  0  0  0  0  0  0  0  0  0  0
  -89.8110   25.6597   -0.0907 C   0  0  0  0  0  0  0  0  0  0  0  0
  -88.7457   25.9987   -1.0856 C   0  0  0  0  0  0  0  0  0  0  0  0
  -90.1554   26.6914    2.1930 C   0  0  0  0  0  0  0  0  0  0  0  0
  -89.7802   27.7567    3.0181 C   0  0  0  0  0  0  0  0  0  0  0  0
  -89.8413   27.6532    4.3889 C   0  0  0  0  0  0  0  0  0  0  0  0
  -90.2805   26.4803    4.9979 C   0  0  0  0  0  0  0  0  0  0  0  0
  -90.6568   25.4131    4.1984 C   0  0  0  0  0  0  0  0  0  0  0  0
  -90.5895   25.5338    2.8274 C   0  0  0  0  0  0  0  0  0  0  0  0
  -90.9683   24.4626    2.0797 F   0  0  0  0  0  0  0  0  0  0  0  0
 18 19  1  0  0  0
 19 12  1  0  0  0
 12 13  2  0  0  0
 13 14  1  0  0  0
 14 15  2  0  0  0
 15 16  1  0  0  0
 16 17  2  0  0  0
 15  6  1  0  0  0
  6  7  2  0  0  0
  7  8  1  0  0  0
  8  9  2  0  0  0
  9 10  1  0  0  0
 10 11  2  0  0  0
 11  5  1  0  0  0
  5  1  1  0  0  0
  1  2  2  0  0  0
  1  3  1  0  0  0
  3 20  1  0  0  0
 20 21  1  0  0  0
 21 22  1  0  0  0
 22 23  1  0  0  0
 23 24  1  0  0  0
 24 25  1  0  0  0
 25 26  1  0  0  0
 24 27  1  0  0  0
 27 28  2  0  0  0
 28 29  1  0  0  0
 29 30  2  0  0  0
 30 31  1  0  0  0
 31 32  2  0  0  0
 32 33  1  0  0  0
 17 12  1  0  0  0
 11  6  1  0  0  0
 26 21  1  0  0  0
 32 27  1  0  0  0
  3  4  1  0  0  0
M  END
> <minimizedAffinity>
-9.49181

> <CNNscore>
0.3675688803

> <CNNaffinity>
6.5842285156

> <CNN_VS>
2.4201574326

> <CNNaffinity_variance>
0.1373223960

$$$$
[H]c1c([H])c([H])c(N2C([H])([H])C([H])([H])C([H])(C([H])([H])N([H])C(=O)Oc3c([H])c([H])c([H])c([H])c3-c3c([H])c([H])c(OC([H])([H])[H])c([H])c3[H])C([H])([H])C2([H])[H])c(F)c1[H]


 33 36  0  0  0  0  0  0  0  0999 V2000
  -89.3784   29.9042   -0.7125 C   0  0  0  0  0  0  0  0  0  0  0  0
  -90.5589   29.9972   -0.3669 O   0  0  0  0  0  0  0  0  0  0  0  0
  -88.8522   28.9337   -1.5763 N   0  0  0  0  0  0  0  0  0  0  0  0
  -87.7587   28.9950   -1.7616 H   0  0  0  0  0  0  0  0  0  0  0  0
  -88.5400   30.8995   -0.1470 O   0  0  0  0  0  0  0  0  0  0  0  0
  -86.7483   32.2802   -0.8296 C   0  0  0  0  0  0  0  0  0  0  0  0
  -86.2377   33.3654   -1.5533 C   0  0  0  0  0  0  0  0  0  0  0  0
  -87.0618   34.1523   -2.3297 C   0  0  0  0  0  0  0  0  0  0  0  0
  -88.4001   33.8492   -2.3797 C   0  0  0  0  0  0  0  0  0  0  0  0
  -88.8975   32.7845   -1.6683 C   0  0  0  0  0  0  0  0  0  0  0  0
  -88.0891   31.9805   -0.8819 C   0  0  0  0  0  0  0  0  0  0  0  0
  -84.1024   29.8817    1.5323 C   0  0  0  0  0  0  0  0  0  0  0  0
  -84.8827   29.3286    0.5423 C   0  0  0  0  0  0  0  0  0  0  0  0
  -85.7482   30.1014   -0.2355 C   0  0  0  0  0  0  0  0  0  0  0  0
  -85.8446   31.4690   -0.0261 C   0  0  0  0  0  0  0  0  0  0  0  0
  -85.0660   32.0259    0.9628 C   0  0  0  0  0  0  0  0  0  0  0  0
  -84.1993   31.2415    1.7391 C   0  0  0  0  0  0  0  0  0  0  0  0
  -83.6715   27.7951    2.6729 C   0  0  0  0  0  0  0  0  0  0  0  0
  -83.2410   29.0977    2.3028 O   0  0  0  0  0  0  0  0  0  0  0  0
  -89.4891   27.9018   -2.2460 C   0  0  0  0  0  0  0  0  0  0  0  0
  -89.6288   26.5274   -1.7568 C   0  0  0  0  0  0  0  0  0  0  0  0
  -90.8825   26.0687   -1.1378 C   0  0  0  0  0  0  0  0  0  0  0  0
  -91.0956   26.5981    0.2660 C   0  0  0  0  0  0  0  0  0  0  0  0
  -89.9971   26.1756    1.1349 N   0  0  0  0  0  0  0  0  0  0  0  0
  -88.8813   25.5222    0.4394 C   0  0  0  0  0  0  0  0  0  0  0  0
  -88.4583   26.3243   -0.7511 C   0  0  0  0  0  0  0  0  0  0  0  0
  -90.0037   26.3766    2.5391 C   0  0  0  0  0  0  0  0  0  0  0  0
  -89.7002   25.3290    3.4147 C   0  0  0  0  0  0  0  0  0  0  0  0
  -89.7026   25.5153    4.7782 C   0  0  0  0  0  0  0  0  0  0  0  0
  -90.0083   26.7575    5.3288 C   0  0  0  0  0  0  0  0  0  0  0  0
  -90.3118   27.8085    4.4786 C   0  0  0  0  0  0  0  0  0  0  0  0
  -90.3046   27.6045    3.1158 C   0  0  0  0  0  0  0  0  0  0  0  0
  -90.6081   28.6628    2.3172 F   0  0  0  0  0  0  0  0  0  0  0  0
 18 19  1  0  0  0
 19 12  1  0  0  0
 12 13  2  0  0  0
 13 14  1  0  0  0
 14 15  2  0  0  0
 15 16  1  0  0  0
 16 17  2  0  0  0
 15  6  1  0  0  0
  6  7  2  0  0  0
  7  8  1  0  0  0
  8  9  2  0  0  0
  9 10  1  0  0  0
 10 11  2  0  0  0
 11  5  1  0  0  0
  5  1  1  0  0  0
  1  2  2  0  0  0
  1  3  1  0  0  0
  3 20  1  0  0  0
 20 21  1  0  0  0
 21 22  1  0  0  0
 22 23  1  0  0  0
 23 24  1  0  0  0
 24 25  1  0  0  0
 25 26  1  0  0  0
 24 27  1  0  0  0
 27 28  2  0  0  0
 28 29  1  0  0  0
 29 30  2  0  0  0
 30 31  1  0  0  0
 31 32  2  0  0  0
 32 33  1  0  0  0
 17 12  1  0  0  0
 11  6  1  0  0  0
 26 21  1  0  0  0
 32 27  1  0  0  0
  3  4  1  0  0  0
M  END
> <minimizedAffinity>
-9.54499

> <CNNscore>
0.3663317263

> <CNNaffinity>
6.5168495178

> <CNN_VS>
2.3873286247

> <CNNaffinity_variance>
0.3263504207

$$$$
[H]c1c([H])c([H])c(N2C([H])([H])C([H])([H])C([H])(C([H])([H])N([H])C(=O)Oc3c([H])c([H])c([H])c([H])c3-c3c([H])c([H])c(OC([H])([H])[H])c([H])c3[H])C([H])([H])C2([H])[H])c(F)c1[H]


 33 36  0  0  0  0  0  0  0  0999 V2000
  -87.1307   28.2460   -1.1298 C   0  0  0  0  0  0  0  0  0  0  0  0
  -87.2577   27.1766   -0.5282 O   0  0  0  0  0  0  0  0  0  0  0  0
  -88.0395   28.7777   -2.0552 N   0  0  0  0  0  0  0  0  0  0  0  0
  -87.7502   29.7479   -2.5122 H   0  0  0  0  0  0  0  0  0  0  0  0
  -85.9376   28.9425   -0.8062 O   0  0  0  0  0  0  0  0  0  0  0  0
  -85.6765   30.5410    0.9141 C   0  0  0  0  0  0  0  0  0  0  0  0
  -85.3362   30.8912    2.2270 C   0  0  0  0  0  0  0  0  0  0  0  0
  -84.9111   29.9386    3.1287 C   0  0  0  0  0  0  0  0  0  0  0  0
  -84.8277   28.6330    2.7120 C   0  0  0  0  0  0  0  0  0  0  0  0
  -85.1618   28.2932    1.4236 C   0  0  0  0  0  0  0  0  0  0  0  0
  -85.5910   29.2325    0.5006 C   0  0  0  0  0  0  0  0  0  0  0  0
  -87.0145   33.5704   -1.7996 C   0  0  0  0  0  0  0  0  0  0  0  0
  -87.8978   32.6998   -1.2024 C   0  0  0  0  0  0  0  0  0  0  0  0
  -87.4730   31.7087   -0.3145 C   0  0  0  0  0  0  0  0  0  0  0  0
  -86.1273   31.5749   -0.0069 C   0  0  0  0  0  0  0  0  0  0  0  0
  -85.2409   32.4434   -0.6019 C   0  0  0  0  0  0  0  0  0  0  0  0
  -85.6770   33.4360   -1.4927 C   0  0  0  0  0  0  0  0  0  0  0  0
  -88.8327   34.5912   -3.0214 C   0  0  0  0  0  0  0  0  0  0  0  0
  -87.4523   34.5570   -2.6858 O   0  0  0  0  0  0  0  0  0  0  0  0
  -89.2568   28.2804   -2.4906 C   0  0  0  0  0  0  0  0  0  0  0  0
  -90.5417   28.4560   -1.8078 C   0  0  0  0  0  0  0  0  0  0  0  0
  -90.6986   29.4518   -0.7359 C   0  0  0  0  0  0  0  0  0  0  0  0
  -90.0510   29.0433    0.5718 C   0  0  0  0  0  0  0  0  0  0  0  0
  -90.6315   27.7885    1.0501 N   0  0  0  0  0  0  0  0  0  0  0  0
  -91.5386   27.1311    0.1010 C   0  0  0  0  0  0  0  0  0  0  0  0
  -90.9139   27.0488   -1.2565 C   0  0  0  0  0  0  0  0  0  0  0  0
  -90.3466   27.2452    2.3290 C   0  0  0  0  0  0  0  0  0  0  0  0
  -89.6170   26.0589    2.4578 C   0  0  0  0  0  0  0  0  0  0  0  0
  -89.3345   25.5256    3.6945 C   0  0  0  0  0  0  0  0  0  0  0  0
  -89.7682   26.1540    4.8593 C   0  0  0  0  0  0  0  0  0  0  0  0
  -90.4924   27.3303    4.7536 C   0  0  0  0  0  0  0  0  0  0  0  0
  -90.7664   27.8505    3.5074 C   0  0  0  0  0  0  0  0  0  0  0  0
  -91.4799   29.0069    3.4486 F   0  0  0  0  0  0  0  0  0  0  0  0
 18 19  1  0  0  0
 19 12  1  0  0  0
 12 13  2  0  0  0
 13 14  1  0  0  0
 14 15  2  0  0  0
 15 16  1  0  0  0
 16 17  2  0  0  0
 15  6  1  0  0  0
  6  7  2  0  0  0
  7  8  1  0  0  0
  8  9  2  0  0  0
  9 10  1  0  0  0
 10 11  2  0  0  0
 11  5  1  0  0  0
  5  1  1  0  0  0
  1  2  2  0  0  0
  1  3  1  0  0  0
  3 20  1  0  0  0
 20 21  1  0  0  0
 21 22  1  0  0  0
 22 23  1  0  0  0
 23 24  1  0  0  0
 24 25  1  0  0  0
 25 26  1  0  0  0
 24 27  1  0  0  0
 27 28  2  0  0  0
 28 29  1  0  0  0
 29 30  2  0  0  0
 30 31  1  0  0  0
 31 32  2  0  0  0
 32 33  1  0  0  0
 17 12  1  0  0  0
 11  6  1  0  0  0
 26 21  1  0  0  0
 32 27  1  0  0  0
  3  4  1  0  0  0
M  END
> <minimizedAffinity>
-9.47010

> <CNNscore>
0.3508239388

> <CNNaffinity>
6.5074400902

> <CNN_VS>
2.2829656601

> <CNNaffinity_variance>
0.2585600317

$$$$
[H]c1c([H])c([H])c(N2C([H])([H])C([H])([H])C([H])(C([H])([H])N([H])C(=O)Oc3c([H])c([H])c([H])c([H])c3-c3c([H])c([H])c(OC([H])([H])[H])c([H])c3[H])C([H])([H])C2([H])[H])c(F)c1[H]


 33 36  0  0  0  0  0  0  0  0999 V2000
  -87.3104   32.6632   -0.7667 C   0  0  0  0  0  0  0  0  0  0  0  0
  -86.5696   33.6365   -0.9272 O   0  0  0  0  0  0  0  0  0  0  0  0
  -88.5875   32.5059   -1.3226 N   0  0  0  0  0  0  0  0  0  0  0  0
  -89.1182   31.5677   -1.0540 H   0  0  0  0  0  0  0  0  0  0  0  0
  -86.7547   31.6563    0.0644 O   0  0  0  0  0  0  0  0  0  0  0  0
  -84.9033   30.2529    0.4948 C   0  0  0  0  0  0  0  0  0  0  0  0
  -83.5283   30.0481    0.6667 C   0  0  0  0  0  0  0  0  0  0  0  0
  -82.6363   31.0949    0.5682 C   0  0  0  0  0  0  0  0  0  0  0  0
  -83.1254   32.3488    0.2966 C   0  0  0  0  0  0  0  0  0  0  0  0
  -84.4745   32.5462    0.1290 C   0  0  0  0  0  0  0  0  0  0  0  0
  -85.3889   31.5102    0.2235 C   0  0  0  0  0  0  0  0  0  0  0  0
  -87.5677   26.9168    0.8172 C   0  0  0  0  0  0  0  0  0  0  0  0
  -86.9300   27.4365    1.9209 C   0  0  0  0  0  0  0  0  0  0  0  0
  -86.0601   28.5253    1.8281 C   0  0  0  0  0  0  0  0  0  0  0  0
  -85.8127   29.1206    0.6001 C   0  0  0  0  0  0  0  0  0  0  0  0
  -86.4483   28.6041   -0.5060 C   0  0  0  0  0  0  0  0  0  0  0  0
  -87.3207   27.5098   -0.4029 C   0  0  0  0  0  0  0  0  0  0  0  0
  -89.1336   25.4110   -0.2414 C   0  0  0  0  0  0  0  0  0  0  0  0
  -88.4352   25.8277    0.9238 O   0  0  0  0  0  0  0  0  0  0  0  0
  -89.2978   33.3433   -2.1671 C   0  0  0  0  0  0  0  0  0  0  0  0
  -89.2044   33.3560   -3.6297 C   0  0  0  0  0  0  0  0  0  0  0  0
  -87.8971   33.3199   -4.3044 C   0  0  0  0  0  0  0  0  0  0  0  0
  -87.1429   34.6325   -4.2373 C   0  0  0  0  0  0  0  0  0  0  0  0
  -87.9294   35.6969   -4.8610 N   0  0  0  0  0  0  0  0  0  0  0  0
  -89.2988   35.3139   -5.2266 C   0  0  0  0  0  0  0  0  0  0  0  0
  -89.9787   34.6277   -4.0835 C   0  0  0  0  0  0  0  0  0  0  0  0
  -87.4152   36.9974   -5.0983 C   0  0  0  0  0  0  0  0  0  0  0  0
  -87.3484   37.9410   -4.0681 C   0  0  0  0  0  0  0  0  0  0  0  0
  -86.8496   39.2044   -4.2890 C   0  0  0  0  0  0  0  0  0  0  0  0
  -86.3945   39.5823   -5.5498 C   0  0  0  0  0  0  0  0  0  0  0  0
  -86.4520   38.6623   -6.5841 C   0  0  0  0  0  0  0  0  0  0  0  0
  -86.9543   37.4015   -6.3455 C   0  0  0  0  0  0  0  0  0  0  0  0
  -86.9929   36.5292   -7.3882 F   0  0  0  0  0  0  0  0  0  0  0  0
 18 19  1  0  0  0
 19 12  1  0  0  0
 12 13  2  0  0  0
 13 14  1  0  0  0
 14 15  2  0  0  0
 15 16  1  0  0  0
 16 17  2  0  0  0
 15  6  1  0  0  0
  6  7  2  0  0  0
  7  8  1  0  0  0
  8  9  2  0  0  0
  9 10  1  0  0  0
 10 11  2  0  0  0
 11  5  1  0  0  0
  5  1  1  0  0  0
  1  2  2  0  0  0
  1  3  1  0  0  0
  3 20  1  0  0  0
 20 21  1  0  0  0
 21 22  1  0  0  0
 22 23  1  0  0  0
 23 24  1  0  0  0
 24 25  1  0  0  0
 25 26  1  0  0  0
 24 27  1  0  0  0
 27 28  2  0  0  0
 28 29  1  0  0  0
 29 30  2  0  0  0
 30 31  1  0  0  0
 31 32  2  0  0  0
 32 33  1  0  0  0
 17 12  1  0  0  0
 11  6  1  0  0  0
 26 21  1  0  0  0
 32 27  1  0  0  0
  3  4  1  0  0  0
M  END
> <minimizedAffinity>
-8.51678

> <CNNscore>
0.2814726532

> <CNNaffinity>
6.0625276566

> <CNN_VS>
1.7064357996

> <CNNaffinity_variance>
0.4486990869

$$$$
[H]c1c([H])c([H])c(N2C([H])([H])C([H])([H])C([H])(C([H])([H])N([H])C(=O)Oc3c([H])c([H])c([H])c([H])c3-c3c([H])c([H])c(OC([H])([H])[H])c([H])c3[H])C([H])([H])C2([H])[H])c(F)c1[H]


 33 36  0  0  0  0  0  0  0  0999 V2000
  -85.9655   33.2036   -1.5197 C   0  0  0  0  0  0  0  0  0  0  0  0
  -86.2693   33.8404   -0.5077 O   0  0  0  0  0  0  0  0  0  0  0  0
  -86.3016   33.5490   -2.8360 N   0  0  0  0  0  0  0  0  0  0  0  0
  -85.9556   32.8451   -3.6225 H   0  0  0  0  0  0  0  0  0  0  0  0
  -85.2111   32.0326   -1.2497 O   0  0  0  0  0  0  0  0  0  0  0  0
  -85.8987   30.5361    0.4445 C   0  0  0  0  0  0  0  0  0  0  0  0
  -85.7866   30.0029    1.7350 C   0  0  0  0  0  0  0  0  0  0  0  0
  -84.8350   30.4704    2.6165 C   0  0  0  0  0  0  0  0  0  0  0  0
  -83.9950   31.4743    2.2021 C   0  0  0  0  0  0  0  0  0  0  0  0
  -84.1080   31.9952    0.9360 C   0  0  0  0  0  0  0  0  0  0  0  0
  -85.0559   31.5417    0.0336 C   0  0  0  0  0  0  0  0  0  0  0  0
  -88.8665   28.9882   -2.2253 C   0  0  0  0  0  0  0  0  0  0  0  0
  -87.6254   28.4033   -2.1136 C   0  0  0  0  0  0  0  0  0  0  0  0
  -86.6500   28.8986   -1.2450 C   0  0  0  0  0  0  0  0  0  0  0  0
  -86.9122   30.0112   -0.4596 C   0  0  0  0  0  0  0  0  0  0  0  0
  -88.1520   30.5989   -0.5684 C   0  0  0  0  0  0  0  0  0  0  0  0
  -89.1256   30.0942   -1.4438 C   0  0  0  0  0  0  0  0  0  0  0  0
  -90.4759   27.2639   -2.7521 C   0  0  0  0  0  0  0  0  0  0  0  0
  -89.8329   28.4830   -3.0978 O   0  0  0  0  0  0  0  0  0  0  0  0
  -87.0009   34.6443   -3.3157 C   0  0  0  0  0  0  0  0  0  0  0  0
  -88.3958   34.9676   -3.0031 C   0  0  0  0  0  0  0  0  0  0  0  0
  -89.4264   33.9177   -2.9704 C   0  0  0  0  0  0  0  0  0  0  0  0
  -89.8394   33.4295   -4.3441 C   0  0  0  0  0  0  0  0  0  0  0  0
  -90.3699   34.5406   -5.1343 N   0  0  0  0  0  0  0  0  0  0  0  0
  -90.2131   35.8630   -4.5158 C   0  0  0  0  0  0  0  0  0  0  0  0
  -88.8097   36.0579   -4.0340 C   0  0  0  0  0  0  0  0  0  0  0  0
  -90.9897   34.3615   -6.3976 C   0  0  0  0  0  0  0  0  0  0  0  0
  -92.1414   33.5785   -6.5266 C   0  0  0  0  0  0  0  0  0  0  0  0
  -92.7501   33.4006   -7.7479 C   0  0  0  0  0  0  0  0  0  0  0  0
  -92.2356   33.9976   -8.8961 C   0  0  0  0  0  0  0  0  0  0  0  0
  -91.0953   34.7773   -8.7898 C   0  0  0  0  0  0  0  0  0  0  0  0
  -90.4985   34.9450   -7.5592 C   0  0  0  0  0  0  0  0  0  0  0  0
  -89.3812   35.7182   -7.4992 F   0  0  0  0  0  0  0  0  0  0  0  0
 18 19  1  0  0  0
 19 12  1  0  0  0
 12 13  2  0  0  0
 13 14  1  0  0  0
 14 15  2  0  0  0
 15 16  1  0  0  0
 16 17  2  0  0  0
 15  6  1  0  0  0
  6  7  2  0  0  0
  7  8  1  0  0  0
  8  9  2  0  0  0
  9 10  1  0  0  0
 10 11  2  0  0  0
 11  5  1  0  0  0
  5  1  1  0  0  0
  1  2  2  0  0  0
  1  3  1  0  0  0
  3 20  1  0  0  0
 20 21  1  0  0  0
 21 22  1  0  0  0
 22 23  1  0  0  0
 23 24  1  0  0  0
 24 25  1  0  0  0
 25 26  1  0  0  0
 24 27  1  0  0  0
 27 28  2  0  0  0
 28 29  1  0  0  0
 29 30  2  0  0  0
 30 31  1  0  0  0
 31 32  2  0  0  0
 32 33  1  0  0  0
 17 12  1  0  0  0
 11  6  1  0  0  0
 26 21  1  0  0  0
 32 27  1  0  0  0
  3  4  1  0  0  0
M  END
> <minimizedAffinity>
-8.45700

> <CNNscore>
0.2466356605

> <CNNaffinity>
5.9494824409

> <CNN_VS>
1.4673545361

> <CNNaffinity_variance>
0.4461264014

$$$$
[H]c1c([H])c([H])c(N2C([H])([H])C([H])([H])C([H])(C([H])([H])N([H])C(=O)Oc3c([H])c([H])c([H])c([H])c3-c3c([H])c([H])c(OC([H])([H])[H])c([H])c3[H])C([H])([H])C2([H])[H])c(F)c1[H]


 33 36  0  0  0  0  0  0  0  0999 V2000
  -88.2975   31.9598   -0.9961 C   0  0  0  0  0  0  0  0  0  0  0  0
  -88.9099   33.0270   -1.0846 O   0  0  0  0  0  0  0  0  0  0  0  0
  -88.4669   30.8470   -1.8315 N   0  0  0  0  0  0  0  0  0  0  0  0
  -87.8385   29.9632   -1.5907 H   0  0  0  0  0  0  0  0  0  0  0  0
  -87.3574   31.9298    0.0663 O   0  0  0  0  0  0  0  0  0  0  0  0
  -85.1423   31.1165    0.1874 C   0  0  0  0  0  0  0  0  0  0  0  0
  -83.7633   31.2691   -0.0056 C   0  0  0  0  0  0  0  0  0  0  0  0
  -83.2441   32.4333   -0.5312 C   0  0  0  0  0  0  0  0  0  0  0  0
  -84.1103   33.4454   -0.8635 C   0  0  0  0  0  0  0  0  0  0  0  0
  -85.4621   33.2926   -0.6726 C   0  0  0  0  0  0  0  0  0  0  0  0
  -86.0063   32.1327   -0.1462 C   0  0  0  0  0  0  0  0  0  0  0  0
  -86.6560   27.4495    1.7979 C   0  0  0  0  0  0  0  0  0  0  0  0
  -86.7539   27.7394    0.4558 C   0  0  0  0  0  0  0  0  0  0  0  0
  -86.2624   28.9316   -0.0810 C   0  0  0  0  0  0  0  0  0  0  0  0
  -85.6527   29.8693    0.7390 C   0  0  0  0  0  0  0  0  0  0  0  0
  -85.5528   29.5833    2.0816 C   0  0  0  0  0  0  0  0  0  0  0  0
  -86.0495   28.3828    2.6118 C   0  0  0  0  0  0  0  0  0  0  0  0
  -88.5501   26.1516    2.5516 C   0  0  0  0  0  0  0  0  0  0  0  0
  -87.1516   26.2537    2.3220 O   0  0  0  0  0  0  0  0  0  0  0  0
  -89.3003   30.6758   -2.9246 C   0  0  0  0  0  0  0  0  0  0  0  0
  -89.0113   31.1150   -4.2927 C   0  0  0  0  0  0  0  0  0  0  0  0
  -87.6611   31.5572   -4.6757 C   0  0  0  0  0  0  0  0  0  0  0  0
  -87.3008   32.9321   -4.1502 C   0  0  0  0  0  0  0  0  0  0  0  0
  -88.2477   33.9271   -4.6537 N   0  0  0  0  0  0  0  0  0  0  0  0
  -89.4011   33.3686   -5.3705 C   0  0  0  0  0  0  0  0  0  0  0  0
  -90.0255   32.2593   -4.5837 C   0  0  0  0  0  0  0  0  0  0  0  0
  -88.0708   35.3223   -4.4694 C   0  0  0  0  0  0  0  0  0  0  0  0
  -87.0046   35.9960   -5.0742 C   0  0  0  0  0  0  0  0  0  0  0  0
  -86.8263   37.3496   -4.9022 C   0  0  0  0  0  0  0  0  0  0  0  0
  -87.7057   38.0920   -4.1179 C   0  0  0  0  0  0  0  0  0  0  0  0
  -88.7686   37.4436   -3.5100 C   0  0  0  0  0  0  0  0  0  0  0  0
  -88.9324   36.0877   -3.6929 C   0  0  0  0  0  0  0  0  0  0  0  0
  -89.9887   35.4906   -3.0785 F   0  0  0  0  0  0  0  0  0  0  0  0
 18 19  1  0  0  0
 19 12  1  0  0  0
 12 13  2  0  0  0
 13 14  1  0  0  0
 14 15  2  0  0  0
 15 16  1  0  0  0
 16 17  2  0  0  0
 15  6  1  0  0  0
  6  7  2  0  0  0
  7  8  1  0  0  0
  8  9  2  0  0  0
  9 10  1  0  0  0
 10 11  2  0  0  0
 11  5  1  0  0  0
  5  1  1  0  0  0
  1  2  2  0  0  0
  1  3  1  0  0  0
  3 20  1  0  0  0
 20 21  1  0  0  0
 21 22  1  0  0  0
 22 23  1  0  0  0
 23 24  1  0  0  0
 24 25  1  0  0  0
 25 26  1  0  0  0
 24 27  1  0  0  0
 27 28  2  0  0  0
 28 29  1  0  0  0
 29 30  2  0  0  0
 30 31  1  0  0  0
 31 32  2  0  0  0
 32 33  1  0  0  0
 17 12  1  0  0  0
 11  6  1  0  0  0
 26 21  1  0  0  0
 32 27  1  0  0  0
  3  4  1  0  0  0
M  END
> <minimizedAffinity>
-8.72567

> <CNNscore>
0.2423826307

> <CNNaffinity>
6.0629715919

> <CNN_VS>
1.4695589542

> <CNNaffinity_variance>
0.5076967478

$$$$
[H]c1c([H])c([H])c(N2C([H])([H])C([H])([H])C([H])(C([H])([H])N([H])C(=O)Oc3c([H])c([H])c([H])c([H])c3-c3c([H])c([H])c(OC([H])([H])[H])c([H])c3[H])C([H])([H])C2([H])[H])c(F)c1[H]


 33 36  0  0  0  0  0  0  0  0999 V2000
  -88.8639   31.2112   -1.2462 C   0  0  0  0  0  0  0  0  0  0  0  0
  -89.6206   32.0636   -1.7180 O   0  0  0  0  0  0  0  0  0  0  0  0
  -88.8066   29.8645   -1.6308 N   0  0  0  0  0  0  0  0  0  0  0  0
  -88.0720   29.2372   -1.0822 H   0  0  0  0  0  0  0  0  0  0  0  0
  -88.0069   31.7104   -0.2315 O   0  0  0  0  0  0  0  0  0  0  0  0
  -85.6477   31.6184   -0.1401 C   0  0  0  0  0  0  0  0  0  0  0  0
  -84.3839   32.1588   -0.4101 C   0  0  0  0  0  0  0  0  0  0  0  0
  -84.2523   33.3660   -1.0631 C   0  0  0  0  0  0  0  0  0  0  0  0
  -85.3908   34.0315   -1.4455 C   0  0  0  0  0  0  0  0  0  0  0  0
  -86.6286   33.4988   -1.1787 C   0  0  0  0  0  0  0  0  0  0  0  0
  -86.7852   32.2882   -0.5242 C   0  0  0  0  0  0  0  0  0  0  0  0
  -85.9468   27.8478    1.8662 C   0  0  0  0  0  0  0  0  0  0  0  0
  -86.1413   27.9563    0.5078 C   0  0  0  0  0  0  0  0  0  0  0  0
  -86.0448   29.1807   -0.1576 C   0  0  0  0  0  0  0  0  0  0  0  0
  -85.7451   30.3377    0.5459 C   0  0  0  0  0  0  0  0  0  0  0  0
  -85.5499   30.2335    1.9044 C   0  0  0  0  0  0  0  0  0  0  0  0
  -85.6489   28.9990    2.5642 C   0  0  0  0  0  0  0  0  0  0  0  0
  -87.3159   25.9807    2.5589 C   0  0  0  0  0  0  0  0  0  0  0  0
  -86.0462   26.6174    2.5194 O   0  0  0  0  0  0  0  0  0  0  0  0
  -89.5262   29.1865   -2.6010 C   0  0  0  0  0  0  0  0  0  0  0  0
  -90.0380   27.8184   -2.4812 C   0  0  0  0  0  0  0  0  0  0  0  0
  -91.4003   27.5611   -1.9879 C   0  0  0  0  0  0  0  0  0  0  0  0
  -91.5516   27.7567   -0.4929 C   0  0  0  0  0  0  0  0  0  0  0  0
  -90.6476   26.8585    0.2259 N   0  0  0  0  0  0  0  0  0  0  0  0
  -89.6966   26.1342   -0.6266 C   0  0  0  0  0  0  0  0  0  0  0  0
  -89.0167   27.0717   -1.5746 C   0  0  0  0  0  0  0  0  0  0  0  0
  -90.6830   26.6942    1.6344 C   0  0  0  0  0  0  0  0  0  0  0  0
  -90.6428   27.8023    2.4868 C   0  0  0  0  0  0  0  0  0  0  0  0
  -90.6784   27.6524    3.8542 C   0  0  0  0  0  0  0  0  0  0  0  0
  -90.7560   26.3877    4.4323 C   0  0  0  0  0  0  0  0  0  0  0  0
  -90.7969   25.2768    3.6054 C   0  0  0  0  0  0  0  0  0  0  0  0
  -90.7605   25.4450    2.2382 C   0  0  0  0  0  0  0  0  0  0  0  0
  -90.8028   24.3283    1.4631 F   0  0  0  0  0  0  0  0  0  0  0  0
 18 19  1  0  0  0
 19 12  1  0  0  0
 12 13  2  0  0  0
 13 14  1  0  0  0
 14 15  2  0  0  0
 15 16  1  0  0  0
 16 17  2  0  0  0
 15  6  1  0  0  0
  6  7  2  0  0  0
  7  8  1  0  0  0
  8  9  2  0  0  0
  9 10  1  0  0  0
 10 11  2  0  0  0
 11  5  1  0  0  0
  5  1  1  0  0  0
  1  2  2  0  0  0
  1  3  1  0  0  0
  3 20  1  0  0  0
 20 21  1  0  0  0
 21 22  1  0  0  0
 22 23  1  0  0  0
 23 24  1  0  0  0
 24 25  1  0  0  0
 25 26  1  0  0  0
 24 27  1  0  0  0
 27 28  2  0  0  0
 28 29  1  0  0  0
 29 30  2  0  0  0
 30 31  1  0  0  0
 31 32  2  0  0  0
 32 33  1  0  0  0
 17 12  1  0  0  0
 11  6  1  0  0  0
 26 21  1  0  0  0
 32 27  1  0  0  0
  3  4  1  0  0  0
M  END
> <minimizedAffinity>
-7.69830

> <CNNscore>
0.2362154424

> <CNNaffinity>
6.3486189842

> <CNN_VS>
1.4996418953

> <CNNaffinity_variance>
0.1594370306

$$$$
[H]c1c([H])c([H])c(N2C([H])([H])C([H])([H])C([H])(C([H])([H])N([H])C(=O)Oc3c([H])c([H])c([H])c([H])c3-c3c([H])c([H])c(OC([H])([H])[H])c([H])c3[H])C([H])([H])C2([H])[H])c(F)c1[H]


 33 36  0  0  0  0  0  0  0  0999 V2000
  -86.9279   28.8142   -0.2087 C   0  0  0  0  0  0  0  0  0  0  0  0
  -86.3748   28.6960   -1.3051 O   0  0  0  0  0  0  0  0  0  0  0  0
  -87.6965   27.8317    0.4307 N   0  0  0  0  0  0  0  0  0  0  0  0
  -88.1330   28.1225    1.4099 H   0  0  0  0  0  0  0  0  0  0  0  0
  -86.7243   30.0809    0.3974 O   0  0  0  0  0  0  0  0  0  0  0  0
  -85.2208   31.8402   -0.0788 C   0  0  0  0  0  0  0  0  0  0  0  0
  -83.9612   32.4442    0.0247 C   0  0  0  0  0  0  0  0  0  0  0  0
  -82.9434   31.8469    0.7378 C   0  0  0  0  0  0  0  0  0  0  0  0
  -83.1906   30.6418    1.3478 C   0  0  0  0  0  0  0  0  0  0  0  0
  -84.4269   30.0521    1.2438 C   0  0  0  0  0  0  0  0  0  0  0  0
  -85.4639   30.6332    0.5330 C   0  0  0  0  0  0  0  0  0  0  0  0
  -88.3015   33.8108   -2.3056 C   0  0  0  0  0  0  0  0  0  0  0  0
  -86.9697   34.0060   -2.5937 C   0  0  0  0  0  0  0  0  0  0  0  0
  -85.9562   33.3675   -1.8752 C   0  0  0  0  0  0  0  0  0  0  0  0
  -86.2720   32.5057   -0.8355 C   0  0  0  0  0  0  0  0  0  0  0  0
  -87.6024   32.3077   -0.5441 C   0  0  0  0  0  0  0  0  0  0  0  0
  -88.6137   32.9537   -1.2716 C   0  0  0  0  0  0  0  0  0  0  0  0
  -89.0370   35.7570   -3.5351 C   0  0  0  0  0  0  0  0  0  0  0  0
  -89.3051   34.4555   -3.0318 O   0  0  0  0  0  0  0  0  0  0  0  0
  -87.9966   26.5397    0.0315 C   0  0  0  0  0  0  0  0  0  0  0  0
  -89.1959   25.7879    0.4118 C   0  0  0  0  0  0  0  0  0  0  0  0
  -89.4892   24.4773   -0.1896 C   0  0  0  0  0  0  0  0  0  0  0  0
  -89.9866   24.5626   -1.6184 C   0  0  0  0  0  0  0  0  0  0  0  0
  -91.2138   25.3568   -1.6771 N   0  0  0  0  0  0  0  0  0  0  0  0
  -91.5711   26.0275   -0.4208 C   0  0  0  0  0  0  0  0  0  0  0  0
  -90.3900   26.7504    0.1467 C   0  0  0  0  0  0  0  0  0  0  0  0
  -92.0019   25.4725   -2.8508 C   0  0  0  0  0  0  0  0  0  0  0  0
  -92.8760   24.4492   -3.2313 C   0  0  0  0  0  0  0  0  0  0  0  0
  -93.6455   24.5536   -4.3673 C   0  0  0  0  0  0  0  0  0  0  0  0
  -93.5767   25.6861   -5.1751 C   0  0  0  0  0  0  0  0  0  0  0  0
  -92.7169   26.7114   -4.8158 C   0  0  0  0  0  0  0  0  0  0  0  0
  -91.9536   26.5904   -3.6749 C   0  0  0  0  0  0  0  0  0  0  0  0
  -91.1230   27.6199   -3.3586 F   0  0  0  0  0  0  0  0  0  0  0  0
 18 19  1  0  0  0
 19 12  1  0  0  0
 12 13  2  0  0  0
 13 14  1  0  0  0
 14 15  2  0  0  0
 15 16  1  0  0  0
 16 17  2  0  0  0
 15  6  1  0  0  0
  6  7  2  0  0  0
  7  8  1  0  0  0
  8  9  2  0  0  0
  9 10  1  0  0  0
 10 11  2  0  0  0
 11  5  1  0  0  0
  5  1  1  0  0  0
  1  2  2  0  0  0
  1  3  1  0  0  0
  3 20  1  0  0  0
 20 21  1  0  0  0
 21 22  1  0  0  0
 22 23  1  0  0  0
 23 24  1  0  0  0
 24 25  1  0  0  0
 25 26  1  0  0  0
 24 27  1  0  0  0
 27 28  2  0  0  0
 28 29  1  0  0  0
 29 30  2  0  0  0
 30 31  1  0  0  0
 31 32  2  0  0  0
 32 33  1  0  0  0
 17 12  1  0  0  0
 11  6  1  0  0  0
 26 21  1  0  0  0
 32 27  1  0  0  0
  3  4  1  0  0  0
M  END
> <minimizedAffinity>
-8.90000

> <CNNscore>
0.1892323196

> <CNNaffinity>
6.0286922455

> <CNN_VS>
1.1408233643

> <CNNaffinity_variance>
0.1548620313

$$$$
[H]c1nc(-c2c([H])c([H])c([H])c(C(=O)N3C([H])([H])C([H])([H])N(C4([H])C([H])([H])C4([H])[H])C([H])([H])C3([H])[H])c2[H])c([H])c(N([H])[H])c1[H]


 26 29  0  0  0  0  0  0  0  0999 V2000
  -85.7563   31.9080   -0.3493 C   0  0  0  0  0  0  0  0  0  0  0  0
  -84.5288   32.4518   -0.0419 C   0  0  0  0  0  0  0  0  0  0  0  0
  -83.6474   31.7803    0.7557 C   0  0  0  0  0  0  0  0  0  0  0  0
  -84.0275   30.5138    1.2571 C   0  0  0  0  0  0  0  0  0  0  0  0
  -85.2311   29.9299    0.9832 C   0  0  0  0  0  0  0  0  0  0  0  0
  -86.0948   30.6741    0.1547 C   0  0  0  0  0  0  0  0  0  0  0  0
  -86.6356   35.1028   -4.0355 N   0  0  0  0  0  0  0  0  0  0  0  0
  -87.0975   34.2495   -2.9943 C   0  0  0  0  0  0  0  0  0  0  0  0
  -88.4408   34.1278   -2.7448 C   0  0  0  0  0  0  0  0  0  0  0  0
  -88.8701   33.2920   -1.7293 C   0  0  0  0  0  0  0  0  0  0  0  0
  -87.9653   32.6288   -1.0229 N   0  0  0  0  0  0  0  0  0  0  0  0
  -86.6397   32.6941   -1.2047 C   0  0  0  0  0  0  0  0  0  0  0  0
  -86.2011   33.5260   -2.2164 C   0  0  0  0  0  0  0  0  0  0  0  0
  -85.8044   35.6794   -3.8670 H   0  0  0  0  0  0  0  0  0  0  0  0
  -87.1330   35.1328   -4.9326 H   0  0  0  0  0  0  0  0  0  0  0  0
  -85.6732   28.6607    1.4654 C   0  0  0  0  0  0  0  0  0  0  0  0
  -84.9502   28.1868    2.4791 O   0  0  0  0  0  0  0  0  0  0  0  0
  -86.6911   27.7993    1.1194 N   0  0  0  0  0  0  0  0  0  0  0  0
  -87.6583   27.9502    0.1015 C   0  0  0  0  0  0  0  0  0  0  0  0
  -88.5555   26.7288   -0.0558 C   0  0  0  0  0  0  0  0  0  0  0  0
  -89.1612   26.3501    1.1880 N   0  0  0  0  0  0  0  0  0  0  0  0
  -88.2589   26.4385    2.3075 C   0  0  0  0  0  0  0  0  0  0  0  0
  -86.8227   26.5358    1.8898 C   0  0  0  0  0  0  0  0  0  0  0  0
  -89.8813   25.1260    1.1131 C   0  0  0  0  0  0  0  0  0  0  0  0
  -90.9778   24.9162    0.1572 C   0  0  0  0  0  0  0  0  0  0  0  0
  -89.6810   24.1384    0.0291 C   0  0  0  0  0  0  0  0  0  0  0  0
  7  8  1  0  0  0
  8  9  2  0  0  0
  9 10  1  0  0  0
 10 11  2  0  0  0
 11 12  1  0  0  0
 12 13  2  0  0  0
 12  1  1  0  0  0
  1  2  2  0  0  0
  2  3  1  0  0  0
  3  4  2  0  0  0
  4  5  1  0  0  0
  5  6  2  0  0  0
  5 16  1  0  0  0
 16 17  2  0  0  0
 16 18  1  0  0  0
 18 19  1  0  0  0
 19 20  1  0  0  0
 20 21  1  0  0  0
 21 22  1  0  0  0
 22 23  1  0  0  0
 21 24  1  0  0  0
 24 25  1  0  0  0
 25 26  1  0  0  0
 13  8  1  0  0  0
  6  1  1  0  0  0
 23 18  1  0  0  0
 26 24  1  0  0  0
  7 14  1  0  0  0
  7 15  1  0  0  0
M  END
> <minimizedAffinity>
-8.60177

> <CNNscore>
0.6004897356

> <CNNaffinity>
6.2987504005

> <CNN_VS>
3.7823350430

> <CNNaffinity_variance>
0.1373111457

$$$$
[H]c1nc(-c2c([H])c([H])c([H])c(C(=O)N3C([H])([H])C([H])([H])N(C4([H])C([H])([H])C4([H])[H])C([H])([H])C3([H])[H])c2[H])c([H])c(N([H])[H])c1[H]


 26 29  0  0  0  0  0  0  0  0999 V2000
  -84.6582   31.1664    0.3244 C   0  0  0  0  0  0  0  0  0  0  0  0
  -83.5503   31.9692    0.1664 C   0  0  0  0  0  0  0  0  0  0  0  0
  -83.6347   33.1499   -0.5140 C   0  0  0  0  0  0  0  0  0  0  0  0
  -84.8875   33.5259   -1.0516 C   0  0  0  0  0  0  0  0  0  0  0  0
  -86.0158   32.7675   -0.9237 C   0  0  0  0  0  0  0  0  0  0  0  0
  -85.8618   31.5616   -0.2108 C   0  0  0  0  0  0  0  0  0  0  0  0
  -86.2083   26.7617    1.9870 N   0  0  0  0  0  0  0  0  0  0  0  0
  -85.2091   27.7702    1.8865 C   0  0  0  0  0  0  0  0  0  0  0  0
  -83.9943   27.6037    2.5012 C   0  0  0  0  0  0  0  0  0  0  0  0
  -83.0354   28.5949    2.3906 C   0  0  0  0  0  0  0  0  0  0  0  0
  -83.3202   29.6832    1.6892 N   0  0  0  0  0  0  0  0  0  0  0  0
  -84.4798   29.9194    1.0615 C   0  0  0  0  0  0  0  0  0  0  0  0
  -85.4437   28.9356    1.1660 C   0  0  0  0  0  0  0  0  0  0  0  0
  -87.1831   27.0470    2.1287 H   0  0  0  0  0  0  0  0  0  0  0  0
  -85.9465   25.7719    1.9183 H   0  0  0  0  0  0  0  0  0  0  0  0
  -87.3035   33.0900   -1.4497 C   0  0  0  0  0  0  0  0  0  0  0  0
  -88.3122   32.7771   -0.6376 O   0  0  0  0  0  0  0  0  0  0  0  0
  -87.7511   33.6595   -2.6216 N   0  0  0  0  0  0  0  0  0  0  0  0
  -86.9899   34.1173   -3.7196 C   0  0  0  0  0  0  0  0  0  0  0  0
  -87.8484   34.5830   -4.8890 C   0  0  0  0  0  0  0  0  0  0  0  0
  -88.8173   35.5592   -4.4818 N   0  0  0  0  0  0  0  0  0  0  0  0
  -89.4335   35.2522   -3.2165 C   0  0  0  0  0  0  0  0  0  0  0  0
  -89.2167   33.8304   -2.7945 C   0  0  0  0  0  0  0  0  0  0  0  0
  -89.7364   35.9027   -5.5114 C   0  0  0  0  0  0  0  0  0  0  0  0
  -89.3398   35.9842   -6.9242 C   0  0  0  0  0  0  0  0  0  0  0  0
  -90.3010   34.9090   -6.4518 C   0  0  0  0  0  0  0  0  0  0  0  0
  7  8  1  0  0  0
  8  9  2  0  0  0
  9 10  1  0  0  0
 10 11  2  0  0  0
 11 12  1  0  0  0
 12 13  2  0  0  0
 12  1  1  0  0  0
  1  2  2  0  0  0
  2  3  1  0  0  0
  3  4  2  0  0  0
  4  5  1  0  0  0
  5  6  2  0  0  0
  5 16  1  0  0  0
 16 17  2  0  0  0
 16 18  1  0  0  0
 18 19  1  0  0  0
 19 20  1  0  0  0
 20 21  1  0  0  0
 21 22  1  0  0  0
 22 23  1  0  0  0
 21 24  1  0  0  0
 24 25  1  0  0  0
 25 26  1  0  0  0
 13  8  1  0  0  0
  6  1  1  0  0  0
 23 18  1  0  0  0
 26 24  1  0  0  0
  7 14  1  0  0  0
  7 15  1  0  0  0
M  END
> <minimizedAffinity>
-8.71889

> <CNNscore>
0.5000782609

> <CNNaffinity>
5.8065271378

> <CNN_VS>
2.9037179947

> <CNNaffinity_variance>
0.0900402069

$$$$
[H]c1nc(-c2c([H])c([H])c([H])c(C(=O)N3C([H])([H])C([H])([H])N(C4([H])C([H])([H])C4([H])[H])C([H])([H])C3([H])[H])c2[H])c([H])c(N([H])[H])c1[H]


 26 29  0  0  0  0  0  0  0  0999 V2000
  -84.3340   31.0580    0.4570 C   0  0  0  0  0  0  0  0  0  0  0  0
  -83.1920   31.8243    0.3824 C   0  0  0  0  0  0  0  0  0  0  0  0
  -83.1953   33.0202   -0.2762 C   0  0  0  0  0  0  0  0  0  0  0  0
  -84.4002   33.4505   -0.8786 C   0  0  0  0  0  0  0  0  0  0  0  0
  -85.5593   32.7299   -0.8343 C   0  0  0  0  0  0  0  0  0  0  0  0
  -85.4892   31.5056   -0.1398 C   0  0  0  0  0  0  0  0  0  0  0  0
  -86.1752   26.7340    2.0323 N   0  0  0  0  0  0  0  0  0  0  0  0
  -85.1141   27.6796    1.9590 C   0  0  0  0  0  0  0  0  0  0  0  0
  -83.9195   27.4282    2.5844 C   0  0  0  0  0  0  0  0  0  0  0  0
  -82.8994   28.3592    2.5001 C   0  0  0  0  0  0  0  0  0  0  0  0
  -83.1075   29.4736    1.8129 N   0  0  0  0  0  0  0  0  0  0  0  0
  -84.2424   29.7912    1.1762 C   0  0  0  0  0  0  0  0  0  0  0  0
  -85.2670   28.8681    1.2544 C   0  0  0  0  0  0  0  0  0  0  0  0
  -87.1320   27.0774    2.1677 H   0  0  0  0  0  0  0  0  0  0  0  0
  -85.9748   25.7309    1.9508 H   0  0  0  0  0  0  0  0  0  0  0  0
  -86.8014   33.1077   -1.4285 C   0  0  0  0  0  0  0  0  0  0  0  0
  -86.7713   34.2939   -2.0343 O   0  0  0  0  0  0  0  0  0  0  0  0
  -88.0437   32.5195   -1.5220 N   0  0  0  0  0  0  0  0  0  0  0  0
  -88.4638   31.2732   -1.0075 C   0  0  0  0  0  0  0  0  0  0  0  0
  -89.9507   31.0124   -1.2134 C   0  0  0  0  0  0  0  0  0  0  0  0
  -90.3322   31.1655   -2.5877 N   0  0  0  0  0  0  0  0  0  0  0  0
  -89.7061   32.2943   -3.2270 C   0  0  0  0  0  0  0  0  0  0  0  0
  -89.1086   33.2589   -2.2476 C   0  0  0  0  0  0  0  0  0  0  0  0
  -91.7368   31.0818   -2.7940 C   0  0  0  0  0  0  0  0  0  0  0  0
  -92.3992   31.6962   -3.9532 C   0  0  0  0  0  0  0  0  0  0  0  0
  -92.3515   30.1871   -3.8000 C   0  0  0  0  0  0  0  0  0  0  0  0
  7  8  1  0  0  0
  8  9  2  0  0  0
  9 10  1  0  0  0
 10 11  2  0  0  0
 11 12  1  0  0  0
 12 13  2  0  0  0
 12  1  1  0  0  0
  1  2  2  0  0  0
  2  3  1  0  0  0
  3  4  2  0  0  0
  4  5  1  0  0  0
  5  6  2  0  0  0
  5 16  1  0  0  0
 16 17  2  0  0  0
 16 18  1  0  0  0
 18 19  1  0  0  0
 19 20  1  0  0  0
 20 21  1  0  0  0
 21 22  1  0  0  0
 22 23  1  0  0  0
 21 24  1  0  0  0
 24 25  1  0  0  0
 25 26  1  0  0  0
 13  8  1  0  0  0
  6  1  1  0  0  0
 23 18  1  0  0  0
 26 24  1  0  0  0
  7 14  1  0  0  0
  7 15  1  0  0  0
M  END
> <minimizedAffinity>
-8.50846

> <CNNscore>
0.3576242626

> <CNNaffinity>
5.8490037918

> <CNN_VS>
2.0917456150

> <CNNaffinity_variance>
0.1483987570

$$$$
[H]c1nc(-c2c([H])c([H])c([H])c(C(=O)N3C([H])([H])C([H])([H])N(C4([H])C([H])([H])C4([H])[H])C([H])([H])C3([H])[H])c2[H])c([H])c(N([H])[H])c1[H]


 26 29  0  0  0  0  0  0  0  0999 V2000
  -85.5733   31.0868    0.1742 C   0  0  0  0  0  0  0  0  0  0  0  0
  -84.4419   31.8672    0.2619 C   0  0  0  0  0  0  0  0  0  0  0  0
  -84.4032   33.1077   -0.3072 C   0  0  0  0  0  0  0  0  0  0  0  0
  -85.5536   33.5690   -0.9880 C   0  0  0  0  0  0  0  0  0  0  0  0
  -86.7000   32.8362   -1.1042 C   0  0  0  0  0  0  0  0  0  0  0  0
  -86.6750   31.5656   -0.4951 C   0  0  0  0  0  0  0  0  0  0  0  0
  -83.3817   27.5698    2.8938 N   0  0  0  0  0  0  0  0  0  0  0  0
  -84.4841   28.0405    2.1265 C   0  0  0  0  0  0  0  0  0  0  0  0
  -85.5887   27.2478    1.9446 C   0  0  0  0  0  0  0  0  0  0  0  0
  -86.6508   27.7239    1.1967 C   0  0  0  0  0  0  0  0  0  0  0  0
  -86.5698   28.9398    0.6748 N   0  0  0  0  0  0  0  0  0  0  0  0
  -85.5285   29.7722    0.8067 C   0  0  0  0  0  0  0  0  0  0  0  0
  -84.4629   29.3060    1.5518 C   0  0  0  0  0  0  0  0  0  0  0  0
  -82.4314   27.7658    2.5617 H   0  0  0  0  0  0  0  0  0  0  0  0
  -83.5466   27.0451    3.7601 H   0  0  0  0  0  0  0  0  0  0  0  0
  -87.8874   33.2443   -1.7841 C   0  0  0  0  0  0  0  0  0  0  0  0
  -89.0125   32.9031   -1.1576 O   0  0  0  0  0  0  0  0  0  0  0  0
  -88.1426   33.9206   -2.9569 N   0  0  0  0  0  0  0  0  0  0  0  0
  -87.2164   34.4377   -3.8892 C   0  0  0  0  0  0  0  0  0  0  0  0
  -87.8806   35.0247   -5.1285 C   0  0  0  0  0  0  0  0  0  0  0  0
  -88.8768   35.9986   -4.7870 N   0  0  0  0  0  0  0  0  0  0  0  0
  -89.6812   35.6134   -3.6558 C   0  0  0  0  0  0  0  0  0  0  0  0
  -89.5619   34.1558   -3.3275 C   0  0  0  0  0  0  0  0  0  0  0  0
  -89.6244   36.4548   -5.9075 C   0  0  0  0  0  0  0  0  0  0  0  0
  -89.1033   36.3885   -7.2801 C   0  0  0  0  0  0  0  0  0  0  0  0
  -90.2880   35.5376   -6.8609 C   0  0  0  0  0  0  0  0  0  0  0  0
  7  8  1  0  0  0
  8  9  2  0  0  0
  9 10  1  0  0  0
 10 11  2  0  0  0
 11 12  1  0  0  0
 12 13  2  0  0  0
 12  1  1  0  0  0
  1  2  2  0  0  0
  2  3  1  0  0  0
  3  4  2  0  0  0
  4  5  1  0  0  0
  5  6  2  0  0  0
  5 16  1  0  0  0
 16 17  2  0  0  0
 16 18  1  0  0  0
 18 19  1  0  0  0
 19 20  1  0  0  0
 20 21  1  0  0  0
 21 22  1  0  0  0
 22 23  1  0  0  0
 21 24  1  0  0  0
 24 25  1  0  0  0
 25 26  1  0  0  0
 13  8  1  0  0  0
  6  1  1  0  0  0
 23 18  1  0  0  0
 26 24  1  0  0  0
  7 14  1  0  0  0
  7 15  1  0  0  0
M  END
> <minimizedAffinity>
-8.13143

> <CNNscore>
0.3522680700

> <CNNaffinity>
5.6302709579

> <CNN_VS>
1.9833647013

> <CNNaffinity_variance>
0.0436502770

$$$$
[H]c1nc(-c2c([H])c([H])c([H])c(C(=O)N3C([H])([H])C([H])([H])N(C4([H])C([H])([H])C4([H])[H])C([H])([H])C3([H])[H])c2[H])c([H])c(N([H])[H])c1[H]


 26 29  0  0  0  0  0  0  0  0999 V2000
  -86.1838   31.4797   -0.0814 C   0  0  0  0  0  0  0  0  0  0  0  0
  -85.9877   32.7803   -0.4900 C   0  0  0  0  0  0  0  0  0  0  0  0
  -86.9858   33.4755   -1.1101 C   0  0  0  0  0  0  0  0  0  0  0  0
  -88.2240   32.8259   -1.3214 C   0  0  0  0  0  0  0  0  0  0  0  0
  -88.4707   31.5392   -0.9362 C   0  0  0  0  0  0  0  0  0  0  0  0
  -87.4002   30.8775   -0.3020 C   0  0  0  0  0  0  0  0  0  0  0  0
  -84.1698   27.7786    2.5290 N   0  0  0  0  0  0  0  0  0  0  0  0
  -84.0559   29.0195    1.8414 C   0  0  0  0  0  0  0  0  0  0  0  0
  -82.8438   29.6565    1.7606 C   0  0  0  0  0  0  0  0  0  0  0  0
  -82.7531   30.8613    1.0865 C   0  0  0  0  0  0  0  0  0  0  0  0
  -83.8468   31.3678    0.5346 N   0  0  0  0  0  0  0  0  0  0  0  0
  -85.0634   30.8081    0.5697 C   0  0  0  0  0  0  0  0  0  0  0  0
  -85.1643   29.6049    1.2406 C   0  0  0  0  0  0  0  0  0  0  0  0
  -84.9905   27.6185    3.1229 H   0  0  0  0  0  0  0  0  0  0  0  0
  -83.4387   27.0660    2.4256 H   0  0  0  0  0  0  0  0  0  0  0  0
  -89.6945   30.8293   -1.1288 C   0  0  0  0  0  0  0  0  0  0  0  0
  -90.1658   30.2562   -0.0224 O   0  0  0  0  0  0  0  0  0  0  0  0
  -90.5138   30.5967   -2.2117 N   0  0  0  0  0  0  0  0  0  0  0  0
  -90.3496   31.0342   -3.5443 C   0  0  0  0  0  0  0  0  0  0  0  0
  -91.4075   30.4791   -4.4900 C   0  0  0  0  0  0  0  0  0  0  0  0
  -92.7354   30.7400   -4.0145 N   0  0  0  0  0  0  0  0  0  0  0  0
  -92.8748   30.5540   -2.5928 C   0  0  0  0  0  0  0  0  0  0  0  0
  -91.7376   29.7831   -1.9936 C   0  0  0  0  0  0  0  0  0  0  0  0
  -93.7450   30.1045   -4.7888 C   0  0  0  0  0  0  0  0  0  0  0  0
  -94.0413   30.5017   -6.1724 C   0  0  0  0  0  0  0  0  0  0  0  0
  -93.4434   29.1399   -5.8700 C   0  0  0  0  0  0  0  0  0  0  0  0
  7  8  1  0  0  0
  8  9  2  0  0  0
  9 10  1  0  0  0
 10 11  2  0  0  0
 11 12  1  0  0  0
 12 13  2  0  0  0
 12  1  1  0  0  0
  1  2  2  0  0  0
  2  3  1  0  0  0
  3  4  2  0  0  0
  4  5  1  0  0  0
  5  6  2  0  0  0
  5 16  1  0  0  0
 16 17  2  0  0  0
 16 18  1  0  0  0
 18 19  1  0  0  0
 19 20  1  0  0  0
 20 21  1  0  0  0
 21 22  1  0  0  0
 22 23  1  0  0  0
 21 24  1  0  0  0
 24 25  1  0  0  0
 25 26  1  0  0  0
 13  8  1  0  0  0
  6  1  1  0  0  0
 23 18  1  0  0  0
 26 24  1  0  0  0
  7 14  1  0  0  0
  7 15  1  0  0  0
M  END
> <minimizedAffinity>
-7.98707

> <CNNscore>
0.3419423699

> <CNNaffinity>
5.6357564926

> <CNN_VS>
1.9271038771

> <CNNaffinity_variance>
0.0787018389

$$$$
[H]c1nc(-c2c([H])c([H])c([H])c(C(=O)N3C([H])([H])C([H])([H])N(C4([H])C([H])([H])C4([H])[H])C([H])([H])C3([H])[H])c2[H])c([H])c(N([H])[H])c1[H]


 26 29  0  0  0  0  0  0  0  0999 V2000
  -86.9285   31.5884   -0.5665 C   0  0  0  0  0  0  0  0  0  0  0  0
  -87.2980   32.9051   -0.7295 C   0  0  0  0  0  0  0  0  0  0  0  0
  -88.4412   33.2317   -1.4007 C   0  0  0  0  0  0  0  0  0  0  0  0
  -89.2343   32.1840   -1.9232 C   0  0  0  0  0  0  0  0  0  0  0  0
  -88.9139   30.8633   -1.7898 C   0  0  0  0  0  0  0  0  0  0  0  0
  -87.7225   30.5936   -1.0870 C   0  0  0  0  0  0  0  0  0  0  0  0
  -82.1204   32.3419    0.3732 N   0  0  0  0  0  0  0  0  0  0  0  0
  -83.3480   31.6724    0.6382 C   0  0  0  0  0  0  0  0  0  0  0  0
  -83.4178   30.7203    1.6232 C   0  0  0  0  0  0  0  0  0  0  0  0
  -84.6208   30.0818    1.8668 C   0  0  0  0  0  0  0  0  0  0  0  0
  -85.6774   30.4108    1.1369 N   0  0  0  0  0  0  0  0  0  0  0  0
  -85.6898   31.3273    0.1600 C   0  0  0  0  0  0  0  0  0  0  0  0
  -84.4934   31.9705   -0.0909 C   0  0  0  0  0  0  0  0  0  0  0  0
  -81.8551   32.5157   -0.6021 H   0  0  0  0  0  0  0  0  0  0  0  0
  -81.5203   32.6394    1.1506 H   0  0  0  0  0  0  0  0  0  0  0  0
  -89.6690   29.7645   -2.3009 C   0  0  0  0  0  0  0  0  0  0  0  0
  -89.8193   29.7821   -3.6245 O   0  0  0  0  0  0  0  0  0  0  0  0
  -90.2875   28.6725   -1.7326 N   0  0  0  0  0  0  0  0  0  0  0  0
  -90.3502   28.3130   -0.3683 C   0  0  0  0  0  0  0  0  0  0  0  0
  -91.2256   27.0926   -0.1118 C   0  0  0  0  0  0  0  0  0  0  0  0
  -90.8377   25.9788   -0.9281 N   0  0  0  0  0  0  0  0  0  0  0  0
  -90.5078   26.3543   -2.2791 C   0  0  0  0  0  0  0  0  0  0  0  0
  -90.9931   27.7269   -2.6354 C   0  0  0  0  0  0  0  0  0  0  0  0
  -91.7263   24.8728   -0.8293 C   0  0  0  0  0  0  0  0  0  0  0  0
  -93.1770   25.0104   -1.0202 C   0  0  0  0  0  0  0  0  0  0  0  0
  -92.3382   24.2230   -2.0099 C   0  0  0  0  0  0  0  0  0  0  0  0
  7  8  1  0  0  0
  8  9  2  0  0  0
  9 10  1  0  0  0
 10 11  2  0  0  0
 11 12  1  0  0  0
 12 13  2  0  0  0
 12  1  1  0  0  0
  1  2  2  0  0  0
  2  3  1  0  0  0
  3  4  2  0  0  0
  4  5  1  0  0  0
  5  6  2  0  0  0
  5 16  1  0  0  0
 16 17  2  0  0  0
 16 18  1  0  0  0
 18 19  1  0  0  0
 19 20  1  0  0  0
 20 21  1  0  0  0
 21 22  1  0  0  0
 22 23  1  0  0  0
 21 24  1  0  0  0
 24 25  1  0  0  0
 25 26  1  0  0  0
 13  8  1  0  0  0
  6  1  1  0  0  0
 23 18  1  0  0  0
 26 24  1  0  0  0
  7 14  1  0  0  0
  7 15  1  0  0  0
M  END
> <minimizedAffinity>
-7.71665

> <CNNscore>
0.3394989669

> <CNNaffinity>
5.7766475677

> <CNN_VS>
1.9611659050

> <CNNaffinity_variance>
0.0616559610

$$$$
[H]c1nc(-c2c([H])c([H])c([H])c(C(=O)N3C([H])([H])C([H])([H])N(C4([H])C([H])([H])C4([H])[H])C([H])([H])C3([H])[H])c2[H])c([H])c(N([H])[H])c1[H]


 26 29  0  0  0  0  0  0  0  0999 V2000
  -84.5953   29.6903    1.1087 C   0  0  0  0  0  0  0  0  0  0  0  0
  -83.5521   29.2458    1.8904 C   0  0  0  0  0  0  0  0  0  0  0  0
  -83.6242   28.0436    2.5335 C   0  0  0  0  0  0  0  0  0  0  0  0
  -84.7964   27.2683    2.3760 C   0  0  0  0  0  0  0  0  0  0  0  0
  -85.8585   27.6620    1.6134 C   0  0  0  0  0  0  0  0  0  0  0  0
  -85.7211   28.9117    0.9765 C   0  0  0  0  0  0  0  0  0  0  0  0
  -86.3578   33.7691   -1.0878 N   0  0  0  0  0  0  0  0  0  0  0  0
  -85.2685   32.9849   -0.6148 C   0  0  0  0  0  0  0  0  0  0  0  0
  -83.9803   33.4348   -0.7550 C   0  0  0  0  0  0  0  0  0  0  0  0
  -82.9349   32.6585   -0.2872 C   0  0  0  0  0  0  0  0  0  0  0  0
  -83.2104   31.4956    0.2866 N   0  0  0  0  0  0  0  0  0  0  0  0
  -84.4380   30.9883    0.4602 C   0  0  0  0  0  0  0  0  0  0  0  0
  -85.4885   31.7560   -0.0036 C   0  0  0  0  0  0  0  0  0  0  0  0
  -87.1335   33.2972   -1.5647 H   0  0  0  0  0  0  0  0  0  0  0  0
  -86.3559   34.7859   -0.9495 H   0  0  0  0  0  0  0  0  0  0  0  0
  -87.0684   26.9281    1.4232 C   0  0  0  0  0  0  0  0  0  0  0  0
  -87.4018   26.1593    2.4588 O   0  0  0  0  0  0  0  0  0  0  0  0
  -87.9857   26.8300    0.4000 N   0  0  0  0  0  0  0  0  0  0  0  0
  -87.9759   27.4853   -0.8510 C   0  0  0  0  0  0  0  0  0  0  0  0
  -89.1042   27.0345   -1.7704 C   0  0  0  0  0  0  0  0  0  0  0  0
  -90.3848   27.1437   -1.1336 N   0  0  0  0  0  0  0  0  0  0  0  0
  -90.3701   26.7232    0.2441 C   0  0  0  0  0  0  0  0  0  0  0  0
  -89.1495   25.9275    0.5956 C   0  0  0  0  0  0  0  0  0  0  0  0
  -91.4444   26.5886   -1.9028 C   0  0  0  0  0  0  0  0  0  0  0  0
  -91.3408   26.3893   -3.3552 C   0  0  0  0  0  0  0  0  0  0  0  0
  -91.4262   25.2004   -2.4158 C   0  0  0  0  0  0  0  0  0  0  0  0
  7  8  1  0  0  0
  8  9  2  0  0  0
  9 10  1  0  0  0
 10 11  2  0  0  0
 11 12  1  0  0  0
 12 13  2  0  0  0
 12  1  1  0  0  0
  1  2  2  0  0  0
  2  3  1  0  0  0
  3  4  2  0  0  0
  4  5  1  0  0  0
  5  6  2  0  0  0
  5 16  1  0  0  0
 16 17  2  0  0  0
 16 18  1  0  0  0
 18 19  1  0  0  0
 19 20  1  0  0  0
 20 21  1  0  0  0
 21 22  1  0  0  0
 22 23  1  0  0  0
 21 24  1  0  0  0
 24 25  1  0  0  0
 25 26  1  0  0  0
 13  8  1  0  0  0
  6  1  1  0  0  0
 23 18  1  0  0  0
 26 24  1  0  0  0
  7 14  1  0  0  0
  7 15  1  0  0  0
M  END
> <minimizedAffinity>
-8.76054

> <CNNscore>
0.3296272159

> <CNNaffinity>
5.9061903954

> <CNN_VS>
1.9468411207

> <CNNaffinity_variance>
0.1484604478

$$$$
[H]c1nc(-c2c([H])c([H])c([H])c(C(=O)N3C([H])([H])C([H])([H])N(C4([H])C([H])([H])C4([H])[H])C([H])([H])C3([H])[H])c2[H])c([H])c(N([H])[H])c1[H]


 26 29  0  0  0  0  0  0  0  0999 V2000
  -86.7600   30.6418    0.0896 C   0  0  0  0  0  0  0  0  0  0  0  0
  -87.1688   31.8406   -0.4514 C   0  0  0  0  0  0  0  0  0  0  0  0
  -88.4447   32.0007   -0.9103 C   0  0  0  0  0  0  0  0  0  0  0  0
  -89.3337   30.9050   -0.8156 C   0  0  0  0  0  0  0  0  0  0  0  0
  -88.9797   29.6961   -0.2885 C   0  0  0  0  0  0  0  0  0  0  0  0
  -87.6498   29.5961    0.1670 C   0  0  0  0  0  0  0  0  0  0  0  0
  -82.1084   32.3176    0.4395 N   0  0  0  0  0  0  0  0  0  0  0  0
  -83.1047   31.3461    0.7380 C   0  0  0  0  0  0  0  0  0  0  0  0
  -82.7941   30.2489    1.5003 C   0  0  0  0  0  0  0  0  0  0  0  0
  -83.7769   29.3164    1.7809 C   0  0  0  0  0  0  0  0  0  0  0  0
  -84.9976   29.5117    1.3021 N   0  0  0  0  0  0  0  0  0  0  0  0
  -85.3785   30.5544    0.5523 C   0  0  0  0  0  0  0  0  0  0  0  0
  -84.4043   31.4911    0.2666 C   0  0  0  0  0  0  0  0  0  0  0  0
  -82.0746   32.7135   -0.5060 H   0  0  0  0  0  0  0  0  0  0  0  0
  -81.4419   32.6079    1.1638 H   0  0  0  0  0  0  0  0  0  0  0  0
  -89.8285   28.5537   -0.1737 C   0  0  0  0  0  0  0  0  0  0  0  0
  -90.2332   28.3047    1.0709 O   0  0  0  0  0  0  0  0  0  0  0  0
  -90.3341   27.6348   -1.0671 N   0  0  0  0  0  0  0  0  0  0  0  0
  -90.1299   27.5660   -2.4628 C   0  0  0  0  0  0  0  0  0  0  0  0
  -90.7632   26.3351   -3.0992 C   0  0  0  0  0  0  0  0  0  0  0  0
  -92.1544   26.2217   -2.7688 N   0  0  0  0  0  0  0  0  0  0  0  0
  -92.4383   26.5455   -1.3941 C   0  0  0  0  0  0  0  0  0  0  0  0
  -91.2102   26.5594   -0.5350 C   0  0  0  0  0  0  0  0  0  0  0  0
  -92.7414   25.0060   -3.2161 C   0  0  0  0  0  0  0  0  0  0  0  0
  -94.1738   24.7189   -3.0558 C   0  0  0  0  0  0  0  0  0  0  0  0
  -93.5742   24.9145   -4.4362 C   0  0  0  0  0  0  0  0  0  0  0  0
  7  8  1  0  0  0
  8  9  2  0  0  0
  9 10  1  0  0  0
 10 11  2  0  0  0
 11 12  1  0  0  0
 12 13  2  0  0  0
 12  1  1  0  0  0
  1  2  2  0  0  0
  2  3  1  0  0  0
  3  4  2  0  0  0
  4  5  1  0  0  0
  5  6  2  0  0  0
  5 16  1  0  0  0
 16 17  2  0  0  0
 16 18  1  0  0  0
 18 19  1  0  0  0
 19 20  1  0  0  0
 20 21  1  0  0  0
 21 22  1  0  0  0
 22 23  1  0  0  0
 21 24  1  0  0  0
 24 25  1  0  0  0
 25 26  1  0  0  0
 13  8  1  0  0  0
  6  1  1  0  0  0
 23 18  1  0  0  0
 26 24  1  0  0  0
  7 14  1  0  0  0
  7 15  1  0  0  0
M  END
> <minimizedAffinity>
-7.85332

> <CNNscore>
0.3279669583

> <CNNaffinity>
5.6589398384

> <CNN_VS>
1.8559452295

> <CNNaffinity_variance>
0.0656349957

$$$$
[H]c1nc(-c2c([H])c([H])c([H])c(C(=O)N3C([H])([H])C([H])([H])N(C4([H])C([H])([H])C4([H])[H])C([H])([H])C3([H])[H])c2[H])c([H])c(N([H])[H])c1[H]


 26 29  0  0  0  0  0  0  0  0999 V2000
  -86.2168   29.2448    1.1538 C   0  0  0  0  0  0  0  0  0  0  0  0
  -85.3511   29.3371    2.2211 C   0  0  0  0  0  0  0  0  0  0  0  0
  -84.5959   30.4582    2.4127 C   0  0  0  0  0  0  0  0  0  0  0  0
  -84.7256   31.5202    1.4879 C   0  0  0  0  0  0  0  0  0  0  0  0
  -85.5682   31.4800    0.4140 C   0  0  0  0  0  0  0  0  0  0  0  0
  -86.3192   30.2958    0.2730 C   0  0  0  0  0  0  0  0  0  0  0  0
  -88.8240   25.4488    2.9873 N   0  0  0  0  0  0  0  0  0  0  0  0
  -88.2557   26.1489    1.8862 C   0  0  0  0  0  0  0  0  0  0  0  0
  -88.4119   25.6730    0.6093 C   0  0  0  0  0  0  0  0  0  0  0  0
  -87.8533   26.3688   -0.4481 C   0  0  0  0  0  0  0  0  0  0  0  0
  -87.1795   27.4820   -0.1949 N   0  0  0  0  0  0  0  0  0  0  0  0
  -86.9834   28.0099    1.0206 C   0  0  0  0  0  0  0  0  0  0  0  0
  -87.5373   27.3225    2.0830 C   0  0  0  0  0  0  0  0  0  0  0  0
  -88.2761   25.3601    3.8498 H   0  0  0  0  0  0  0  0  0  0  0  0
  -89.7637   25.0443    2.9080 H   0  0  0  0  0  0  0  0  0  0  0  0
  -85.7362   32.5147   -0.5555 C   0  0  0  0  0  0  0  0  0  0  0  0
  -84.6098   33.1581   -0.8590 O   0  0  0  0  0  0  0  0  0  0  0  0
  -86.8111   33.0091   -1.2612 N   0  0  0  0  0  0  0  0  0  0  0  0
  -88.1591   32.5910   -1.2109 C   0  0  0  0  0  0  0  0  0  0  0  0
  -89.0851   33.4572   -2.0557 C   0  0  0  0  0  0  0  0  0  0  0  0
  -88.6227   33.5673   -3.4090 N   0  0  0  0  0  0  0  0  0  0  0  0
  -87.1953   33.7342   -3.5080 C   0  0  0  0  0  0  0  0  0  0  0  0
  -86.5648   34.1284   -2.2066 C   0  0  0  0  0  0  0  0  0  0  0  0
  -89.3744   34.4907   -4.1868 C   0  0  0  0  0  0  0  0  0  0  0  0
  -89.4022   35.9296   -3.8891 C   0  0  0  0  0  0  0  0  0  0  0  0
  -88.7540   35.4157   -5.1614 C   0  0  0  0  0  0  0  0  0  0  0  0
  7  8  1  0  0  0
  8  9  2  0  0  0
  9 10  1  0  0  0
 10 11  2  0  0  0
 11 12  1  0  0  0
 12 13  2  0  0  0
 12  1  1  0  0  0
  1  2  2  0  0  0
  2  3  1  0  0  0
  3  4  2  0  0  0
  4  5  1  0  0  0
  5  6  2  0  0  0
  5 16  1  0  0  0
 16 17  2  0  0  0
 16 18  1  0  0  0
 18 19  1  0  0  0
 19 20  1  0  0  0
 20 21  1  0  0  0
 21 22  1  0  0  0
 22 23  1  0  0  0
 21 24  1  0  0  0
 24 25  1  0  0  0
 25 26  1  0  0  0
 13  8  1  0  0  0
  6  1  1  0  0  0
 23 18  1  0  0  0
 26 24  1  0  0  0
  7 14  1  0  0  0
  7 15  1  0  0  0
M  END
> <minimizedAffinity>
-8.28562

> <CNNscore>
0.3005514145

> <CNNaffinity>
6.0299477577

> <CNN_VS>
1.8123093843

> <CNNaffinity_variance>
0.1473344117

$$$$
[H]c1c([H])c([H])c(OC([H])([H])C([H])([H])N([H])C(=O)[C@@]([H])(N([H])C(=O)N([H])c2c([H])c([H])c([H])c(-c3c([H])c([H])c([H])c([H])c3[H])c2[H])C([H])([H])C([H])(C([H])([H])[H])C([H])([H])[H])c([H])c1[H]


 36 38  0  0  0  0  0  0  0  0999 V2000
  -89.7381   26.2413    2.0297 C   0  0  0  0  0  0  0  0  0  0  0  0
  -88.2839   25.9289    2.0063 N   0  0  0  0  0  0  0  0  0  0  0  0
  -87.3295   27.0169    1.9928 C   0  0  0  0  0  0  0  0  0  0  0  0
  -87.8029   28.1675    1.9990 O   0  0  0  0  0  0  0  0  0  0  0  0
  -85.9581   26.7343    1.9741 N   0  0  0  0  0  0  0  0  0  0  0  0
  -87.9225   24.9695    1.9990 H   0  0  0  0  0  0  0  0  0  0  0  0
  -85.6616   25.7043    1.9788 H   0  0  0  0  0  0  0  0  0  0  0  0
  -84.9237   27.6592    1.9454 C   0  0  0  0  0  0  0  0  0  0  0  0
  -83.6966   27.4813    2.5190 C   0  0  0  0  0  0  0  0  0  0  0  0
  -82.6959   28.4548    2.4280 C   0  0  0  0  0  0  0  0  0  0  0  0
  -82.9086   29.6318    1.7562 C   0  0  0  0  0  0  0  0  0  0  0  0
  -84.1532   29.8390    1.1615 C   0  0  0  0  0  0  0  0  0  0  0  0
  -85.1085   28.8661    1.2700 C   0  0  0  0  0  0  0  0  0  0  0  0
  -84.3870   31.0905    0.4404 C   0  0  0  0  0  0  0  0  0  0  0  0
  -85.6772   31.5008    0.2237 C   0  0  0  0  0  0  0  0  0  0  0  0
  -85.9936   32.6777   -0.4527 C   0  0  0  0  0  0  0  0  0  0  0  0
  -84.9616   33.4735   -0.9305 C   0  0  0  0  0  0  0  0  0  0  0  0
  -83.6737   33.0735   -0.7198 C   0  0  0  0  0  0  0  0  0  0  0  0
  -83.3751   31.8919   -0.0402 C   0  0  0  0  0  0  0  0  0  0  0  0
  -90.0006   26.8370    0.7254 C   0  0  0  0  0  0  0  0  0  0  0  0
  -90.9973   27.5785    0.5567 O   0  0  0  0  0  0  0  0  0  0  0  0
  -89.1445   26.5996   -0.3712 N   0  0  0  0  0  0  0  0  0  0  0  0
  -88.3137   25.9906   -0.2422 H   0  0  0  0  0  0  0  0  0  0  0  0
  -89.3686   27.1707   -1.6848 C   0  0  0  0  0  0  0  0  0  0  0  0
  -88.4930   28.3746   -1.9285 C   0  0  0  0  0  0  0  0  0  0  0  0
  -89.0741   29.5592   -1.4152 O   0  0  0  0  0  0  0  0  0  0  0  0
  -88.8654   30.7821   -2.0075 C   0  0  0  0  0  0  0  0  0  0  0  0
  -89.4383   31.9576   -1.6011 C   0  0  0  0  0  0  0  0  0  0  0  0
  -89.1452   33.1325   -2.2861 C   0  0  0  0  0  0  0  0  0  0  0  0
  -88.2976   33.1674   -3.3641 C   0  0  0  0  0  0  0  0  0  0  0  0
  -87.7191   31.9708   -3.7722 C   0  0  0  0  0  0  0  0  0  0  0  0
  -88.0106   30.8101   -3.0927 C   0  0  0  0  0  0  0  0  0  0  0  0
  -89.9002   27.0986    3.2219 C   0  0  0  0  0  0  0  0  0  0  0  0
  -90.8376   25.0954    4.1545 C   0  0  0  0  0  0  0  0  0  0  0  0
  -90.5745   26.5987    4.4266 C   0  0  0  0  0  0  0  0  0  0  0  0
  -89.8604   26.6574    5.7218 C   0  0  0  0  0  0  0  0  0  0  0  0
 34 35  1  0  0  0
 35 36  1  0  0  0
 35 33  1  0  0  0
 33  1  1  0  0  0
  1  2  1  0  0  0
  2  3  1  0  0  0
  3  4  2  0  0  0
  3  5  1  0  0  0
  5  8  1  0  0  0
  8  9  2  0  0  0
  9 10  1  0  0  0
 10 11  2  0  0  0
 11 12  1  0  0  0
 12 13  2  0  0  0
 12 14  1  0  0  0
 14 15  2  0  0  0
 15 16  1  0  0  0
 16 17  2  0  0  0
 17 18  1  0  0  0
 18 19  2  0  0  0
  1 20  1  0  0  0
 20 21  2  0  0  0
 20 22  1  0  0  0
 22 24  1  0  0  0
 24 25  1  0  0  0
 25 26  1  0  0  0
 26 27  1  0  0  0
 27 28  2  0  0  0
 28 29  1  0  0  0
 29 30  2  0  0  0
 30 31  1  0  0  0
 31 32  2  0  0  0
 13  8  1  0  0  0
 19 14  1  0  0  0
 32 27  1  0  0  0
  2  6  1  0  0  0
  5  7  1  0  0  0
 22 23  1  0  0  0
M  END
> <minimizedAffinity>
-9.86596

> <CNNscore>
0.4125317931

> <CNNaffinity>
6.6877503395

> <CNN_VS>
2.7589097023

> <CNNaffinity_variance>
0.3681398034

$$$$
[H]c1c([H])c([H])c(OC([H])([H])C([H])([H])N([H])C(=O)[C@@]([H])(N([H])C(=O)N([H])c2c([H])c([H])c([H])c(-c3c([H])c([H])c([H])c([H])c3[H])c2[H])C([H])([H])C([H])(C([H])([H])[H])C([H])([H])[H])c([H])c1[H]


 36 38  0  0  0  0  0  0  0  0999 V2000
  -88.6866   32.6366   -3.5421 C   0  0  0  0  0  0  0  0  0  0  0  0
  -89.3615   31.8310   -2.4893 N   0  0  0  0  0  0  0  0  0  0  0  0
  -88.7609   30.5857   -2.0614 C   0  0  0  0  0  0  0  0  0  0  0  0
  -87.6960   30.2651   -2.6195 O   0  0  0  0  0  0  0  0  0  0  0  0
  -89.3859   29.8210   -1.0686 N   0  0  0  0  0  0  0  0  0  0  0  0
  -90.2410   32.1195   -2.0483 H   0  0  0  0  0  0  0  0  0  0  0  0
  -90.2978   30.1977   -0.6498 H   0  0  0  0  0  0  0  0  0  0  0  0
  -88.9472   28.6053   -0.5627 C   0  0  0  0  0  0  0  0  0  0  0  0
  -88.1957   27.6950   -1.2505 C   0  0  0  0  0  0  0  0  0  0  0  0
  -87.7732   26.4980   -0.6623 C   0  0  0  0  0  0  0  0  0  0  0  0
  -88.0986   26.1898    0.6343 C   0  0  0  0  0  0  0  0  0  0  0  0
  -88.8655   27.1020    1.3590 C   0  0  0  0  0  0  0  0  0  0  0  0
  -89.2614   28.2625    0.7528 C   0  0  0  0  0  0  0  0  0  0  0  0
  -89.2142   26.7821    2.7435 C   0  0  0  0  0  0  0  0  0  0  0  0
  -89.7404   27.7663    3.5401 C   0  0  0  0  0  0  0  0  0  0  0  0
  -90.1012   27.5521    4.8693 C   0  0  0  0  0  0  0  0  0  0  0  0
  -89.9221   26.2891    5.4165 C   0  0  0  0  0  0  0  0  0  0  0  0
  -89.3988   25.3026    4.6315 C   0  0  0  0  0  0  0  0  0  0  0  0
  -89.0432   25.5348    3.3023 C   0  0  0  0  0  0  0  0  0  0  0  0
  -87.6778   33.4020   -2.8200 C   0  0  0  0  0  0  0  0  0  0  0  0
  -87.8458   34.6254   -2.6036 O   0  0  0  0  0  0  0  0  0  0  0  0
  -86.4976   32.7901   -2.3465 N   0  0  0  0  0  0  0  0  0  0  0  0
  -86.3496   31.7767   -2.5161 H   0  0  0  0  0  0  0  0  0  0  0  0
  -85.4688   33.5136   -1.6252 C   0  0  0  0  0  0  0  0  0  0  0  0
  -85.3621   33.0550   -0.1921 C   0  0  0  0  0  0  0  0  0  0  0  0
  -84.2070   32.2648    0.0218 O   0  0  0  0  0  0  0  0  0  0  0  0
  -84.2686   31.0565    0.6745 C   0  0  0  0  0  0  0  0  0  0  0  0
  -83.2410   30.4968    1.3858 C   0  0  0  0  0  0  0  0  0  0  0  0
  -83.4297   29.2646    2.0032 C   0  0  0  0  0  0  0  0  0  0  0  0
  -84.6137   28.5756    1.9308 C   0  0  0  0  0  0  0  0  0  0  0  0
  -85.6533   29.1487    1.2072 C   0  0  0  0  0  0  0  0  0  0  0  0
  -85.4640   30.3679    0.5976 C   0  0  0  0  0  0  0  0  0  0  0  0
  -89.7889   33.3838   -4.1817 C   0  0  0  0  0  0  0  0  0  0  0  0
  -91.1475   33.7518   -6.1259 C   0  0  0  0  0  0  0  0  0  0  0  0
  -89.6971   33.8155   -5.5821 C   0  0  0  0  0  0  0  0  0  0  0  0
  -89.2127   35.1824   -5.8784 C   0  0  0  0  0  0  0  0  0  0  0  0
 34 35  1  0  0  0
 35 36  1  0  0  0
 35 33  1  0  0  0
 33  1  1  0  0  0
  1  2  1  0  0  0
  2  3  1  0  0  0
  3  4  2  0  0  0
  3  5  1  0  0  0
  5  8  1  0  0  0
  8  9  2  0  0  0
  9 10  1  0  0  0
 10 11  2  0  0  0
 11 12  1  0  0  0
 12 13  2  0  0  0
 12 14  1  0  0  0
 14 15  2  0  0  0
 15 16  1  0  0  0
 16 17  2  0  0  0
 17 18  1  0  0  0
 18 19  2  0  0  0
  1 20  1  0  0  0
 20 21  2  0  0  0
 20 22  1  0  0  0
 22 24  1  0  0  0
 24 25  1  0  0  0
 25 26  1  0  0  0
 26 27  1  0  0  0
 27 28  2  0  0  0
 28 29  1  0  0  0
 29 30  2  0  0  0
 30 31  1  0  0  0
 31 32  2  0  0  0
 13  8  1  0  0  0
 19 14  1  0  0  0
 32 27  1  0  0  0
  2  6  1  0  0  0
  5  7  1  0  0  0
 22 23  1  0  0  0
M  END
> <minimizedAffinity>
-8.33952

> <CNNscore>
0.3541311324

> <CNNaffinity>
6.5179953575

> <CNN_VS>
2.3082251549

> <CNNaffinity_variance>
0.2792223990

$$$$
[H]c1c([H])c([H])c(OC([H])([H])C([H])([H])N([H])C(=O)[C@@]([H])(N([H])C(=O)N([H])c2c([H])c([H])c([H])c(-c3c([H])c([H])c([H])c([H])c3[H])c2[H])C([H])([H])C([H])(C([H])([H])[H])C([H])([H])[H])c([H])c1[H]


 36 38  0  0  0  0  0  0  0  0999 V2000
  -86.1262   30.6014   -0.2230 C   0  0  0  0  0  0  0  0  0  0  0  0
  -87.3621   31.4171   -0.3651 N   0  0  0  0  0  0  0  0  0  0  0  0
  -87.4941   32.3045   -1.5009 C   0  0  0  0  0  0  0  0  0  0  0  0
  -86.5396   32.3266   -2.2988 O   0  0  0  0  0  0  0  0  0  0  0  0
  -88.6546   33.0744   -1.6464 N   0  0  0  0  0  0  0  0  0  0  0  0
  -88.1323   31.3799    0.3106 H   0  0  0  0  0  0  0  0  0  0  0  0
  -89.4186   32.9696   -0.9020 H   0  0  0  0  0  0  0  0  0  0  0  0
  -88.9255   33.9771   -2.6652 C   0  0  0  0  0  0  0  0  0  0  0  0
  -89.8731   33.8048   -3.6342 C   0  0  0  0  0  0  0  0  0  0  0  0
  -90.1018   34.7733   -4.6175 C   0  0  0  0  0  0  0  0  0  0  0  0
  -89.3800   35.9395   -4.6477 C   0  0  0  0  0  0  0  0  0  0  0  0
  -88.4058   36.1405   -3.6698 C   0  0  0  0  0  0  0  0  0  0  0  0
  -88.2087   35.1728   -2.7235 C   0  0  0  0  0  0  0  0  0  0  0  0
  -87.6338   37.3832   -3.6932 C   0  0  0  0  0  0  0  0  0  0  0  0
  -86.6547   37.5388   -4.6403 C   0  0  0  0  0  0  0  0  0  0  0  0
  -85.8710   38.6874   -4.7371 C   0  0  0  0  0  0  0  0  0  0  0  0
  -86.0862   39.7226   -3.8377 C   0  0  0  0  0  0  0  0  0  0  0  0
  -87.0586   39.5771   -2.8909 C   0  0  0  0  0  0  0  0  0  0  0  0
  -87.8342   38.4200   -2.8087 C   0  0  0  0  0  0  0  0  0  0  0  0
  -86.5983   29.2226   -0.2509 C   0  0  0  0  0  0  0  0  0  0  0  0
  -86.2474   28.4148    0.6414 O   0  0  0  0  0  0  0  0  0  0  0  0
  -87.4585   28.7661   -1.2723 N   0  0  0  0  0  0  0  0  0  0  0  0
  -87.7591   29.4272   -2.0140 H   0  0  0  0  0  0  0  0  0  0  0  0
  -87.9507   27.4039   -1.3386 C   0  0  0  0  0  0  0  0  0  0  0  0
  -89.2737   27.2517   -0.6302 C   0  0  0  0  0  0  0  0  0  0  0  0
  -89.1562   26.4595    0.5372 O   0  0  0  0  0  0  0  0  0  0  0  0
  -89.6293   26.8904    1.7539 C   0  0  0  0  0  0  0  0  0  0  0  0
  -89.2815   26.3538    2.9647 C   0  0  0  0  0  0  0  0  0  0  0  0
  -89.8313   26.8815    4.1286 C   0  0  0  0  0  0  0  0  0  0  0  0
  -90.7177   27.9284    4.1183 C   0  0  0  0  0  0  0  0  0  0  0  0
  -91.0672   28.4690    2.8860 C   0  0  0  0  0  0  0  0  0  0  0  0
  -90.5217   27.9452    1.7363 C   0  0  0  0  0  0  0  0  0  0  0  0
  -85.5155   31.0936    1.0290 C   0  0  0  0  0  0  0  0  0  0  0  0
  -83.3177   30.3199    1.6056 C   0  0  0  0  0  0  0  0  0  0  0  0
  -84.1153   31.5343    1.0650 C   0  0  0  0  0  0  0  0  0  0  0  0
  -83.4551   31.9216   -0.2019 C   0  0  0  0  0  0  0  0  0  0  0  0
 34 35  1  0  0  0
 35 36  1  0  0  0
 35 33  1  0  0  0
 33  1  1  0  0  0
  1  2  1  0  0  0
  2  3  1  0  0  0
  3  4  2  0  0  0
  3  5  1  0  0  0
  5  8  1  0  0  0
  8  9  2  0  0  0
  9 10  1  0  0  0
 10 11  2  0  0  0
 11 12  1  0  0  0
 12 13  2  0  0  0
 12 14  1  0  0  0
 14 15  2  0  0  0
 15 16  1  0  0  0
 16 17  2  0  0  0
 17 18  1  0  0  0
 18 19  2  0  0  0
  1 20  1  0  0  0
 20 21  2  0  0  0
 20 22  1  0  0  0
 22 24  1  0  0  0
 24 25  1  0  0  0
 25 26  1  0  0  0
 26 27  1  0  0  0
 27 28  2  0  0  0
 28 29  1  0  0  0
 29 30  2  0  0  0
 30 31  1  0  0  0
 31 32  2  0  0  0
 13  8  1  0  0  0
 19 14  1  0  0  0
 32 27  1  0  0  0
  2  6  1  0  0  0
  5  7  1  0  0  0
 22 23  1  0  0  0
M  END
> <minimizedAffinity>
-7.87733

> <CNNscore>
0.3482416272

> <CNNaffinity>
6.3897309303

> <CNN_VS>
2.2251703739

> <CNNaffinity_variance>
0.1658569425

$$$$
[H]c1c([H])c([H])c(OC([H])([H])C([H])([H])N([H])C(=O)[C@@]([H])(N([H])C(=O)N([H])c2c([H])c([H])c([H])c(-c3c([H])c([H])c([H])c([H])c3[H])c2[H])C([H])([H])C([H])(C([H])([H])[H])C([H])([H])[H])c([H])c1[H]


 36 38  0  0  0  0  0  0  0  0999 V2000
  -87.0748   33.0020   -2.1398 C   0  0  0  0  0  0  0  0  0  0  0  0
  -88.2590   32.6788   -1.2995 N   0  0  0  0  0  0  0  0  0  0  0  0
  -88.6899   31.3015   -1.1888 C   0  0  0  0  0  0  0  0  0  0  0  0
  -88.0251   30.4619   -1.8222 O   0  0  0  0  0  0  0  0  0  0  0  0
  -89.8013   30.9855   -0.3979 N   0  0  0  0  0  0  0  0  0  0  0  0
  -88.7896   33.3931   -0.7902 H   0  0  0  0  0  0  0  0  0  0  0  0
  -90.2950   31.7890    0.1114 H   0  0  0  0  0  0  0  0  0  0  0  0
  -90.3447   29.7235   -0.2020 C   0  0  0  0  0  0  0  0  0  0  0  0
  -91.0448   29.0172   -1.1387 C   0  0  0  0  0  0  0  0  0  0  0  0
  -91.5439   27.7378   -0.8714 C   0  0  0  0  0  0  0  0  0  0  0  0
  -91.3490   27.1395    0.3476 C   0  0  0  0  0  0  0  0  0  0  0  0
  -90.6375   27.8392    1.3222 C   0  0  0  0  0  0  0  0  0  0  0  0
  -90.1638   29.0879    1.0269 C   0  0  0  0  0  0  0  0  0  0  0  0
  -90.4226   27.2067    2.6240 C   0  0  0  0  0  0  0  0  0  0  0  0
  -90.3693   27.9951    3.7445 C   0  0  0  0  0  0  0  0  0  0  0  0
  -90.1687   27.4795    5.0238 C   0  0  0  0  0  0  0  0  0  0  0  0
  -90.0152   26.1085    5.1767 C   0  0  0  0  0  0  0  0  0  0  0  0
  -90.0667   25.3152    4.0672 C   0  0  0  0  0  0  0  0  0  0  0  0
  -90.2685   25.8485    2.7936 C   0  0  0  0  0  0  0  0  0  0  0  0
  -86.0003   33.2232   -1.1799 C   0  0  0  0  0  0  0  0  0  0  0  0
  -86.2532   33.3097    0.0449 O   0  0  0  0  0  0  0  0  0  0  0  0
  -84.6583   33.3407   -1.6006 N   0  0  0  0  0  0  0  0  0  0  0  0
  -84.4365   33.2664   -2.6119 H   0  0  0  0  0  0  0  0  0  0  0  0
  -83.5599   33.5617   -0.6804 C   0  0  0  0  0  0  0  0  0  0  0  0
  -83.0106   32.2639   -0.1425 C   0  0  0  0  0  0  0  0  0  0  0  0
  -83.2420   32.1319    1.2480 O   0  0  0  0  0  0  0  0  0  0  0  0
  -83.6627   30.9460    1.8014 C   0  0  0  0  0  0  0  0  0  0  0  0
  -84.8538   30.7638    2.4521 C   0  0  0  0  0  0  0  0  0  0  0  0
  -85.1645   29.5102    2.9691 C   0  0  0  0  0  0  0  0  0  0  0  0
  -84.3210   28.4344    2.8555 C   0  0  0  0  0  0  0  0  0  0  0  0
  -83.1131   28.6255    2.1941 C   0  0  0  0  0  0  0  0  0  0  0  0
  -82.8084   29.8665    1.6834 C   0  0  0  0  0  0  0  0  0  0  0  0
  -87.5175   34.1530   -2.9532 C   0  0  0  0  0  0  0  0  0  0  0  0
  -87.9145   34.9837   -5.1699 C   0  0  0  0  0  0  0  0  0  0  0  0
  -88.4048   33.9662   -4.1081 C   0  0  0  0  0  0  0  0  0  0  0  0
  -88.4273   32.6510   -4.7868 C   0  0  0  0  0  0  0  0  0  0  0  0
 34 35  1  0  0  0
 35 36  1  0  0  0
 35 33  1  0  0  0
 33  1  1  0  0  0
  1  2  1  0  0  0
  2  3  1  0  0  0
  3  4  2  0  0  0
  3  5  1  0  0  0
  5  8  1  0  0  0
  8  9  2  0  0  0
  9 10  1  0  0  0
 10 11  2  0  0  0
 11 12  1  0  0  0
 12 13  2  0  0  0
 12 14  1  0  0  0
 14 15  2  0  0  0
 15 16  1  0  0  0
 16 17  2  0  0  0
 17 18  1  0  0  0
 18 19  2  0  0  0
  1 20  1  0  0  0
 20 21  2  0  0  0
 20 22  1  0  0  0
 22 24  1  0  0  0
 24 25  1  0  0  0
 25 26  1  0  0  0
 26 27  1  0  0  0
 27 28  2  0  0  0
 28 29  1  0  0  0
 29 30  2  0  0  0
 30 31  1  0  0  0
 31 32  2  0  0  0
 13  8  1  0  0  0
 19 14  1  0  0  0
 32 27  1  0  0  0
  2  6  1  0  0  0
  5  7  1  0  0  0
 22 23  1  0  0  0
M  END
> <minimizedAffinity>
-9.18129

> <CNNscore>
0.3224250078

> <CNNaffinity>
6.3662767410

> <CNN_VS>
2.0526468754

> <CNNaffinity_variance>
0.4809094965

$$$$
[H]c1c([H])c([H])c(OC([H])([H])C([H])([H])N([H])C(=O)[C@@]([H])(N([H])C(=O)N([H])c2c([H])c([H])c([H])c(-c3c([H])c([H])c([H])c([H])c3[H])c2[H])C([H])([H])C([H])(C([H])([H])[H])C([H])([H])[H])c([H])c1[H]


 36 38  0  0  0  0  0  0  0  0999 V2000
  -88.0219   34.9408   -2.9053 C   0  0  0  0  0  0  0  0  0  0  0  0
  -86.7554   34.2741   -2.4998 N   0  0  0  0  0  0  0  0  0  0  0  0
  -86.7745   33.3350   -1.3987 C   0  0  0  0  0  0  0  0  0  0  0  0
  -87.8760   33.1472   -0.8515 O   0  0  0  0  0  0  0  0  0  0  0  0
  -85.5887   32.6992   -1.0108 N   0  0  0  0  0  0  0  0  0  0  0  0
  -85.8607   34.4507   -2.9684 H   0  0  0  0  0  0  0  0  0  0  0  0
  -84.6972   32.9301   -1.5591 H   0  0  0  0  0  0  0  0  0  0  0  0
  -85.4395   31.7901    0.0273 C   0  0  0  0  0  0  0  0  0  0  0  0
  -84.6641   31.9851    1.1351 C   0  0  0  0  0  0  0  0  0  0  0  0
  -84.5821   31.0272    2.1514 C   0  0  0  0  0  0  0  0  0  0  0  0
  -85.2802   29.8487    2.0750 C   0  0  0  0  0  0  0  0  0  0  0  0
  -86.0794   29.6241    0.9541 C   0  0  0  0  0  0  0  0  0  0  0  0
  -86.1363   30.5822   -0.0205 C   0  0  0  0  0  0  0  0  0  0  0  0
  -86.8296   28.3710    0.8665 C   0  0  0  0  0  0  0  0  0  0  0  0
  -86.9870   27.7757   -0.3585 C   0  0  0  0  0  0  0  0  0  0  0  0
  -87.6853   26.5825   -0.5360 C   0  0  0  0  0  0  0  0  0  0  0  0
  -88.2487   25.9652    0.5722 C   0  0  0  0  0  0  0  0  0  0  0  0
  -88.0975   26.5502    1.7962 C   0  0  0  0  0  0  0  0  0  0  0  0
  -87.3948   27.7451    1.9556 C   0  0  0  0  0  0  0  0  0  0  0  0
  -88.6873   33.9639   -3.7584 C   0  0  0  0  0  0  0  0  0  0  0  0
  -89.7872   34.2363   -4.2947 O   0  0  0  0  0  0  0  0  0  0  0  0
  -88.1134   32.6981   -4.0038 N   0  0  0  0  0  0  0  0  0  0  0  0
  -87.2008   32.4631   -3.5685 H   0  0  0  0  0  0  0  0  0  0  0  0
  -88.7409   31.6973   -4.8443 C   0  0  0  0  0  0  0  0  0  0  0  0
  -89.6166   30.7644   -4.0453 C   0  0  0  0  0  0  0  0  0  0  0  0
  -89.0840   30.5191   -2.7566 O   0  0  0  0  0  0  0  0  0  0  0  0
  -89.7615   29.7684   -1.8254 C   0  0  0  0  0  0  0  0  0  0  0  0
  -90.4270   28.6020   -2.0931 C   0  0  0  0  0  0  0  0  0  0  0  0
  -91.0758   27.9335   -1.0599 C   0  0  0  0  0  0  0  0  0  0  0  0
  -91.0794   28.3958    0.2317 C   0  0  0  0  0  0  0  0  0  0  0  0
  -90.4022   29.5806    0.4974 C   0  0  0  0  0  0  0  0  0  0  0  0
  -89.7611   30.2397   -0.5265 C   0  0  0  0  0  0  0  0  0  0  0  0
  -87.5771   36.2054   -3.5260 C   0  0  0  0  0  0  0  0  0  0  0  0
  -87.8023   38.4798   -2.7926 C   0  0  0  0  0  0  0  0  0  0  0  0
  -88.4801   37.3592   -3.6222 C   0  0  0  0  0  0  0  0  0  0  0  0
  -88.7494   37.9470   -4.9537 C   0  0  0  0  0  0  0  0  0  0  0  0
 34 35  1  0  0  0
 35 36  1  0  0  0
 35 33  1  0  0  0
 33  1  1  0  0  0
  1  2  1  0  0  0
  2  3  1  0  0  0
  3  4  2  0  0  0
  3  5  1  0  0  0
  5  8  1  0  0  0
  8  9  2  0  0  0
  9 10  1  0  0  0
 10 11  2  0  0  0
 11 12  1  0  0  0
 12 13  2  0  0  0
 12 14  1  0  0  0
 14 15  2  0  0  0
 15 16  1  0  0  0
 16 17  2  0  0  0
 17 18  1  0  0  0
 18 19  2  0  0  0
  1 20  1  0  0  0
 20 21  2  0  0  0
 20 22  1  0  0  0
 22 24  1  0  0  0
 24 25  1  0  0  0
 25 26  1  0  0  0
 26 27  1  0  0  0
 27 28  2  0  0  0
 28 29  1  0  0  0
 29 30  2  0  0  0
 30 31  1  0  0  0
 31 32  2  0  0  0
 13  8  1  0  0  0
 19 14  1  0  0  0
 32 27  1  0  0  0
  2  6  1  0  0  0
  5  7  1  0  0  0
 22 23  1  0  0  0
M  END
> <minimizedAffinity>
-7.80980

> <CNNscore>
0.2177809477

> <CNNaffinity>
6.3004631996

> <CNN_VS>
1.3721208572

> <CNNaffinity_variance>
0.3335810006

$$$$
[H]c1c([H])c([H])c(OC([H])([H])C([H])([H])N([H])C(=O)[C@@]([H])(N([H])C(=O)N([H])c2c([H])c([H])c([H])c(-c3c([H])c([H])c([H])c([H])c3[H])c2[H])C([H])([H])C([H])(C([H])([H])[H])C([H])([H])[H])c([H])c1[H]


 36 38  0  0  0  0  0  0  0  0999 V2000
  -89.5662   33.7093   -3.3799 C   0  0  0  0  0  0  0  0  0  0  0  0
  -88.8913   33.7549   -2.0550 N   0  0  0  0  0  0  0  0  0  0  0  0
  -87.5293   33.2787   -1.9411 C   0  0  0  0  0  0  0  0  0  0  0  0
  -87.0044   32.8506   -2.9848 O   0  0  0  0  0  0  0  0  0  0  0  0
  -86.8832   33.3201   -0.6994 N   0  0  0  0  0  0  0  0  0  0  0  0
  -89.3504   34.1113   -1.2104 H   0  0  0  0  0  0  0  0  0  0  0  0
  -87.4288   33.7176    0.1331 H   0  0  0  0  0  0  0  0  0  0  0  0
  -85.5923   32.8909   -0.4244 C   0  0  0  0  0  0  0  0  0  0  0  0
  -84.4533   33.5688   -0.7556 C   0  0  0  0  0  0  0  0  0  0  0  0
  -83.1853   33.0795   -0.4238 C   0  0  0  0  0  0  0  0  0  0  0  0
  -83.0352   31.8940    0.2501 C   0  0  0  0  0  0  0  0  0  0  0  0
  -84.1822   31.1816    0.6000 C   0  0  0  0  0  0  0  0  0  0  0  0
  -85.4059   31.6893    0.2598 C   0  0  0  0  0  0  0  0  0  0  0  0
  -84.0307   29.9178    1.3216 C   0  0  0  0  0  0  0  0  0  0  0  0
  -85.1482   29.1731    1.5982 C   0  0  0  0  0  0  0  0  0  0  0  0
  -85.0985   27.9583    2.2799 C   0  0  0  0  0  0  0  0  0  0  0  0
  -83.8666   27.4762    2.7001 C   0  0  0  0  0  0  0  0  0  0  0  0
  -82.7482   28.2105    2.4296 C   0  0  0  0  0  0  0  0  0  0  0  0
  -82.8164   29.4248    1.7456 C   0  0  0  0  0  0  0  0  0  0  0  0
  -89.9371   32.3097   -3.5482 C   0  0  0  0  0  0  0  0  0  0  0  0
  -89.7158   31.7219   -4.6332 O   0  0  0  0  0  0  0  0  0  0  0  0
  -90.5464   31.5850   -2.5016 N   0  0  0  0  0  0  0  0  0  0  0  0
  -90.7306   32.0602   -1.5973 H   0  0  0  0  0  0  0  0  0  0  0  0
  -90.9320   30.1930   -2.6265 C   0  0  0  0  0  0  0  0  0  0  0  0
  -91.1562   29.5513   -1.2800 C   0  0  0  0  0  0  0  0  0  0  0  0
  -89.9598   29.0112   -0.7498 O   0  0  0  0  0  0  0  0  0  0  0  0
  -89.8805   28.5665    0.5485 C   0  0  0  0  0  0  0  0  0  0  0  0
  -88.7981   27.9291    1.0939 C   0  0  0  0  0  0  0  0  0  0  0  0
  -88.8417   27.5274    2.4251 C   0  0  0  0  0  0  0  0  0  0  0  0
  -89.9338   27.7433    3.2266 C   0  0  0  0  0  0  0  0  0  0  0  0
  -91.0298   28.3906    2.6673 C   0  0  0  0  0  0  0  0  0  0  0  0
  -90.9839   28.7872    1.3504 C   0  0  0  0  0  0  0  0  0  0  0  0
  -88.5656   34.2718   -4.3100 C   0  0  0  0  0  0  0  0  0  0  0  0
  -88.2624   36.6310   -3.9877 C   0  0  0  0  0  0  0  0  0  0  0  0
  -88.7927   35.5606   -4.9759 C   0  0  0  0  0  0  0  0  0  0  0  0
  -88.1160   35.8281   -6.2648 C   0  0  0  0  0  0  0  0  0  0  0  0
 34 35  1  0  0  0
 35 36  1  0  0  0
 35 33  1  0  0  0
 33  1  1  0  0  0
  1  2  1  0  0  0
  2  3  1  0  0  0
  3  4  2  0  0  0
  3  5  1  0  0  0
  5  8  1  0  0  0
  8  9  2  0  0  0
  9 10  1  0  0  0
 10 11  2  0  0  0
 11 12  1  0  0  0
 12 13  2  0  0  0
 12 14  1  0  0  0
 14 15  2  0  0  0
 15 16  1  0  0  0
 16 17  2  0  0  0
 17 18  1  0  0  0
 18 19  2  0  0  0
  1 20  1  0  0  0
 20 21  2  0  0  0
 20 22  1  0  0  0
 22 24  1  0  0  0
 24 25  1  0  0  0
 25 26  1  0  0  0
 26 27  1  0  0  0
 27 28  2  0  0  0
 28 29  1  0  0  0
 29 30  2  0  0  0
 30 31  1  0  0  0
 31 32  2  0  0  0
 13  8  1  0  0  0
 19 14  1  0  0  0
 32 27  1  0  0  0
  2  6  1  0  0  0
  5  7  1  0  0  0
 22 23  1  0  0  0
M  END
> <minimizedAffinity>
-9.34750

> <CNNscore>
0.1874292940

> <CNNaffinity>
6.1621365547

> <CNN_VS>
1.1549649239

> <CNNaffinity_variance>
0.5309871435

$$$$
[H]c1c([H])c([H])c(OC([H])([H])C([H])([H])N([H])C(=O)[C@@]([H])(N([H])C(=O)N([H])c2c([H])c([H])c([H])c(-c3c([H])c([H])c([H])c([H])c3[H])c2[H])C([H])([H])C([H])(C([H])([H])[H])C([H])([H])[H])c([H])c1[H]


 36 38  0  0  0  0  0  0  0  0999 V2000
  -90.0231   25.9501    2.0774 C   0  0  0  0  0  0  0  0  0  0  0  0
  -88.5855   25.7027    1.7859 N   0  0  0  0  0  0  0  0  0  0  0  0
  -87.6315   26.7725    1.9867 C   0  0  0  0  0  0  0  0  0  0  0  0
  -88.0914   27.8533    2.3970 O   0  0  0  0  0  0  0  0  0  0  0  0
  -86.2753   26.5496    1.7186 N   0  0  0  0  0  0  0  0  0  0  0  0
  -88.2354   24.8011    1.4458 H   0  0  0  0  0  0  0  0  0  0  0  0
  -85.9886   25.5752    1.3764 H   0  0  0  0  0  0  0  0  0  0  0  0
  -85.2451   27.4710    1.8463 C   0  0  0  0  0  0  0  0  0  0  0  0
  -84.0955   27.2685    2.5561 C   0  0  0  0  0  0  0  0  0  0  0  0
  -83.0914   28.2405    2.6196 C   0  0  0  0  0  0  0  0  0  0  0  0
  -83.2223   29.4410    1.9686 C   0  0  0  0  0  0  0  0  0  0  0  0
  -84.3867   29.6735    1.2367 C   0  0  0  0  0  0  0  0  0  0  0  0
  -85.3479   28.7012    1.1961 C   0  0  0  0  0  0  0  0  0  0  0  0
  -84.5327   30.9501    0.5368 C   0  0  0  0  0  0  0  0  0  0  0  0
  -83.4054   31.6298    0.1535 C   0  0  0  0  0  0  0  0  0  0  0  0
  -83.4492   32.8511   -0.5169 C   0  0  0  0  0  0  0  0  0  0  0  0
  -84.6855   33.4088   -0.8121 C   0  0  0  0  0  0  0  0  0  0  0  0
  -85.8137   32.7397   -0.4346 C   0  0  0  0  0  0  0  0  0  0  0  0
  -85.7512   31.5176    0.2360 C   0  0  0  0  0  0  0  0  0  0  0  0
  -90.3979   24.8735    2.9859 C   0  0  0  0  0  0  0  0  0  0  0  0
  -90.9951   25.1287    4.0582 O   0  0  0  0  0  0  0  0  0  0  0  0
  -90.1040   23.5268    2.6826 N   0  0  0  0  0  0  0  0  0  0  0  0
  -89.6135   23.3032    1.7955 H   0  0  0  0  0  0  0  0  0  0  0  0
  -90.4575   22.4262    3.5576 C   0  0  0  0  0  0  0  0  0  0  0  0
  -89.7659   21.1473    3.1558 C   0  0  0  0  0  0  0  0  0  0  0  0
  -90.0123   20.8204    1.8005 O   0  0  0  0  0  0  0  0  0  0  0  0
  -91.2627   20.4560    1.3606 C   0  0  0  0  0  0  0  0  0  0  0  0
  -91.9584   19.3602    1.7968 C   0  0  0  0  0  0  0  0  0  0  0  0
  -93.2202   19.0993    1.2722 C   0  0  0  0  0  0  0  0  0  0  0  0
  -93.8066   19.9001    0.3254 C   0  0  0  0  0  0  0  0  0  0  0  0
  -93.0955   21.0111   -0.1139 C   0  0  0  0  0  0  0  0  0  0  0  0
  -91.8477   21.2669    0.4069 C   0  0  0  0  0  0  0  0  0  0  0  0
  -90.6585   25.9765    0.7439 C   0  0  0  0  0  0  0  0  0  0  0  0
  -92.0563   26.9893   -0.9239 C   0  0  0  0  0  0  0  0  0  0  0  0
  -90.8577   27.2419    0.0262 C   0  0  0  0  0  0  0  0  0  0  0  0
  -91.2023   28.4559    0.7998 C   0  0  0  0  0  0  0  0  0  0  0  0
 34 35  1  0  0  0
 35 36  1  0  0  0
 35 33  1  0  0  0
 33  1  1  0  0  0
  1  2  1  0  0  0
  2  3  1  0  0  0
  3  4  2  0  0  0
  3  5  1  0  0  0
  5  8  1  0  0  0
  8  9  2  0  0  0
  9 10  1  0  0  0
 10 11  2  0  0  0
 11 12  1  0  0  0
 12 13  2  0  0  0
 12 14  1  0  0  0
 14 15  2  0  0  0
 15 16  1  0  0  0
 16 17  2  0  0  0
 17 18  1  0  0  0
 18 19  2  0  0  0
  1 20  1  0  0  0
 20 21  2  0  0  0
 20 22  1  0  0  0
 22 24  1  0  0  0
 24 25  1  0  0  0
 25 26  1  0  0  0
 26 27  1  0  0  0
 27 28  2  0  0  0
 28 29  1  0  0  0
 29 30  2  0  0  0
 30 31  1  0  0  0
 31 32  2  0  0  0
 13  8  1  0  0  0
 19 14  1  0  0  0
 32 27  1  0  0  0
  2  6  1  0  0  0
  5  7  1  0  0  0
 22 23  1  0  0  0
M  END
> <minimizedAffinity>
-8.76580

> <CNNscore>
0.1581649035

> <CNNaffinity>
5.9506578445

> <CNN_VS>
0.9411852360

> <CNNaffinity_variance>
0.1555080265

$$$$
[H]c1c([H])c([H])c(OC([H])([H])C([H])([H])N([H])C(=O)[C@@]([H])(N([H])C(=O)N([H])c2c([H])c([H])c([H])c(-c3c([H])c([H])c([H])c([H])c3[H])c2[H])C([H])([H])C([H])(C([H])([H])[H])C([H])([H])[H])c([H])c1[H]


 36 38  0  0  0  0  0  0  0  0999 V2000
  -85.7080   28.6586    1.3110 C   0  0  0  0  0  0  0  0  0  0  0  0
  -86.4553   29.8741    0.8902 N   0  0  0  0  0  0  0  0  0  0  0  0
  -86.7060   30.0949   -0.5181 C   0  0  0  0  0  0  0  0  0  0  0  0
  -86.2657   29.2327   -1.2997 O   0  0  0  0  0  0  0  0  0  0  0  0
  -87.4114   31.2341   -0.9251 N   0  0  0  0  0  0  0  0  0  0  0  0
  -86.8044   30.5697    1.5577 H   0  0  0  0  0  0  0  0  0  0  0  0
  -87.7522   31.9074   -0.1641 H   0  0  0  0  0  0  0  0  0  0  0  0
  -87.7185   31.5939   -2.2299 C   0  0  0  0  0  0  0  0  0  0  0  0
  -88.0454   30.7201   -3.2280 C   0  0  0  0  0  0  0  0  0  0  0  0
  -88.3643   31.1632   -4.5161 C   0  0  0  0  0  0  0  0  0  0  0  0
  -88.3610   32.4989   -4.8291 C   0  0  0  0  0  0  0  0  0  0  0  0
  -88.0304   33.4125   -3.8283 C   0  0  0  0  0  0  0  0  0  0  0  0
  -87.7240   32.9444   -2.5801 C   0  0  0  0  0  0  0  0  0  0  0  0
  -88.0277   34.8391   -4.1532 C   0  0  0  0  0  0  0  0  0  0  0  0
  -87.9123   35.2211   -5.4649 C   0  0  0  0  0  0  0  0  0  0  0  0
  -87.9007   36.5559   -5.8664 C   0  0  0  0  0  0  0  0  0  0  0  0
  -88.0102   37.5466   -4.9003 C   0  0  0  0  0  0  0  0  0  0  0  0
  -88.1254   37.1763   -3.5916 C   0  0  0  0  0  0  0  0  0  0  0  0
  -88.1354   35.8349   -3.2075 C   0  0  0  0  0  0  0  0  0  0  0  0
  -86.7416   27.6505    1.5115 C   0  0  0  0  0  0  0  0  0  0  0  0
  -87.2301   27.4621    2.6506 O   0  0  0  0  0  0  0  0  0  0  0  0
  -87.2180   26.8697    0.4367 N   0  0  0  0  0  0  0  0  0  0  0  0
  -86.8239   27.0199   -0.5118 H   0  0  0  0  0  0  0  0  0  0  0  0
  -88.2433   25.8564    0.5918 C   0  0  0  0  0  0  0  0  0  0  0  0
  -89.5910   26.3479    0.1255 C   0  0  0  0  0  0  0  0  0  0  0  0
  -90.6004   26.1052    1.0882 O   0  0  0  0  0  0  0  0  0  0  0  0
  -90.4701   26.5197    2.3924 C   0  0  0  0  0  0  0  0  0  0  0  0
  -90.6104   27.8125    2.8216 C   0  0  0  0  0  0  0  0  0  0  0  0
  -90.4540   28.1040    4.1729 C   0  0  0  0  0  0  0  0  0  0  0  0
  -90.1616   27.1429    5.1070 C   0  0  0  0  0  0  0  0  0  0  0  0
  -90.0201   25.8323    4.6653 C   0  0  0  0  0  0  0  0  0  0  0  0
  -90.1756   25.5466    3.3281 C   0  0  0  0  0  0  0  0  0  0  0  0
  -84.9418   29.1020    2.4937 C   0  0  0  0  0  0  0  0  0  0  0  0
  -82.8889   27.8610    2.4104 C   0  0  0  0  0  0  0  0  0  0  0  0
  -83.4873   29.2910    2.4251 C   0  0  0  0  0  0  0  0  0  0  0  0
  -82.9112   29.9837    1.2506 C   0  0  0  0  0  0  0  0  0  0  0  0
 34 35  1  0  0  0
 35 36  1  0  0  0
 35 33  1  0  0  0
 33  1  1  0  0  0
  1  2  1  0  0  0
  2  3  1  0  0  0
  3  4  2  0  0  0
  3  5  1  0  0  0
  5  8  1  0  0  0
  8  9  2  0  0  0
  9 10  1  0  0  0
 10 11  2  0  0  0
 11 12  1  0  0  0
 12 13  2  0  0  0
 12 14  1  0  0  0
 14 15  2  0  0  0
 15 16  1  0  0  0
 16 17  2  0  0  0
 17 18  1  0  0  0
 18 19  2  0  0  0
  1 20  1  0  0  0
 20 21  2  0  0  0
 20 22  1  0  0  0
 22 24  1  0  0  0
 24 25  1  0  0  0
 25 26  1  0  0  0
 26 27  1  0  0  0
 27 28  2  0  0  0
 28 29  1  0  0  0
 29 30  2  0  0  0
 30 31  1  0  0  0
 31 32  2  0  0  0
 13  8  1  0  0  0
 19 14  1  0  0  0
 32 27  1  0  0  0
  2  6  1  0  0  0
  5  7  1  0  0  0
 22 23  1  0  0  0
M  END
> <minimizedAffinity>
-8.44288

> <CNNscore>
0.1534739733

> <CNNaffinity>
5.9651002884

> <CNN_VS>
0.9154876471

> <CNNaffinity_variance>
0.4543383718

$$$$
[H]c1c([H])c([H])c(OC([H])([H])C([H])([H])N([H])C(=O)[C@@]([H])(N([H])C(=O)N([H])c2c([H])c([H])c([H])c(-c3c([H])c([H])c([H])c([H])c3[H])c2[H])C([H])([H])C([H])(C([H])([H])[H])C([H])([H])[H])c([H])c1[H]


 36 38  0  0  0  0  0  0  0  0999 V2000
  -85.7117   30.0148    0.7301 C   0  0  0  0  0  0  0  0  0  0  0  0
  -86.8613   30.9425    0.5550 N   0  0  0  0  0  0  0  0  0  0  0  0
  -87.5468   30.9826   -0.7191 C   0  0  0  0  0  0  0  0  0  0  0  0
  -87.1148   30.2213   -1.6033 O   0  0  0  0  0  0  0  0  0  0  0  0
  -88.6323   31.8498   -0.8939 N   0  0  0  0  0  0  0  0  0  0  0  0
  -87.1939   31.5611    1.3020 H   0  0  0  0  0  0  0  0  0  0  0  0
  -88.9249   32.4561   -0.0600 H   0  0  0  0  0  0  0  0  0  0  0  0
  -89.3804   32.0150   -2.0513 C   0  0  0  0  0  0  0  0  0  0  0  0
  -90.4896   31.2876   -2.3785 C   0  0  0  0  0  0  0  0  0  0  0  0
  -91.2042   31.5290   -3.5567 C   0  0  0  0  0  0  0  0  0  0  0  0
  -90.8173   32.5102   -4.4341 C   0  0  0  0  0  0  0  0  0  0  0  0
  -89.6877   33.2675   -4.1240 C   0  0  0  0  0  0  0  0  0  0  0  0
  -89.0128   33.0045   -2.9637 C   0  0  0  0  0  0  0  0  0  0  0  0
  -89.2702   34.3179   -5.0530 C   0  0  0  0  0  0  0  0  0  0  0  0
  -88.0224   34.8690   -4.9148 C   0  0  0  0  0  0  0  0  0  0  0  0
  -87.5414   35.8732   -5.7533 C   0  0  0  0  0  0  0  0  0  0  0  0
  -88.3569   36.3403   -6.7749 C   0  0  0  0  0  0  0  0  0  0  0  0
  -89.6010   35.7979   -6.9206 C   0  0  0  0  0  0  0  0  0  0  0  0
  -90.0664   34.7928   -6.0718 C   0  0  0  0  0  0  0  0  0  0  0  0
  -86.3215   28.7593    1.1507 C   0  0  0  0  0  0  0  0  0  0  0  0
  -86.4319   28.4858    2.3692 O   0  0  0  0  0  0  0  0  0  0  0  0
  -86.8031   27.8289    0.2052 N   0  0  0  0  0  0  0  0  0  0  0  0
  -86.7209   28.0466   -0.8064 H   0  0  0  0  0  0  0  0  0  0  0  0
  -87.4152   26.5690    0.5796 C   0  0  0  0  0  0  0  0  0  0  0  0
  -88.9148   26.6063    0.4209 C   0  0  0  0  0  0  0  0  0  0  0  0
  -89.5641   25.7809    1.3704 O   0  0  0  0  0  0  0  0  0  0  0  0
  -89.7237   26.1718    2.6787 C   0  0  0  0  0  0  0  0  0  0  0  0
  -89.5145   25.3684    3.7677 C   0  0  0  0  0  0  0  0  0  0  0  0
  -89.7107   25.8845    5.0446 C   0  0  0  0  0  0  0  0  0  0  0  0
  -90.1096   27.1783    5.2653 C   0  0  0  0  0  0  0  0  0  0  0  0
  -90.3207   27.9892    4.1558 C   0  0  0  0  0  0  0  0  0  0  0  0
  -90.1256   27.4761    2.8938 C   0  0  0  0  0  0  0  0  0  0  0  0
  -84.8352   30.7102    1.6948 C   0  0  0  0  0  0  0  0  0  0  0  0
  -82.7791   29.4792    1.8305 C   0  0  0  0  0  0  0  0  0  0  0  0
  -83.3950   30.8485    1.4446 C   0  0  0  0  0  0  0  0  0  0  0  0
  -82.9325   31.1271    0.0664 C   0  0  0  0  0  0  0  0  0  0  0  0
 34 35  1  0  0  0
 35 36  1  0  0  0
 35 33  1  0  0  0
 33  1  1  0  0  0
  1  2  1  0  0  0
  2  3  1  0  0  0
  3  4  2  0  0  0
  3  5  1  0  0  0
  5  8  1  0  0  0
  8  9  2  0  0  0
  9 10  1  0  0  0
 10 11  2  0  0  0
 11 12  1  0  0  0
 12 13  2  0  0  0
 12 14  1  0  0  0
 14 15  2  0  0  0
 15 16  1  0  0  0
 16 17  2  0  0  0
 17 18  1  0  0  0
 18 19  2  0  0  0
  1 20  1  0  0  0
 20 21  2  0  0  0
 20 22  1  0  0  0
 22 24  1  0  0  0
 24 25  1  0  0  0
 25 26  1  0  0  0
 26 27  1  0  0  0
 27 28  2  0  0  0
 28 29  1  0  0  0
 29 30  2  0  0  0
 30 31  1  0  0  0
 31 32  2  0  0  0
 13  8  1  0  0  0
 19 14  1  0  0  0
 32 27  1  0  0  0
  2  6  1  0  0  0
  5  7  1  0  0  0
 22 23  1  0  0  0
M  END
> <minimizedAffinity>
-8.28320

> <CNNscore>
0.1509185284

> <CNNaffinity>
6.0417656898

> <CNN_VS>
0.9118143916

> <CNNaffinity_variance>
0.2711992562

$$$$
[H]C1=C(c2c([H])c3c([H])c([H])c([H])c([H])c3n2[H])C([H])([H])C([H])([H])C([H])([H])[C@@]1([H])O[C@@]1([H])c2c([H])c([H])c([H])c([H])c2O[C@@]([H])(C([H])([H])[H])C1([H])[H]


 28 32  0  0  0  0  0  0  0  0999 V2000
  -87.5746   29.0166   -0.9883 C   0  0  0  0  0  0  0  0  0  0  0  0
  -86.0906   29.1037   -0.6132 C   0  0  0  0  0  0  0  0  0  0  0  0
  -85.9611   30.2650    0.3189 C   0  0  0  0  0  0  0  0  0  0  0  0
  -86.6395   31.5094   -0.1258 C   0  0  0  0  0  0  0  0  0  0  0  0
  -87.4356   31.3941   -1.3644 C   0  0  0  0  0  0  0  0  0  0  0  0
  -87.8759   30.2280   -1.7718 C   0  0  0  0  0  0  0  0  0  0  0  0
  -87.7279   32.6273   -2.1412 C   0  0  0  0  0  0  0  0  0  0  0  0
  -88.9213   33.3160   -2.1720 C   0  0  0  0  0  0  0  0  0  0  0  0
  -88.7758   34.4069   -3.0165 C   0  0  0  0  0  0  0  0  0  0  0  0
  -89.6433   35.4224   -3.4094 C   0  0  0  0  0  0  0  0  0  0  0  0
  -89.1918   36.3821   -4.2782 C   0  0  0  0  0  0  0  0  0  0  0  0
  -87.8935   36.3362   -4.7528 C   0  0  0  0  0  0  0  0  0  0  0  0
  -87.0380   35.3318   -4.3632 C   0  0  0  0  0  0  0  0  0  0  0  0
  -87.4653   34.3560   -3.4923 C   0  0  0  0  0  0  0  0  0  0  0  0
  -86.8892   33.2850   -2.9439 N   0  0  0  0  0  0  0  0  0  0  0  0
  -85.8917   32.9837   -3.1167 H   0  0  0  0  0  0  0  0  0  0  0  0
  -88.3923   29.0031    0.1334 O   0  0  0  0  0  0  0  0  0  0  0  0
  -91.5018   29.5346   -1.5038 C   0  0  0  0  0  0  0  0  0  0  0  0
  -91.3067   28.5299   -0.3800 C   0  0  0  0  0  0  0  0  0  0  0  0
  -90.1459   27.6318   -0.6555 C   0  0  0  0  0  0  0  0  0  0  0  0
  -89.0159   27.7743    0.3110 C   0  0  0  0  0  0  0  0  0  0  0  0
  -91.1889   29.1700    0.8663 O   0  0  0  0  0  0  0  0  0  0  0  0
  -90.6759   28.4949    1.9480 C   0  0  0  0  0  0  0  0  0  0  0  0
  -91.1658   28.4801    3.2261 C   0  0  0  0  0  0  0  0  0  0  0  0
  -90.5592   27.7567    4.2469 C   0  0  0  0  0  0  0  0  0  0  0  0
  -89.4246   27.0150    4.0097 C   0  0  0  0  0  0  0  0  0  0  0  0
  -88.9135   27.0172    2.7228 C   0  0  0  0  0  0  0  0  0  0  0  0
  -89.5177   27.7337    1.7204 C   0  0  0  0  0  0  0  0  0  0  0  0
 18 19  1  0  0  0
 19 20  1  0  0  0
 20 21  1  0  0  0
 21 17  1  0  0  0
 17  1  1  0  0  0
  1  2  1  0  0  0
  2  3  1  0  0  0
  3  4  1  0  0  0
  4  5  1  0  0  0
  5  6  2  0  0  0
  5  7  1  0  0  0
  7  8  2  0  0  0
  8  9  1  0  0  0
  9 10  2  0  0  0
 10 11  1  0  0  0
 11 12  2  0  0  0
 12 13  1  0  0  0
 13 14  2  0  0  0
 14 15  1  0  0  0
 19 22  1  0  0  0
 22 23  1  0  0  0
 23 24  2  0  0  0
 24 25  1  0  0  0
 25 26  2  0  0  0
 26 27  1  0  0  0
 27 28  2  0  0  0
 28 21  1  0  0  0
  6  1  1  0  0  0
 15  7  1  0  0  0
 28 23  1  0  0  0
 14  9  1  0  0  0
 15 16  1  0  0  0
M  END
> <minimizedAffinity>
-8.71540

> <CNNscore>
0.3406443894

> <CNNaffinity>
6.0106267929

> <CNN_VS>
2.0474863052

> <CNNaffinity_variance>
0.2268312424

$$$$
[H]C1=C(c2c([H])c3c([H])c([H])c([H])c([H])c3n2[H])C([H])([H])C([H])([H])C([H])([H])[C@@]1([H])O[C@@]1([H])c2c([H])c([H])c([H])c([H])c2O[C@@]([H])(C([H])([H])[H])C1([H])[H]


 28 32  0  0  0  0  0  0  0  0999 V2000
  -90.3659   28.9339    0.2196 C   0  0  0  0  0  0  0  0  0  0  0  0
  -90.9492   29.6179   -1.0224 C   0  0  0  0  0  0  0  0  0  0  0  0
  -90.0819   29.2130   -2.1705 C   0  0  0  0  0  0  0  0  0  0  0  0
  -88.6209   29.3358   -1.9313 C   0  0  0  0  0  0  0  0  0  0  0  0
  -88.2298   29.7320   -0.5634 C   0  0  0  0  0  0  0  0  0  0  0  0
  -89.0443   29.5452    0.4472 C   0  0  0  0  0  0  0  0  0  0  0  0
  -86.8930   30.3480   -0.3546 C   0  0  0  0  0  0  0  0  0  0  0  0
  -85.7984   29.7558    0.2375 C   0  0  0  0  0  0  0  0  0  0  0  0
  -84.7526   30.6672    0.2352 C   0  0  0  0  0  0  0  0  0  0  0  0
  -83.4403   30.6036    0.6956 C   0  0  0  0  0  0  0  0  0  0  0  0
  -82.6297   31.6989    0.5438 C   0  0  0  0  0  0  0  0  0  0  0  0
  -83.1146   32.8458   -0.0581 C   0  0  0  0  0  0  0  0  0  0  0  0
  -84.4117   32.9064   -0.5123 C   0  0  0  0  0  0  0  0  0  0  0  0
  -85.2466   31.8217   -0.3727 C   0  0  0  0  0  0  0  0  0  0  0  0
  -86.5164   31.5798   -0.7026 N   0  0  0  0  0  0  0  0  0  0  0  0
  -87.1559   32.2710   -1.1809 H   0  0  0  0  0  0  0  0  0  0  0  0
  -90.1928   27.5701    0.0265 O   0  0  0  0  0  0  0  0  0  0  0  0
  -89.6724   24.4169   -1.5285 C   0  0  0  0  0  0  0  0  0  0  0  0
  -89.2937   24.7136   -0.0865 C   0  0  0  0  0  0  0  0  0  0  0  0
  -88.4696   25.9552    0.0096 C   0  0  0  0  0  0  0  0  0  0  0  0
  -89.1234   27.0699    0.7589 C   0  0  0  0  0  0  0  0  0  0  0  0
  -90.4290   24.7737    0.7406 O   0  0  0  0  0  0  0  0  0  0  0  0
  -90.3526   25.3545    1.9838 C   0  0  0  0  0  0  0  0  0  0  0  0
  -90.8665   24.8737    3.1580 C   0  0  0  0  0  0  0  0  0  0  0  0
  -90.7279   25.5522    4.3637 C   0  0  0  0  0  0  0  0  0  0  0  0
  -90.0580   26.7526    4.4262 C   0  0  0  0  0  0  0  0  0  0  0  0
  -89.5307   27.2557    3.2488 C   0  0  0  0  0  0  0  0  0  0  0  0
  -89.6716   26.5804    2.0625 C   0  0  0  0  0  0  0  0  0  0  0  0
 18 19  1  0  0  0
 19 20  1  0  0  0
 20 21  1  0  0  0
 21 17  1  0  0  0
 17  1  1  0  0  0
  1  2  1  0  0  0
  2  3  1  0  0  0
  3  4  1  0  0  0
  4  5  1  0  0  0
  5  6  2  0  0  0
  5  7  1  0  0  0
  7  8  2  0  0  0
  8  9  1  0  0  0
  9 10  2  0  0  0
 10 11  1  0  0  0
 11 12  2  0  0  0
 12 13  1  0  0  0
 13 14  2  0  0  0
 14 15  1  0  0  0
 19 22  1  0  0  0
 22 23  1  0  0  0
 23 24  2  0  0  0
 24 25  1  0  0  0
 25 26  2  0  0  0
 26 27  1  0  0  0
 27 28  2  0  0  0
 28 21  1  0  0  0
  6  1  1  0  0  0
 15  7  1  0  0  0
 28 23  1  0  0  0
 14  9  1  0  0  0
 15 16  1  0  0  0
M  END
> <minimizedAffinity>
-9.07856

> <CNNscore>
0.1859592348

> <CNNaffinity>
6.0314726830

> <CNN_VS>
1.1216080189

> <CNNaffinity_variance>
0.1486756504

$$$$
[H]C1=C(c2c([H])c3c([H])c([H])c([H])c([H])c3n2[H])C([H])([H])C([H])([H])C([H])([H])[C@@]1([H])O[C@@]1([H])c2c([H])c([H])c([H])c([H])c2O[C@@]([H])(C([H])([H])[H])C1([H])[H]


 28 32  0  0  0  0  0  0  0  0999 V2000
  -89.0463   30.4659   -3.1961 C   0  0  0  0  0  0  0  0  0  0  0  0
  -90.2350   29.6999   -2.6038 C   0  0  0  0  0  0  0  0  0  0  0  0
  -90.4678   30.2737   -1.2434 C   0  0  0  0  0  0  0  0  0  0  0  0
  -89.2505   30.4234   -0.4053 C   0  0  0  0  0  0  0  0  0  0  0  0
  -87.9741   30.0910   -1.0694 C   0  0  0  0  0  0  0  0  0  0  0  0
  -87.8741   30.1100   -2.3768 C   0  0  0  0  0  0  0  0  0  0  0  0
  -86.8036   29.7335   -0.2256 C   0  0  0  0  0  0  0  0  0  0  0  0
  -85.6210   30.4335   -0.1212 C   0  0  0  0  0  0  0  0  0  0  0  0
  -84.7934   29.7651    0.7691 C   0  0  0  0  0  0  0  0  0  0  0  0
  -83.5086   30.0194    1.2410 C   0  0  0  0  0  0  0  0  0  0  0  0
  -82.9471   29.1494    2.1395 C   0  0  0  0  0  0  0  0  0  0  0  0
  -83.6516   28.0384    2.5663 C   0  0  0  0  0  0  0  0  0  0  0  0
  -84.9211   27.7891    2.0988 C   0  0  0  0  0  0  0  0  0  0  0  0
  -85.5084   28.6459    1.1965 C   0  0  0  0  0  0  0  0  0  0  0  0
  -86.6903   28.6747    0.5784 N   0  0  0  0  0  0  0  0  0  0  0  0
  -87.4515   27.9531    0.7019 H   0  0  0  0  0  0  0  0  0  0  0  0
  -89.2301   31.8402   -3.1280 O   0  0  0  0  0  0  0  0  0  0  0  0
  -86.5863   33.6994   -1.6498 C   0  0  0  0  0  0  0  0  0  0  0  0
  -87.2884   34.1145   -2.9325 C   0  0  0  0  0  0  0  0  0  0  0  0
  -87.3238   32.9908   -3.9154 C   0  0  0  0  0  0  0  0  0  0  0  0
  -88.6967   32.4944   -4.2316 C   0  0  0  0  0  0  0  0  0  0  0  0
  -88.5730   34.6235   -2.6731 O   0  0  0  0  0  0  0  0  0  0  0  0
  -89.4936   34.7356   -3.6874 C   0  0  0  0  0  0  0  0  0  0  0  0
  -90.3127   35.8001   -3.9515 C   0  0  0  0  0  0  0  0  0  0  0  0
  -91.2119   35.8017   -5.0121 C   0  0  0  0  0  0  0  0  0  0  0  0
  -91.3158   34.7166   -5.8521 C   0  0  0  0  0  0  0  0  0  0  0  0
  -90.4954   33.6296   -5.6014 C   0  0  0  0  0  0  0  0  0  0  0  0
  -89.6105   33.6354   -4.5526 C   0  0  0  0  0  0  0  0  0  0  0  0
 18 19  1  0  0  0
 19 20  1  0  0  0
 20 21  1  0  0  0
 21 17  1  0  0  0
 17  1  1  0  0  0
  1  2  1  0  0  0
  2  3  1  0  0  0
  3  4  1  0  0  0
  4  5  1  0  0  0
  5  6  2  0  0  0
  5  7  1  0  0  0
  7  8  2  0  0  0
  8  9  1  0  0  0
  9 10  2  0  0  0
 10 11  1  0  0  0
 11 12  2  0  0  0
 12 13  1  0  0  0
 13 14  2  0  0  0
 14 15  1  0  0  0
 19 22  1  0  0  0
 22 23  1  0  0  0
 23 24  2  0  0  0
 24 25  1  0  0  0
 25 26  2  0  0  0
 26 27  1  0  0  0
 27 28  2  0  0  0
 28 21  1  0  0  0
  6  1  1  0  0  0
 15  7  1  0  0  0
 28 23  1  0  0  0
 14  9  1  0  0  0
 15 16  1  0  0  0
M  END
> <minimizedAffinity>
-9.35700

> <CNNscore>
0.1825275570

> <CNNaffinity>
5.6459226608

> <CNN_VS>
1.0305364132

> <CNNaffinity_variance>
0.3057185709

$$$$
[H]C1=C(c2c([H])c3c([H])c([H])c([H])c([H])c3n2[H])C([H])([H])C([H])([H])C([H])([H])[C@@]1([H])O[C@@]1([H])c2c([H])c([H])c([H])c([H])c2O[C@@]([H])(C([H])([H])[H])C1([H])[H]


 28 32  0  0  0  0  0  0  0  0999 V2000
  -88.2472   33.8617   -2.5505 C   0  0  0  0  0  0  0  0  0  0  0  0
  -86.9759   33.3461   -3.2351 C   0  0  0  0  0  0  0  0  0  0  0  0
  -87.3774   32.1279   -4.0025 C   0  0  0  0  0  0  0  0  0  0  0  0
  -88.2050   31.1517   -3.2482 C   0  0  0  0  0  0  0  0  0  0  0  0
  -88.6063   31.5708   -1.8902 C   0  0  0  0  0  0  0  0  0  0  0  0
  -88.6277   32.8396   -1.5593 C   0  0  0  0  0  0  0  0  0  0  0  0
  -88.9855   30.5247   -0.9044 C   0  0  0  0  0  0  0  0  0  0  0  0
  -90.2367   30.3191   -0.3642 C   0  0  0  0  0  0  0  0  0  0  0  0
  -90.1648   29.2453    0.5112 C   0  0  0  0  0  0  0  0  0  0  0  0
  -91.1100   28.6143    1.3152 C   0  0  0  0  0  0  0  0  0  0  0  0
  -90.7206   27.5508    2.0878 C   0  0  0  0  0  0  0  0  0  0  0  0
  -89.4076   27.1168    2.0640 C   0  0  0  0  0  0  0  0  0  0  0  0
  -88.4753   27.7418    1.2686 C   0  0  0  0  0  0  0  0  0  0  0  0
  -88.8391   28.8114    0.4834 C   0  0  0  0  0  0  0  0  0  0  0  0
  -88.1845   29.6015   -0.3693 N   0  0  0  0  0  0  0  0  0  0  0  0
  -87.1575   29.5167   -0.6007 H   0  0  0  0  0  0  0  0  0  0  0  0
  -89.2939   34.0144   -3.4494 O   0  0  0  0  0  0  0  0  0  0  0  0
  -91.8266   33.7776   -5.9316 C   0  0  0  0  0  0  0  0  0  0  0  0
  -90.9857   35.0240   -5.7077 C   0  0  0  0  0  0  0  0  0  0  0  0
  -90.9965   35.4303   -4.2707 C   0  0  0  0  0  0  0  0  0  0  0  0
  -89.6653   35.3449   -3.5983 C   0  0  0  0  0  0  0  0  0  0  0  0
  -89.6774   34.8548   -6.1940 O   0  0  0  0  0  0  0  0  0  0  0  0
  -88.6740   35.7066   -5.7985 C   0  0  0  0  0  0  0  0  0  0  0  0
  -87.7257   36.2968   -6.5898 C   0  0  0  0  0  0  0  0  0  0  0  0
  -86.7519   37.1461   -6.0764 C   0  0  0  0  0  0  0  0  0  0  0  0
  -86.7016   37.4322   -4.7313 C   0  0  0  0  0  0  0  0  0  0  0  0
  -87.6526   36.8447   -3.9139 C   0  0  0  0  0  0  0  0  0  0  0  0
  -88.6106   36.0075   -4.4280 C   0  0  0  0  0  0  0  0  0  0  0  0
 18 19  1  0  0  0
 19 20  1  0  0  0
 20 21  1  0  0  0
 21 17  1  0  0  0
 17  1  1  0  0  0
  1  2  1  0  0  0
  2  3  1  0  0  0
  3  4  1  0  0  0
  4  5  1  0  0  0
  5  6  2  0  0  0
  5  7  1  0  0  0
  7  8  2  0  0  0
  8  9  1  0  0  0
  9 10  2  0  0  0
 10 11  1  0  0  0
 11 12  2  0  0  0
 12 13  1  0  0  0
 13 14  2  0  0  0
 14 15  1  0  0  0
 19 22  1  0  0  0
 22 23  1  0  0  0
 23 24  2  0  0  0
 24 25  1  0  0  0
 25 26  2  0  0  0
 26 27  1  0  0  0
 27 28  2  0  0  0
 28 21  1  0  0  0
  6  1  1  0  0  0
 15  7  1  0  0  0
 28 23  1  0  0  0
 14  9  1  0  0  0
 15 16  1  0  0  0
M  END
> <minimizedAffinity>
-7.37495

> <CNNscore>
0.1677485704

> <CNNaffinity>
5.4083795547

> <CNN_VS>
0.9072479606

> <CNNaffinity_variance>
0.1556547731

$$$$
[H]C1=C(c2c([H])c3c([H])c([H])c([H])c([H])c3n2[H])C([H])([H])C([H])([H])C([H])([H])[C@@]1([H])O[C@@]1([H])c2c([H])c([H])c([H])c([H])c2O[C@@]([H])(C([H])([H])[H])C1([H])[H]


 28 32  0  0  0  0  0  0  0  0999 V2000
  -88.5761   26.3406   -0.9065 C   0  0  0  0  0  0  0  0  0  0  0  0
  -88.5526   25.5550    0.4099 C   0  0  0  0  0  0  0  0  0  0  0  0
  -88.9195   26.5268    1.4848 C   0  0  0  0  0  0  0  0  0  0  0  0
  -88.1962   27.8234    1.4364 C   0  0  0  0  0  0  0  0  0  0  0  0
  -87.3033   28.0126    0.2755 C   0  0  0  0  0  0  0  0  0  0  0  0
  -87.4781   27.3201   -0.8243 C   0  0  0  0  0  0  0  0  0  0  0  0
  -86.2008   29.0046    0.3785 C   0  0  0  0  0  0  0  0  0  0  0  0
  -86.1941   30.2827   -0.1370 C   0  0  0  0  0  0  0  0  0  0  0  0
  -84.9808   30.8762    0.1791 C   0  0  0  0  0  0  0  0  0  0  0  0
  -84.4449   32.1339   -0.0841 C   0  0  0  0  0  0  0  0  0  0  0  0
  -83.1869   32.4286    0.3743 C   0  0  0  0  0  0  0  0  0  0  0  0
  -82.4670   31.4866    1.0865 C   0  0  0  0  0  0  0  0  0  0  0  0
  -82.9985   30.2445    1.3455 C   0  0  0  0  0  0  0  0  0  0  0  0
  -84.2589   29.9224    0.8971 C   0  0  0  0  0  0  0  0  0  0  0  0
  -85.0256   28.8344    0.9868 N   0  0  0  0  0  0  0  0  0  0  0  0
  -84.7473   27.9410    1.4767 H   0  0  0  0  0  0  0  0  0  0  0  0
  -89.7691   27.0298   -1.0770 O   0  0  0  0  0  0  0  0  0  0  0  0
  -89.9695   30.5393   -0.5528 C   0  0  0  0  0  0  0  0  0  0  0  0
  -90.5928   29.8326   -1.7455 C   0  0  0  0  0  0  0  0  0  0  0  0
  -89.5981   28.9561   -2.4327 C   0  0  0  0  0  0  0  0  0  0  0  0
  -89.9209   27.4987   -2.3760 C   0  0  0  0  0  0  0  0  0  0  0  0
  -91.7483   29.1225   -1.3752 O   0  0  0  0  0  0  0  0  0  0  0  0
  -92.2647   28.1555   -2.2041 C   0  0  0  0  0  0  0  0  0  0  0  0
  -93.5775   27.9667   -2.5429 C   0  0  0  0  0  0  0  0  0  0  0  0
  -93.9866   26.9475   -3.3956 C   0  0  0  0  0  0  0  0  0  0  0  0
  -93.0741   26.0743   -3.9420 C   0  0  0  0  0  0  0  0  0  0  0  0
  -91.7408   26.2488   -3.6114 C   0  0  0  0  0  0  0  0  0  0  0  0
  -91.3446   27.2571   -2.7690 C   0  0  0  0  0  0  0  0  0  0  0  0
 18 19  1  0  0  0
 19 20  1  0  0  0
 20 21  1  0  0  0
 21 17  1  0  0  0
 17  1  1  0  0  0
  1  2  1  0  0  0
  2  3  1  0  0  0
  3  4  1  0  0  0
  4  5  1  0  0  0
  5  6  2  0  0  0
  5  7  1  0  0  0
  7  8  2  0  0  0
  8  9  1  0  0  0
  9 10  2  0  0  0
 10 11  1  0  0  0
 11 12  2  0  0  0
 12 13  1  0  0  0
 13 14  2  0  0  0
 14 15  1  0  0  0
 19 22  1  0  0  0
 22 23  1  0  0  0
 23 24  2  0  0  0
 24 25  1  0  0  0
 25 26  2  0  0  0
 26 27  1  0  0  0
 27 28  2  0  0  0
 28 21  1  0  0  0
  6  1  1  0  0  0
 15  7  1  0  0  0
 28 23  1  0  0  0
 14  9  1  0  0  0
 15 16  1  0  0  0
M  END
> <minimizedAffinity>
-8.69869

> <CNNscore>
0.1600982100

> <CNNaffinity>
5.7265105247

> <CNN_VS>
0.9168040752

> <CNNaffinity_variance>
0.2484619617

$$$$
[H]C1=C(c2c([H])c3c([H])c([H])c([H])c([H])c3n2[H])C([H])([H])C([H])([H])C([H])([H])[C@@]1([H])O[C@@]1([H])c2c([H])c([H])c([H])c([H])c2O[C@@]([H])(C([H])([H])[H])C1([H])[H]


 28 32  0  0  0  0  0  0  0  0999 V2000
  -88.1793   30.4955   -2.4839 C   0  0  0  0  0  0  0  0  0  0  0  0
  -87.4224   31.1058   -1.2984 C   0  0  0  0  0  0  0  0  0  0  0  0
  -88.2677   32.2315   -0.7959 C   0  0  0  0  0  0  0  0  0  0  0  0
  -88.7781   33.1531   -1.8431 C   0  0  0  0  0  0  0  0  0  0  0  0
  -88.4737   32.7673   -3.2357 C   0  0  0  0  0  0  0  0  0  0  0  0
  -88.1929   31.5231   -3.5402 C   0  0  0  0  0  0  0  0  0  0  0  0
  -88.4915   33.8185   -4.2867 C   0  0  0  0  0  0  0  0  0  0  0  0
  -89.5491   34.1402   -5.1098 C   0  0  0  0  0  0  0  0  0  0  0  0
  -89.1544   35.1742   -5.9462 C   0  0  0  0  0  0  0  0  0  0  0  0
  -89.8073   35.8784   -6.9541 C   0  0  0  0  0  0  0  0  0  0  0  0
  -89.1315   36.8713   -7.6151 C   0  0  0  0  0  0  0  0  0  0  0  0
  -87.8217   37.1637   -7.2807 C   0  0  0  0  0  0  0  0  0  0  0  0
  -87.1784   36.4665   -6.2844 C   0  0  0  0  0  0  0  0  0  0  0  0
  -87.8332   35.4651   -5.6050 C   0  0  0  0  0  0  0  0  0  0  0  0
  -87.4899   34.6352   -4.6186 N   0  0  0  0  0  0  0  0  0  0  0  0
  -86.5437   34.6168   -4.1497 H   0  0  0  0  0  0  0  0  0  0  0  0
  -89.4917   30.1842   -2.1555 O   0  0  0  0  0  0  0  0  0  0  0  0
  -92.9237   29.8694   -3.0237 C   0  0  0  0  0  0  0  0  0  0  0  0
  -92.1946   28.8904   -2.1179 C   0  0  0  0  0  0  0  0  0  0  0  0
  -90.9308   28.4089   -2.7512 C   0  0  0  0  0  0  0  0  0  0  0  0
  -89.6881   28.8147   -2.0285 C   0  0  0  0  0  0  0  0  0  0  0  0
  -91.9650   29.4417   -0.8451 O   0  0  0  0  0  0  0  0  0  0  0  0
  -91.0417   28.8754    0.0009 C   0  0  0  0  0  0  0  0  0  0  0  0
  -91.1881   28.6181    1.3374 C   0  0  0  0  0  0  0  0  0  0  0  0
  -90.1788   28.0386    2.0983 C   0  0  0  0  0  0  0  0  0  0  0  0
  -88.9738   27.6949    1.5296 C   0  0  0  0  0  0  0  0  0  0  0  0
  -88.8062   27.9473    0.1784 C   0  0  0  0  0  0  0  0  0  0  0  0
  -89.8070   28.5195   -0.5661 C   0  0  0  0  0  0  0  0  0  0  0  0
 18 19  1  0  0  0
 19 20  1  0  0  0
 20 21  1  0  0  0
 21 17  1  0  0  0
 17  1  1  0  0  0
  1  2  1  0  0  0
  2  3  1  0  0  0
  3  4  1  0  0  0
  4  5  1  0  0  0
  5  6  2  0  0  0
  5  7  1  0  0  0
  7  8  2  0  0  0
  8  9  1  0  0  0
  9 10  2  0  0  0
 10 11  1  0  0  0
 11 12  2  0  0  0
 12 13  1  0  0  0
 13 14  2  0  0  0
 14 15  1  0  0  0
 19 22  1  0  0  0
 22 23  1  0  0  0
 23 24  2  0  0  0
 24 25  1  0  0  0
 25 26  2  0  0  0
 26 27  1  0  0  0
 27 28  2  0  0  0
 28 21  1  0  0  0
  6  1  1  0  0  0
 15  7  1  0  0  0
 28 23  1  0  0  0
 14  9  1  0  0  0
 15 16  1  0  0  0
M  END
> <minimizedAffinity>
-7.50483

> <CNNscore>
0.1531942487

> <CNNaffinity>
5.3404312134

> <CNN_VS>
0.8181233406

> <CNNaffinity_variance>
0.2500560880

$$$$
[H]C1=C(c2c([H])c3c([H])c([H])c([H])c([H])c3n2[H])C([H])([H])C([H])([H])C([H])([H])[C@@]1([H])O[C@@]1([H])c2c([H])c([H])c([H])c([H])c2O[C@@]([H])(C([H])([H])[H])C1([H])[H]


 28 32  0  0  0  0  0  0  0  0999 V2000
  -90.5956   30.9029   -3.1801 C   0  0  0  0  0  0  0  0  0  0  0  0
  -89.9840   31.8324   -4.2350 C   0  0  0  0  0  0  0  0  0  0  0  0
  -88.8043   31.1081   -4.7988 C   0  0  0  0  0  0  0  0  0  0  0  0
  -87.8936   30.5059   -3.7915 C   0  0  0  0  0  0  0  0  0  0  0  0
  -88.3377   30.6104   -2.3869 C   0  0  0  0  0  0  0  0  0  0  0  0
  -89.6028   30.7961   -2.0962 C   0  0  0  0  0  0  0  0  0  0  0  0
  -87.3209   30.5012   -1.3080 C   0  0  0  0  0  0  0  0  0  0  0  0
  -86.8275   29.3378   -0.7580 C   0  0  0  0  0  0  0  0  0  0  0  0
  -85.8988   29.6734    0.2163 C   0  0  0  0  0  0  0  0  0  0  0  0
  -85.1066   28.9122    1.0714 C   0  0  0  0  0  0  0  0  0  0  0  0
  -84.2662   29.5534    1.9444 C   0  0  0  0  0  0  0  0  0  0  0  0
  -84.2111   30.9351    1.9698 C   0  0  0  0  0  0  0  0  0  0  0  0
  -84.9947   31.6853    1.1240 C   0  0  0  0  0  0  0  0  0  0  0  0
  -85.8470   31.0674    0.2379 C   0  0  0  0  0  0  0  0  0  0  0  0
  -86.7068   31.5072   -0.6824 N   0  0  0  0  0  0  0  0  0  0  0  0
  -86.8884   32.5249   -0.8986 H   0  0  0  0  0  0  0  0  0  0  0  0
  -90.8341   29.6321   -3.6855 O   0  0  0  0  0  0  0  0  0  0  0  0
  -90.0605   26.4334   -2.3431 C   0  0  0  0  0  0  0  0  0  0  0  0
  -91.4017   26.7777   -2.9703 C   0  0  0  0  0  0  0  0  0  0  0  0
  -91.9690   28.0257   -2.3781 C   0  0  0  0  0  0  0  0  0  0  0  0
  -92.0948   29.1606   -3.3412 C   0  0  0  0  0  0  0  0  0  0  0  0
  -91.3079   26.8587   -4.3708 O   0  0  0  0  0  0  0  0  0  0  0  0
  -92.2952   27.4792   -5.0982 C   0  0  0  0  0  0  0  0  0  0  0  0
  -92.8807   27.0336   -6.2525 C   0  0  0  0  0  0  0  0  0  0  0  0
  -93.8763   27.7507   -6.9066 C   0  0  0  0  0  0  0  0  0  0  0  0
  -94.3202   28.9557   -6.4120 C   0  0  0  0  0  0  0  0  0  0  0  0
  -93.7401   29.4236   -5.2449 C   0  0  0  0  0  0  0  0  0  0  0  0
  -92.7579   28.7102   -4.6051 C   0  0  0  0  0  0  0  0  0  0  0  0
 18 19  1  0  0  0
 19 20  1  0  0  0
 20 21  1  0  0  0
 21 17  1  0  0  0
 17  1  1  0  0  0
  1  2  1  0  0  0
  2  3  1  0  0  0
  3  4  1  0  0  0
  4  5  1  0  0  0
  5  6  2  0  0  0
  5  7  1  0  0  0
  7  8  2  0  0  0
  8  9  1  0  0  0
  9 10  2  0  0  0
 10 11  1  0  0  0
 11 12  2  0  0  0
 12 13  1  0  0  0
 13 14  2  0  0  0
 14 15  1  0  0  0
 19 22  1  0  0  0
 22 23  1  0  0  0
 23 24  2  0  0  0
 24 25  1  0  0  0
 25 26  2  0  0  0
 26 27  1  0  0  0
 27 28  2  0  0  0
 28 21  1  0  0  0
  6  1  1  0  0  0
 15  7  1  0  0  0
 28 23  1  0  0  0
 14  9  1  0  0  0
 15 16  1  0  0  0
M  END
> <minimizedAffinity>
-8.65188

> <CNNscore>
0.1479138732

> <CNNaffinity>
5.2302722931

> <CNN_VS>
0.7736298442

> <CNNaffinity_variance>
0.5037356615

$$$$
[H]C1=C(c2c([H])c3c([H])c([H])c([H])c([H])c3n2[H])C([H])([H])C([H])([H])C([H])([H])[C@@]1([H])O[C@@]1([H])c2c([H])c([H])c([H])c([H])c2O[C@@]([H])(C([H])([H])[H])C1([H])[H]


 28 32  0  0  0  0  0  0  0  0999 V2000
  -89.3587   27.4865    0.5829 C   0  0  0  0  0  0  0  0  0  0  0  0
  -88.8977   26.3788   -0.3717 C   0  0  0  0  0  0  0  0  0  0  0  0
  -87.6489   25.8086    0.2195 C   0  0  0  0  0  0  0  0  0  0  0  0
  -86.6438   26.8108    0.6578 C   0  0  0  0  0  0  0  0  0  0  0  0
  -87.0631   28.2229    0.5516 C   0  0  0  0  0  0  0  0  0  0  0  0
  -88.3341   28.5437    0.5165 C   0  0  0  0  0  0  0  0  0  0  0  0
  -86.0146   29.2746    0.4847 C   0  0  0  0  0  0  0  0  0  0  0  0
  -84.7255   29.1818    0.9633 C   0  0  0  0  0  0  0  0  0  0  0  0
  -84.0739   30.3782    0.7015 C   0  0  0  0  0  0  0  0  0  0  0  0
  -82.7823   30.8290    0.9596 C   0  0  0  0  0  0  0  0  0  0  0  0
  -82.4300   32.0945    0.5670 C   0  0  0  0  0  0  0  0  0  0  0  0
  -83.3483   32.9051   -0.0752 C   0  0  0  0  0  0  0  0  0  0  0  0
  -84.6240   32.4575   -0.3293 C   0  0  0  0  0  0  0  0  0  0  0  0
  -85.0040   31.1919    0.0540 C   0  0  0  0  0  0  0  0  0  0  0  0
  -86.1347   30.4915   -0.0492 N   0  0  0  0  0  0  0  0  0  0  0  0
  -87.0233   30.8461   -0.4965 H   0  0  0  0  0  0  0  0  0  0  0  0
  -89.4441   27.0379    1.8939 O   0  0  0  0  0  0  0  0  0  0  0  0
  -89.7250   28.1617    5.2539 C   0  0  0  0  0  0  0  0  0  0  0  0
  -90.5091   26.9857    4.6946 C   0  0  0  0  0  0  0  0  0  0  0  0
  -91.2097   27.3580    3.4295 C   0  0  0  0  0  0  0  0  0  0  0  0
  -90.7288   26.6224    2.2216 C   0  0  0  0  0  0  0  0  0  0  0  0
  -89.6896   25.8558    4.5260 O   0  0  0  0  0  0  0  0  0  0  0  0
  -90.1007   24.8119    3.7322 C   0  0  0  0  0  0  0  0  0  0  0  0
  -90.0250   23.4745    4.0141 C   0  0  0  0  0  0  0  0  0  0  0  0
  -90.4746   22.5011    3.1289 C   0  0  0  0  0  0  0  0  0  0  0  0
  -91.0225   22.8483    1.9152 C   0  0  0  0  0  0  0  0  0  0  0  0
  -91.1078   24.1966    1.6115 C   0  0  0  0  0  0  0  0  0  0  0  0
  -90.6619   25.1516    2.4903 C   0  0  0  0  0  0  0  0  0  0  0  0
 18 19  1  0  0  0
 19 20  1  0  0  0
 20 21  1  0  0  0
 21 17  1  0  0  0
 17  1  1  0  0  0
  1  2  1  0  0  0
  2  3  1  0  0  0
  3  4  1  0  0  0
  4  5  1  0  0  0
  5  6  2  0  0  0
  5  7  1  0  0  0
  7  8  2  0  0  0
  8  9  1  0  0  0
  9 10  2  0  0  0
 10 11  1  0  0  0
 11 12  2  0  0  0
 12 13  1  0  0  0
 13 14  2  0  0  0
 14 15  1  0  0  0
 19 22  1  0  0  0
 22 23  1  0  0  0
 23 24  2  0  0  0
 24 25  1  0  0  0
 25 26  2  0  0  0
 26 27  1  0  0  0
 27 28  2  0  0  0
 28 21  1  0  0  0
  6  1  1  0  0  0
 15  7  1  0  0  0
 28 23  1  0  0  0
 14  9  1  0  0  0
 15 16  1  0  0  0
M  END
> <minimizedAffinity>
-8.84395

> <CNNscore>
0.1476359367

> <CNNaffinity>
5.7585382462

> <CNN_VS>
0.8501672149

> <CNNaffinity_variance>
0.2660933137

$$$$
[H]C1=C(c2c([H])c3c([H])c([H])c([H])c([H])c3n2[H])C([H])([H])C([H])([H])C([H])([H])[C@@]1([H])O[C@@]1([H])c2c([H])c([H])c([H])c([H])c2O[C@@]([H])(C([H])([H])[H])C1([H])[H]


 28 32  0  0  0  0  0  0  0  0999 V2000
  -87.0899   27.6012    0.4253 C   0  0  0  0  0  0  0  0  0  0  0  0
  -85.6895   27.8354    1.0037 C   0  0  0  0  0  0  0  0  0  0  0  0
  -85.7498   29.1383    1.7339 C   0  0  0  0  0  0  0  0  0  0  0  0
  -86.3875   30.2517    0.9854 C   0  0  0  0  0  0  0  0  0  0  0  0
  -86.9691   29.8900   -0.3230 C   0  0  0  0  0  0  0  0  0  0  0  0
  -87.2999   28.6493   -0.5893 C   0  0  0  0  0  0  0  0  0  0  0  0
  -87.1721   30.9613   -1.3334 C   0  0  0  0  0  0  0  0  0  0  0  0
  -87.7471   30.8194   -2.5778 C   0  0  0  0  0  0  0  0  0  0  0  0
  -87.7461   32.0570   -3.2045 C   0  0  0  0  0  0  0  0  0  0  0  0
  -88.1953   32.4880   -4.4497 C   0  0  0  0  0  0  0  0  0  0  0  0
  -88.0498   33.8089   -4.7871 C   0  0  0  0  0  0  0  0  0  0  0  0
  -87.4651   34.6939   -3.8996 C   0  0  0  0  0  0  0  0  0  0  0  0
  -87.0220   34.2657   -2.6696 C   0  0  0  0  0  0  0  0  0  0  0  0
  -87.1556   32.9456   -2.3055 C   0  0  0  0  0  0  0  0  0  0  0  0
  -86.8348   32.2468   -1.2153 N   0  0  0  0  0  0  0  0  0  0  0  0
  -86.3699   32.6506   -0.3572 H   0  0  0  0  0  0  0  0  0  0  0  0
  -88.0771   27.7219    1.3938 O   0  0  0  0  0  0  0  0  0  0  0  0
  -91.1526   29.1229    0.2938 C   0  0  0  0  0  0  0  0  0  0  0  0
  -91.0616   27.8937    1.1834 C   0  0  0  0  0  0  0  0  0  0  0  0
  -90.1355   26.8760    0.6032 C   0  0  0  0  0  0  0  0  0  0  0  0
  -88.9163   26.6151    1.4259 C   0  0  0  0  0  0  0  0  0  0  0  0
  -90.7036   28.2373    2.4989 O   0  0  0  0  0  0  0  0  0  0  0  0
  -90.2401   27.2770    3.3659 C   0  0  0  0  0  0  0  0  0  0  0  0
  -90.6038   27.0928    4.6727 C   0  0  0  0  0  0  0  0  0  0  0  0
  -90.0642   26.0814    5.4595 C   0  0  0  0  0  0  0  0  0  0  0  0
  -89.1288   25.2112    4.9483 C   0  0  0  0  0  0  0  0  0  0  0  0
  -88.7477   25.3811    3.6279 C   0  0  0  0  0  0  0  0  0  0  0  0
  -89.2847   26.3818    2.8575 C   0  0  0  0  0  0  0  0  0  0  0  0
 18 19  1  0  0  0
 19 20  1  0  0  0
 20 21  1  0  0  0
 21 17  1  0  0  0
 17  1  1  0  0  0
  1  2  1  0  0  0
  2  3  1  0  0  0
  3  4  1  0  0  0
  4  5  1  0  0  0
  5  6  2  0  0  0
  5  7  1  0  0  0
  7  8  2  0  0  0
  8  9  1  0  0  0
  9 10  2  0  0  0
 10 11  1  0  0  0
 11 12  2  0  0  0
 12 13  1  0  0  0
 13 14  2  0  0  0
 14 15  1  0  0  0
 19 22  1  0  0  0
 22 23  1  0  0  0
 23 24  2  0  0  0
 24 25  1  0  0  0
 25 26  2  0  0  0
 26 27  1  0  0  0
 27 28  2  0  0  0
 28 21  1  0  0  0
  6  1  1  0  0  0
 15  7  1  0  0  0
 28 23  1  0  0  0
 14  9  1  0  0  0
 15 16  1  0  0  0
M  END
> <minimizedAffinity>
-8.25660

> <CNNscore>
0.1454214007

> <CNNaffinity>
5.8764257431

> <CNN_VS>
0.8545580506

> <CNNaffinity_variance>
0.2099570334

$$$$
[H]c1nc([H])c([H])c(N2C([H])([H])C([H])([H])N(S(=O)(=O)c3c([H])c([H])c(Cl)c(Cl)c3[H])C([H])([H])C2([H])[H])c1[H]


 23 25  0  0  0  0  0  0  0  0999 V2000
  -87.8464   32.5278   -1.6065 N   0  0  0  0  0  0  0  0  0  0  0  0
  -89.1290   33.1552   -1.7888 C   0  0  0  0  0  0  0  0  0  0  0  0
  -89.1625   34.2739   -2.7676 C   0  0  0  0  0  0  0  0  0  0  0  0
  -87.8715   34.7060   -3.2564 N   0  0  0  0  0  0  0  0  0  0  0  0
  -86.7093   33.8039   -3.2358 C   0  0  0  0  0  0  0  0  0  0  0  0
  -87.2588   32.4212   -2.9480 C   0  0  0  0  0  0  0  0  0  0  0  0
  -87.6824   36.0147   -3.7773 C   0  0  0  0  0  0  0  0  0  0  0  0
  -86.9276   36.2102   -4.9114 C   0  0  0  0  0  0  0  0  0  0  0  0
  -86.7256   37.4844   -5.4498 C   0  0  0  0  0  0  0  0  0  0  0  0
  -87.2664   38.5497   -4.8684 N   0  0  0  0  0  0  0  0  0  0  0  0
  -88.0050   38.3895   -3.7647 C   0  0  0  0  0  0  0  0  0  0  0  0
  -88.2275   37.1349   -3.2004 C   0  0  0  0  0  0  0  0  0  0  0  0
  -87.9665   30.9322   -0.9918 S   0  0  0  0  0  0  0  0  0  0  0  0
  -89.1673   30.7565   -0.1087 O   0  0  0  0  0  0  0  0  0  0  0  0
  -88.1539   30.0057   -2.1739 O   0  0  0  0  0  0  0  0  0  0  0  0
  -82.7281   29.1840    2.0591 Cl  0  0  0  0  0  0  0  0  0  0  0  0
  -84.1989   29.6626    1.2072 C   0  0  0  0  0  0  0  0  0  0  0  0
  -85.2502   28.7845    1.0647 C   0  0  0  0  0  0  0  0  0  0  0  0
  -86.3991   29.1712    0.3943 C   0  0  0  0  0  0  0  0  0  0  0  0
  -86.5416   30.4205   -0.1482 C   0  0  0  0  0  0  0  0  0  0  0  0
  -85.4979   31.3080   -0.0128 C   0  0  0  0  0  0  0  0  0  0  0  0
  -84.3376   30.9208    0.6630 C   0  0  0  0  0  0  0  0  0  0  0  0
  -83.0113   32.0636    0.8294 Cl  0  0  0  0  0  0  0  0  0  0  0  0
 16 17  1  0  0  0
 17 18  2  0  0  0
 18 19  1  0  0  0
 19 20  2  0  0  0
 20 21  1  0  0  0
 21 22  2  0  0  0
 22 23  1  0  0  0
 20 13  1  0  0  0
 13 14  2  0  0  0
 13 15  2  0  0  0
 13  1  1  0  0  0
  1  2  1  0  0  0
  2  3  1  0  0  0
  3  4  1  0  0  0
  4  5  1  0  0  0
  5  6  1  0  0  0
  4  7  1  0  0  0
  7  8  2  0  0  0
  8  9  1  0  0  0
  9 10  2  0  0  0
 10 11  1  0  0  0
 11 12  2  0  0  0
 22 17  1  0  0  0
  6  1  1  0  0  0
 12  7  1  0  0  0
M  END
> <minimizedAffinity>
-7.75411

> <CNNscore>
0.5712918639

> <CNNaffinity>
6.2388677597

> <CNN_VS>
3.5642144680

> <CNNaffinity_variance>
0.0684619993

$$$$
[H]c1nc([H])c([H])c(N2C([H])([H])C([H])([H])N(S(=O)(=O)c3c([H])c([H])c(Cl)c(Cl)c3[H])C([H])([H])C2([H])[H])c1[H]


 23 25  0  0  0  0  0  0  0  0999 V2000
  -86.7512   32.9360   -2.1114 N   0  0  0  0  0  0  0  0  0  0  0  0
  -86.5506   33.9964   -3.0638 C   0  0  0  0  0  0  0  0  0  0  0  0
  -87.7593   34.4153   -3.8214 C   0  0  0  0  0  0  0  0  0  0  0  0
  -88.9232   33.5755   -3.6414 N   0  0  0  0  0  0  0  0  0  0  0  0
  -89.0818   32.7426   -2.4389 C   0  0  0  0  0  0  0  0  0  0  0  0
  -88.0334   33.2239   -1.4561 C   0  0  0  0  0  0  0  0  0  0  0  0
  -89.9552   33.5293   -4.6174 C   0  0  0  0  0  0  0  0  0  0  0  0
  -91.0635   32.7372   -4.4217 C   0  0  0  0  0  0  0  0  0  0  0  0
  -92.0965   32.6725   -5.3614 C   0  0  0  0  0  0  0  0  0  0  0  0
  -92.0284   33.3855   -6.4805 N   0  0  0  0  0  0  0  0  0  0  0  0
  -90.9628   34.1644   -6.6972 C   0  0  0  0  0  0  0  0  0  0  0  0
  -89.9148   34.2536   -5.7830 C   0  0  0  0  0  0  0  0  0  0  0  0
  -85.5606   32.9135   -0.8785 S   0  0  0  0  0  0  0  0  0  0  0  0
  -84.2099   33.3208   -1.3908 O   0  0  0  0  0  0  0  0  0  0  0  0
  -85.9635   33.9412    0.1571 O   0  0  0  0  0  0  0  0  0  0  0  0
  -85.0120   27.3644    2.0729 Cl  0  0  0  0  0  0  0  0  0  0  0  0
  -85.1767   28.9149    1.2442 C   0  0  0  0  0  0  0  0  0  0  0  0
  -86.3647   29.2741    0.6472 C   0  0  0  0  0  0  0  0  0  0  0  0
  -86.4821   30.4931   -0.0001 C   0  0  0  0  0  0  0  0  0  0  0  0
  -85.4430   31.3819   -0.0759 C   0  0  0  0  0  0  0  0  0  0  0  0
  -84.2498   31.0350    0.5167 C   0  0  0  0  0  0  0  0  0  0  0  0
  -84.1284   29.8059    1.1705 C   0  0  0  0  0  0  0  0  0  0  0  0
  -82.5989   29.3742    1.9239 Cl  0  0  0  0  0  0  0  0  0  0  0  0
 16 17  1  0  0  0
 17 18  2  0  0  0
 18 19  1  0  0  0
 19 20  2  0  0  0
 20 21  1  0  0  0
 21 22  2  0  0  0
 22 23  1  0  0  0
 20 13  1  0  0  0
 13 14  2  0  0  0
 13 15  2  0  0  0
 13  1  1  0  0  0
  1  2  1  0  0  0
  2  3  1  0  0  0
  3  4  1  0  0  0
  4  5  1  0  0  0
  5  6  1  0  0  0
  4  7  1  0  0  0
  7  8  2  0  0  0
  8  9  1  0  0  0
  9 10  2  0  0  0
 10 11  1  0  0  0
 11 12  2  0  0  0
 22 17  1  0  0  0
  6  1  1  0  0  0
 12  7  1  0  0  0
M  END
> <minimizedAffinity>
-7.39752

> <CNNscore>
0.3587487638

> <CNNaffinity>
5.7626352310

> <CNN_VS>
2.0673382282

> <CNNaffinity_variance>
0.2077726573

$$$$
[H]c1nc([H])c([H])c(N2C([H])([H])C([H])([H])N(S(=O)(=O)c3c([H])c([H])c(Cl)c(Cl)c3[H])C([H])([H])C2([H])[H])c1[H]


 23 25  0  0  0  0  0  0  0  0999 V2000
  -87.5425   28.1785    0.2470 N   0  0  0  0  0  0  0  0  0  0  0  0
  -86.3964   28.1138    1.1155 C   0  0  0  0  0  0  0  0  0  0  0  0
  -85.6151   29.3724    1.2413 C   0  0  0  0  0  0  0  0  0  0  0  0
  -85.9952   30.4293    0.3297 N   0  0  0  0  0  0  0  0  0  0  0  0
  -87.3409   30.4752   -0.2632 C   0  0  0  0  0  0  0  0  0  0  0  0
  -88.1745   29.4767    0.5145 C   0  0  0  0  0  0  0  0  0  0  0  0
  -85.0834   31.4616   -0.0208 C   0  0  0  0  0  0  0  0  0  0  0  0
  -85.5421   32.6418   -0.5603 C   0  0  0  0  0  0  0  0  0  0  0  0
  -84.6710   33.6769   -0.9127 C   0  0  0  0  0  0  0  0  0  0  0  0
  -83.3618   33.5403   -0.7313 N   0  0  0  0  0  0  0  0  0  0  0  0
  -82.8878   32.4040   -0.2087 C   0  0  0  0  0  0  0  0  0  0  0  0
  -83.7262   31.3516    0.1541 C   0  0  0  0  0  0  0  0  0  0  0  0
  -88.7138   26.9774    0.5987 S   0  0  0  0  0  0  0  0  0  0  0  0
  -90.0018   27.2132   -0.1349 O   0  0  0  0  0  0  0  0  0  0  0  0
  -88.1663   25.6549    0.1067 O   0  0  0  0  0  0  0  0  0  0  0  0
  -89.8111   26.2640    6.7705 Cl  0  0  0  0  0  0  0  0  0  0  0  0
  -89.5089   26.4744    5.0436 C   0  0  0  0  0  0  0  0  0  0  0  0
  -89.8787   27.6332    4.3977 C   0  0  0  0  0  0  0  0  0  0  0  0
  -89.6365   27.7869    3.0426 C   0  0  0  0  0  0  0  0  0  0  0  0
  -89.0297   26.8131    2.2949 C   0  0  0  0  0  0  0  0  0  0  0  0
  -88.6551   25.6497    2.9284 C   0  0  0  0  0  0  0  0  0  0  0  0
  -88.8981   25.4917    4.2954 C   0  0  0  0  0  0  0  0  0  0  0  0
  -88.4147   24.0009    5.0934 Cl  0  0  0  0  0  0  0  0  0  0  0  0
 16 17  1  0  0  0
 17 18  2  0  0  0
 18 19  1  0  0  0
 19 20  2  0  0  0
 20 21  1  0  0  0
 21 22  2  0  0  0
 22 23  1  0  0  0
 20 13  1  0  0  0
 13 14  2  0  0  0
 13 15  2  0  0  0
 13  1  1  0  0  0
  1  2  1  0  0  0
  2  3  1  0  0  0
  3  4  1  0  0  0
  4  5  1  0  0  0
  5  6  1  0  0  0
  4  7  1  0  0  0
  7  8  2  0  0  0
  8  9  1  0  0  0
  9 10  2  0  0  0
 10 11  1  0  0  0
 11 12  2  0  0  0
 22 17  1  0  0  0
  6  1  1  0  0  0
 12  7  1  0  0  0
M  END
> <minimizedAffinity>
-6.66315

> <CNNscore>
0.3329482973

> <CNNaffinity>
6.1528458595

> <CNN_VS>
2.0485794544

> <CNNaffinity_variance>
0.0538824275

$$$$
[H]c1nc([H])c([H])c(N2C([H])([H])C([H])([H])N(S(=O)(=O)c3c([H])c([H])c(Cl)c(Cl)c3[H])C([H])([H])C2([H])[H])c1[H]


 23 25  0  0  0  0  0  0  0  0999 V2000
  -86.6430   32.4599   -1.6963 N   0  0  0  0  0  0  0  0  0  0  0  0
  -86.6208   33.1258   -2.9723 C   0  0  0  0  0  0  0  0  0  0  0  0
  -87.9355   33.2449   -3.6565 C   0  0  0  0  0  0  0  0  0  0  0  0
  -89.0198   32.5093   -3.0437 N   0  0  0  0  0  0  0  0  0  0  0  0
  -88.9818   32.1440   -1.6190 C   0  0  0  0  0  0  0  0  0  0  0  0
  -87.8480   32.9459   -1.0122 C   0  0  0  0  0  0  0  0  0  0  0  0
  -90.1606   32.1181   -3.7956 C   0  0  0  0  0  0  0  0  0  0  0  0
  -90.8999   33.0570   -4.4781 C   0  0  0  0  0  0  0  0  0  0  0  0
  -92.0252   32.7035   -5.2286 C   0  0  0  0  0  0  0  0  0  0  0  0
  -92.4102   31.4337   -5.2992 N   0  0  0  0  0  0  0  0  0  0  0  0
  -91.7104   30.4996   -4.6459 C   0  0  0  0  0  0  0  0  0  0  0  0
  -90.5839   30.8154   -3.8886 C   0  0  0  0  0  0  0  0  0  0  0  0
  -85.3093   32.8774   -0.7037 S   0  0  0  0  0  0  0  0  0  0  0  0
  -84.1872   33.4864   -1.4927 O   0  0  0  0  0  0  0  0  0  0  0  0
  -85.7841   33.9353    0.2691 O   0  0  0  0  0  0  0  0  0  0  0  0
  -83.2468   27.9638    2.6739 Cl  0  0  0  0  0  0  0  0  0  0  0  0
  -83.8135   29.3441    1.7295 C   0  0  0  0  0  0  0  0  0  0  0  0
  -82.9759   30.4015    1.4515 C   0  0  0  0  0  0  0  0  0  0  0  0
  -83.4316   31.4789    0.7097 C   0  0  0  0  0  0  0  0  0  0  0  0
  -84.7116   31.5430    0.2269 C   0  0  0  0  0  0  0  0  0  0  0  0
  -85.5591   30.4925    0.4978 C   0  0  0  0  0  0  0  0  0  0  0  0
  -85.1022   29.4042    1.2459 C   0  0  0  0  0  0  0  0  0  0  0  0
  -86.1944   28.0681    1.5853 Cl  0  0  0  0  0  0  0  0  0  0  0  0
 16 17  1  0  0  0
 17 18  2  0  0  0
 18 19  1  0  0  0
 19 20  2  0  0  0
 20 21  1  0  0  0
 21 22  2  0  0  0
 22 23  1  0  0  0
 20 13  1  0  0  0
 13 14  2  0  0  0
 13 15  2  0  0  0
 13  1  1  0  0  0
  1  2  1  0  0  0
  2  3  1  0  0  0
  3  4  1  0  0  0
  4  5  1  0  0  0
  5  6  1  0  0  0
  4  7  1  0  0  0
  7  8  2  0  0  0
  8  9  1  0  0  0
  9 10  2  0  0  0
 10 11  1  0  0  0
 11 12  2  0  0  0
 22 17  1  0  0  0
  6  1  1  0  0  0
 12  7  1  0  0  0
M  END
> <minimizedAffinity>
-7.57493

> <CNNscore>
0.3305433989

> <CNNaffinity>
5.8786511421

> <CNN_VS>
1.9431493282

> <CNNaffinity_variance>
0.2235147953

$$$$
[H]c1nc([H])c([H])c(N2C([H])([H])C([H])([H])N(S(=O)(=O)c3c([H])c([H])c(Cl)c(Cl)c3[H])C([H])([H])C2([H])[H])c1[H]


 23 25  0  0  0  0  0  0  0  0999 V2000
  -88.5894   27.9114    0.1735 N   0  0  0  0  0  0  0  0  0  0  0  0
  -89.9110   27.4934    0.5615 C   0  0  0  0  0  0  0  0  0  0  0  0
  -90.8358   27.1705   -0.5570 C   0  0  0  0  0  0  0  0  0  0  0  0
  -90.3487   27.5045   -1.8774 N   0  0  0  0  0  0  0  0  0  0  0  0
  -88.9077   27.6254   -2.1487 C   0  0  0  0  0  0  0  0  0  0  0  0
  -88.2046   27.0374   -0.9419 C   0  0  0  0  0  0  0  0  0  0  0  0
  -91.2449   27.7229   -2.9586 C   0  0  0  0  0  0  0  0  0  0  0  0
  -91.7243   26.6607   -3.6908 C   0  0  0  0  0  0  0  0  0  0  0  0
  -92.6089   26.8425   -4.7579 C   0  0  0  0  0  0  0  0  0  0  0  0
  -93.0112   28.0639   -5.0925 N   0  0  0  0  0  0  0  0  0  0  0  0
  -92.5614   29.1150   -4.3983 C   0  0  0  0  0  0  0  0  0  0  0  0
  -91.6793   28.9714   -3.3291 C   0  0  0  0  0  0  0  0  0  0  0  0
  -87.4259   27.6752    1.4100 S   0  0  0  0  0  0  0  0  0  0  0  0
  -88.0315   27.7692    2.7801 O   0  0  0  0  0  0  0  0  0  0  0  0
  -86.8914   26.2668    1.2641 O   0  0  0  0  0  0  0  0  0  0  0  0
  -82.5965   31.7044    0.9130 Cl  0  0  0  0  0  0  0  0  0  0  0  0
  -83.9413   30.5693    1.0581 C   0  0  0  0  0  0  0  0  0  0  0  0
  -83.7875   29.3733    1.7234 C   0  0  0  0  0  0  0  0  0  0  0  0
  -84.8497   28.4907    1.8309 C   0  0  0  0  0  0  0  0  0  0  0  0
  -86.0793   28.7598    1.2914 C   0  0  0  0  0  0  0  0  0  0  0  0
  -86.2464   29.9520    0.6236 C   0  0  0  0  0  0  0  0  0  0  0  0
  -85.1766   30.8445    0.5136 C   0  0  0  0  0  0  0  0  0  0  0  0
  -85.4027   32.3645   -0.3418 Cl  0  0  0  0  0  0  0  0  0  0  0  0
 16 17  1  0  0  0
 17 18  2  0  0  0
 18 19  1  0  0  0
 19 20  2  0  0  0
 20 21  1  0  0  0
 21 22  2  0  0  0
 22 23  1  0  0  0
 20 13  1  0  0  0
 13 14  2  0  0  0
 13 15  2  0  0  0
 13  1  1  0  0  0
  1  2  1  0  0  0
  2  3  1  0  0  0
  3  4  1  0  0  0
  4  5  1  0  0  0
  5  6  1  0  0  0
  4  7  1  0  0  0
  7  8  2  0  0  0
  8  9  1  0  0  0
  9 10  2  0  0  0
 10 11  1  0  0  0
 11 12  2  0  0  0
 22 17  1  0  0  0
  6  1  1  0  0  0
 12  7  1  0  0  0
M  END
> <minimizedAffinity>
-7.19928

> <CNNscore>
0.3284193873

> <CNNaffinity>
5.7971601486

> <CNN_VS>
1.9038997889

> <CNNaffinity_variance>
0.0812764615

$$$$
[H]c1nc([H])c([H])c(N2C([H])([H])C([H])([H])N(S(=O)(=O)c3c([H])c([H])c(Cl)c(Cl)c3[H])C([H])([H])C2([H])[H])c1[H]


 23 25  0  0  0  0  0  0  0  0999 V2000
  -86.8422   27.5247    0.9730 N   0  0  0  0  0  0  0  0  0  0  0  0
  -87.1676   27.6146   -0.4263 C   0  0  0  0  0  0  0  0  0  0  0  0
  -88.3425   26.8158   -0.8643 C   0  0  0  0  0  0  0  0  0  0  0  0
  -88.8782   25.9097    0.1279 N   0  0  0  0  0  0  0  0  0  0  0  0
  -88.6615   26.1405    1.5647 C   0  0  0  0  0  0  0  0  0  0  0  0
  -88.1262   27.5532    1.6849 C   0  0  0  0  0  0  0  0  0  0  0  0
  -89.6355   24.7683   -0.2507 C   0  0  0  0  0  0  0  0  0  0  0  0
  -89.8114   24.4593   -1.5803 C   0  0  0  0  0  0  0  0  0  0  0  0
  -90.5483   23.3423   -1.9846 C   0  0  0  0  0  0  0  0  0  0  0  0
  -91.1030   22.5434   -1.0792 N   0  0  0  0  0  0  0  0  0  0  0  0
  -90.9484   22.8193    0.2204 C   0  0  0  0  0  0  0  0  0  0  0  0
  -90.2207   23.9237    0.6597 C   0  0  0  0  0  0  0  0  0  0  0  0
  -85.9365   28.8674    1.5341 S   0  0  0  0  0  0  0  0  0  0  0  0
  -86.2126   29.1708    2.9779 O   0  0  0  0  0  0  0  0  0  0  0  0
  -84.4723   28.4966    1.4377 O   0  0  0  0  0  0  0  0  0  0  0  0
  -86.6903   34.0921   -1.9212 Cl  0  0  0  0  0  0  0  0  0  0  0  0
  -86.4908   32.6273   -0.9555 C   0  0  0  0  0  0  0  0  0  0  0  0
  -87.5589   31.7942   -0.7067 C   0  0  0  0  0  0  0  0  0  0  0  0
  -87.3903   30.6478    0.0523 C   0  0  0  0  0  0  0  0  0  0  0  0
  -86.1774   30.2950    0.5813 C   0  0  0  0  0  0  0  0  0  0  0  0
  -85.1015   31.1193    0.3402 C   0  0  0  0  0  0  0  0  0  0  0  0
  -85.2685   32.2765   -0.4253 C   0  0  0  0  0  0  0  0  0  0  0  0
  -83.8862   33.3214   -0.7265 Cl  0  0  0  0  0  0  0  0  0  0  0  0
 16 17  1  0  0  0
 17 18  2  0  0  0
 18 19  1  0  0  0
 19 20  2  0  0  0
 20 21  1  0  0  0
 21 22  2  0  0  0
 22 23  1  0  0  0
 20 13  1  0  0  0
 13 14  2  0  0  0
 13 15  2  0  0  0
 13  1  1  0  0  0
  1  2  1  0  0  0
  2  3  1  0  0  0
  3  4  1  0  0  0
  4  5  1  0  0  0
  5  6  1  0  0  0
  4  7  1  0  0  0
  7  8  2  0  0  0
  8  9  1  0  0  0
  9 10  2  0  0  0
 10 11  1  0  0  0
 11 12  2  0  0  0
 22 17  1  0  0  0
  6  1  1  0  0  0
 12  7  1  0  0  0
M  END
> <minimizedAffinity>
-7.00138

> <CNNscore>
0.2961742580

> <CNNaffinity>
5.8700056076

> <CNN_VS>
1.7385445833

> <CNNaffinity_variance>
0.1081996933

$$$$
[H]c1nc([H])c([H])c(N2C([H])([H])C([H])([H])N(S(=O)(=O)c3c([H])c([H])c(Cl)c(Cl)c3[H])C([H])([H])C2([H])[H])c1[H]


 23 25  0  0  0  0  0  0  0  0999 V2000
  -89.0261   28.9592    0.0380 N   0  0  0  0  0  0  0  0  0  0  0  0
  -88.8796   27.8200   -0.8296 C   0  0  0  0  0  0  0  0  0  0  0  0
  -89.7087   26.6365   -0.4797 C   0  0  0  0  0  0  0  0  0  0  0  0
  -90.3994   26.7191    0.7885 N   0  0  0  0  0  0  0  0  0  0  0  0
  -90.7079   28.0196    1.4035 C   0  0  0  0  0  0  0  0  0  0  0  0
  -90.4620   29.0590    0.3283 C   0  0  0  0  0  0  0  0  0  0  0  0
  -90.8075   25.5475    1.4817 C   0  0  0  0  0  0  0  0  0  0  0  0
  -90.5402   25.4042    2.8241 C   0  0  0  0  0  0  0  0  0  0  0  0
  -90.9309   24.2653    3.5345 C   0  0  0  0  0  0  0  0  0  0  0  0
  -91.5785   23.2822    2.9183 N   0  0  0  0  0  0  0  0  0  0  0  0
  -91.8519   23.3944    1.6138 C   0  0  0  0  0  0  0  0  0  0  0  0
  -91.4778   24.5148    0.8743 C   0  0  0  0  0  0  0  0  0  0  0  0
  -88.5705   30.4314   -0.7127 S   0  0  0  0  0  0  0  0  0  0  0  0
  -88.7076   30.3695   -2.2060 O   0  0  0  0  0  0  0  0  0  0  0  0
  -89.5278   31.4996   -0.2297 O   0  0  0  0  0  0  0  0  0  0  0  0
  -82.7141   32.1675    0.8663 Cl  0  0  0  0  0  0  0  0  0  0  0  0
  -84.3549   31.6921    0.4192 C   0  0  0  0  0  0  0  0  0  0  0  0
  -85.1754   32.5530   -0.2754 C   0  0  0  0  0  0  0  0  0  0  0  0
  -86.4607   32.1690   -0.6206 C   0  0  0  0  0  0  0  0  0  0  0  0
  -86.9672   30.9392   -0.2942 C   0  0  0  0  0  0  0  0  0  0  0  0
  -86.1573   30.0691    0.4002 C   0  0  0  0  0  0  0  0  0  0  0  0
  -84.8601   30.4537    0.7499 C   0  0  0  0  0  0  0  0  0  0  0  0
  -83.8351   29.3331    1.6369 Cl  0  0  0  0  0  0  0  0  0  0  0  0
 16 17  1  0  0  0
 17 18  2  0  0  0
 18 19  1  0  0  0
 19 20  2  0  0  0
 20 21  1  0  0  0
 21 22  2  0  0  0
 22 23  1  0  0  0
 20 13  1  0  0  0
 13 14  2  0  0  0
 13 15  2  0  0  0
 13  1  1  0  0  0
  1  2  1  0  0  0
  2  3  1  0  0  0
  3  4  1  0  0  0
  4  5  1  0  0  0
  5  6  1  0  0  0
  4  7  1  0  0  0
  7  8  2  0  0  0
  8  9  1  0  0  0
  9 10  2  0  0  0
 10 11  1  0  0  0
 11 12  2  0  0  0
 22 17  1  0  0  0
  6  1  1  0  0  0
 12  7  1  0  0  0
M  END
> <minimizedAffinity>
-7.75699

> <CNNscore>
0.2785242796

> <CNNaffinity>
5.8655271530

> <CNN_VS>
1.6336916685

> <CNNaffinity_variance>
0.0700404570

$$$$
[H]c1nc([H])c([H])c(N2C([H])([H])C([H])([H])N(S(=O)(=O)c3c([H])c([H])c(Cl)c(Cl)c3[H])C([H])([H])C2([H])[H])c1[H]


 23 25  0  0  0  0  0  0  0  0999 V2000
  -88.9117   26.8827    0.2950 N   0  0  0  0  0  0  0  0  0  0  0  0
  -89.5881   25.7674    0.9038 C   0  0  0  0  0  0  0  0  0  0  0  0
  -90.2874   24.8510   -0.0353 C   0  0  0  0  0  0  0  0  0  0  0  0
  -90.3580   25.3073   -1.4061 N   0  0  0  0  0  0  0  0  0  0  0  0
  -89.3848   26.2745   -1.9371 C   0  0  0  0  0  0  0  0  0  0  0  0
  -88.2698   26.3501   -0.9135 C   0  0  0  0  0  0  0  0  0  0  0  0
  -91.3669   24.8338   -2.2880 C   0  0  0  0  0  0  0  0  0  0  0  0
  -91.5842   23.4828   -2.4358 C   0  0  0  0  0  0  0  0  0  0  0  0
  -92.5705   22.9860   -3.2930 C   0  0  0  0  0  0  0  0  0  0  0  0
  -93.3302   23.8210   -3.9937 N   0  0  0  0  0  0  0  0  0  0  0  0
  -93.1413   25.1394   -3.8698 C   0  0  0  0  0  0  0  0  0  0  0  0
  -92.1681   25.6700   -3.0253 C   0  0  0  0  0  0  0  0  0  0  0  0
  -87.6610   27.5208    1.2782 S   0  0  0  0  0  0  0  0  0  0  0  0
  -88.0731   27.6272    2.7174 O   0  0  0  0  0  0  0  0  0  0  0  0
  -86.5038   26.5467    1.2256 O   0  0  0  0  0  0  0  0  0  0  0  0
  -85.4286   33.0884   -0.6770 Cl  0  0  0  0  0  0  0  0  0  0  0  0
  -86.0633   31.5321   -0.1359 C   0  0  0  0  0  0  0  0  0  0  0  0
  -87.3089   31.1001   -0.5341 C   0  0  0  0  0  0  0  0  0  0  0  0
  -87.7964   29.8772   -0.1032 C   0  0  0  0  0  0  0  0  0  0  0  0
  -87.0772   29.0554    0.7232 C   0  0  0  0  0  0  0  0  0  0  0  0
  -85.8305   29.4755    1.1288 C   0  0  0  0  0  0  0  0  0  0  0  0
  -85.3360   30.7087    0.6956 C   0  0  0  0  0  0  0  0  0  0  0  0
  -83.7418   31.2340    1.2205 Cl  0  0  0  0  0  0  0  0  0  0  0  0
 16 17  1  0  0  0
 17 18  2  0  0  0
 18 19  1  0  0  0
 19 20  2  0  0  0
 20 21  1  0  0  0
 21 22  2  0  0  0
 22 23  1  0  0  0
 20 13  1  0  0  0
 13 14  2  0  0  0
 13 15  2  0  0  0
 13  1  1  0  0  0
  1  2  1  0  0  0
  2  3  1  0  0  0
  3  4  1  0  0  0
  4  5  1  0  0  0
  5  6  1  0  0  0
  4  7  1  0  0  0
  7  8  2  0  0  0
  8  9  1  0  0  0
  9 10  2  0  0  0
 10 11  1  0  0  0
 11 12  2  0  0  0
 22 17  1  0  0  0
  6  1  1  0  0  0
 12  7  1  0  0  0
M  END
> <minimizedAffinity>
-6.85866

> <CNNscore>
0.2579257488

> <CNNaffinity>
5.6882715225

> <CNN_VS>
1.4671516418

> <CNNaffinity_variance>
0.0901682526

$$$$
[H]c1nc([H])c([H])c(N2C([H])([H])C([H])([H])N(S(=O)(=O)c3c([H])c([H])c(Cl)c(Cl)c3[H])C([H])([H])C2([H])[H])c1[H]


 23 25  0  0  0  0  0  0  0  0999 V2000
  -88.9563   28.9799   -1.0901 N   0  0  0  0  0  0  0  0  0  0  0  0
  -89.0926   28.4364   -2.4160 C   0  0  0  0  0  0  0  0  0  0  0  0
  -89.8299   27.1486   -2.5086 C   0  0  0  0  0  0  0  0  0  0  0  0
  -90.1392   26.5214   -1.2424 N   0  0  0  0  0  0  0  0  0  0  0  0
  -90.2233   27.3099   -0.0031 C   0  0  0  0  0  0  0  0  0  0  0  0
  -90.2516   28.7627   -0.4334 C   0  0  0  0  0  0  0  0  0  0  0  0
  -90.3767   25.1230   -1.1528 C   0  0  0  0  0  0  0  0  0  0  0  0
  -91.3192   24.5240   -1.9572 C   0  0  0  0  0  0  0  0  0  0  0  0
  -91.5738   23.1509   -1.8948 C   0  0  0  0  0  0  0  0  0  0  0  0
  -90.9007   22.3838   -1.0439 N   0  0  0  0  0  0  0  0  0  0  0  0
  -89.9786   22.9389   -0.2498 C   0  0  0  0  0  0  0  0  0  0  0  0
  -89.6984   24.3036   -0.2849 C   0  0  0  0  0  0  0  0  0  0  0  0
  -88.6795   30.6716   -1.0886 S   0  0  0  0  0  0  0  0  0  0  0  0
  -88.9139   31.2830   -2.4391 O   0  0  0  0  0  0  0  0  0  0  0  0
  -89.6876   31.2933   -0.1463 O   0  0  0  0  0  0  0  0  0  0  0  0
  -82.9150   32.1164    1.0299 Cl  0  0  0  0  0  0  0  0  0  0  0  0
  -84.5294   31.7229    0.4325 C   0  0  0  0  0  0  0  0  0  0  0  0
  -85.2756   32.6554   -0.2533 C   0  0  0  0  0  0  0  0  0  0  0  0
  -86.5410   32.3353   -0.7172 C   0  0  0  0  0  0  0  0  0  0  0  0
  -87.0995   31.1006   -0.5199 C   0  0  0  0  0  0  0  0  0  0  0  0
  -86.3640   30.1592    0.1642 C   0  0  0  0  0  0  0  0  0  0  0  0
  -85.0872   30.4792    0.6334 C   0  0  0  0  0  0  0  0  0  0  0  0
  -84.1574   29.2679    1.5060 Cl  0  0  0  0  0  0  0  0  0  0  0  0
 16 17  1  0  0  0
 17 18  2  0  0  0
 18 19  1  0  0  0
 19 20  2  0  0  0
 20 21  1  0  0  0
 21 22  2  0  0  0
 22 23  1  0  0  0
 20 13  1  0  0  0
 13 14  2  0  0  0
 13 15  2  0  0  0
 13  1  1  0  0  0
  1  2  1  0  0  0
  2  3  1  0  0  0
  3  4  1  0  0  0
  4  5  1  0  0  0
  5  6  1  0  0  0
  4  7  1  0  0  0
  7  8  2  0  0  0
  8  9  1  0  0  0
  9 10  2  0  0  0
 10 11  1  0  0  0
 11 12  2  0  0  0
 22 17  1  0  0  0
  6  1  1  0  0  0
 12  7  1  0  0  0
M  END
> <minimizedAffinity>
-7.19913

> <CNNscore>
0.2343401015

> <CNNaffinity>
5.6114478111

> <CNN_VS>
1.3149873018

> <CNNaffinity_variance>
0.1925907135

$$$$
[H]c1c([H])c([H])c(C([H])([H])C([H])([H])[H])c(N([H])c2nc(N([H])c3c([H])c([H])c(C(=O)N([H])c4c([H])c([H])c([H])c(C([H])([H])N([H])C([H])([H])C(F)(F)F)c4[H])c([H])c3[H])nc(N3C([H])([H])C([H])([H])N(C(=O)OC(C([H])([H])[H])(C([H])([H])[H])C([H])([H])[H])C([H])([H])C3([H])[H])n2)c1[H]


 55 59  0  0  0  0  0  0  0  0999 V2000
  -87.5257   30.4181   -1.1793 C   0  0  0  0  0  0  0  0  0  0  0  0
  -87.8276   31.7220   -1.4672 N   0  0  0  0  0  0  0  0  0  0  0  0
  -89.0418   32.0975   -1.7999 C   0  0  0  0  0  0  0  0  0  0  0  0
  -90.0085   31.1403   -1.8521 N   0  0  0  0  0  0  0  0  0  0  0  0
  -89.7852   29.8482   -1.5839 C   0  0  0  0  0  0  0  0  0  0  0  0
  -88.5228   29.5294   -1.2499 N   0  0  0  0  0  0  0  0  0  0  0  0
  -90.8176   28.8639   -1.6564 N   0  0  0  0  0  0  0  0  0  0  0  0
  -91.1302   28.1727   -2.8784 C   0  0  0  0  0  0  0  0  0  0  0  0
  -91.6795   26.8217   -2.6828 C   0  0  0  0  0  0  0  0  0  0  0  0
  -91.7378   26.2979   -1.3557 N   0  0  0  0  0  0  0  0  0  0  0  0
  -91.5628   27.0899   -0.1550 C   0  0  0  0  0  0  0  0  0  0  0  0
  -91.5712   28.5685   -0.4676 C   0  0  0  0  0  0  0  0  0  0  0  0
  -91.9871   24.9096   -1.1766 C   0  0  0  0  0  0  0  0  0  0  0  0
  -92.1462   24.1730   -2.1659 O   0  0  0  0  0  0  0  0  0  0  0  0
  -92.0599   24.3444    0.0807 O   0  0  0  0  0  0  0  0  0  0  0  0
  -91.1279   23.4647    0.6395 C   0  0  0  0  0  0  0  0  0  0  0  0
  -91.4622   22.0174    0.4899 C   0  0  0  0  0  0  0  0  0  0  0  0
  -89.7711   23.8028    0.0090 C   0  0  0  0  0  0  0  0  0  0  0  0
  -90.9727   23.7764    2.1283 C   0  0  0  0  0  0  0  0  0  0  0  0
  -86.1853   30.1462   -0.8279 N   0  0  0  0  0  0  0  0  0  0  0  0
  -85.4632   30.3081   -1.6096 H   0  0  0  0  0  0  0  0  0  0  0  0
  -84.6918   30.4823    1.0424 C   0  0  0  0  0  0  0  0  0  0  0  0
  -84.1656   30.0193    2.2154 C   0  0  0  0  0  0  0  0  0  0  0  0
  -84.5238   28.8133    2.7708 C   0  0  0  0  0  0  0  0  0  0  0  0
  -85.4427   28.0367    2.1334 C   0  0  0  0  0  0  0  0  0  0  0  0
  -85.9911   28.4959    0.9321 C   0  0  0  0  0  0  0  0  0  0  0  0
  -85.6344   29.6988    0.3770 C   0  0  0  0  0  0  0  0  0  0  0  0
  -82.8292   31.8497    0.1067 C   0  0  0  0  0  0  0  0  0  0  0  0
  -84.2678   31.7761    0.5078 C   0  0  0  0  0  0  0  0  0  0  0  0
  -89.4124   33.3933   -2.1067 N   0  0  0  0  0  0  0  0  0  0  0  0
  -90.1862   33.8431   -1.5366 H   0  0  0  0  0  0  0  0  0  0  0  0
  -88.8364   34.1908   -3.1335 C   0  0  0  0  0  0  0  0  0  0  0  0
  -87.9808   35.2397   -2.7548 C   0  0  0  0  0  0  0  0  0  0  0  0
  -87.3932   36.0115   -3.6976 C   0  0  0  0  0  0  0  0  0  0  0  0
  -87.5949   35.8189   -5.0549 C   0  0  0  0  0  0  0  0  0  0  0  0
  -88.4297   34.7929   -5.3946 C   0  0  0  0  0  0  0  0  0  0  0  0
  -89.0625   33.9640   -4.4608 C   0  0  0  0  0  0  0  0  0  0  0  0
  -86.9255   36.6894   -6.0548 C   0  0  0  0  0  0  0  0  0  0  0  0
  -87.0067   36.3071   -7.2210 O   0  0  0  0  0  0  0  0  0  0  0  0
  -86.2883   37.8235   -5.5773 N   0  0  0  0  0  0  0  0  0  0  0  0
  -86.2843   38.0470   -4.5271 H   0  0  0  0  0  0  0  0  0  0  0  0
  -85.5948   38.7708   -6.3581 C   0  0  0  0  0  0  0  0  0  0  0  0
  -86.0996   39.1367   -7.6192 C   0  0  0  0  0  0  0  0  0  0  0  0
  -85.4389   40.0626   -8.3623 C   0  0  0  0  0  0  0  0  0  0  0  0
  -84.2889   40.6570   -7.9235 C   0  0  0  0  0  0  0  0  0  0  0  0
  -83.7776   40.3174   -6.6989 C   0  0  0  0  0  0  0  0  0  0  0  0
  -84.4398   39.3714   -5.9226 C   0  0  0  0  0  0  0  0  0  0  0  0
  -82.5246   40.9225   -6.1654 C   0  0  0  0  0  0  0  0  0  0  0  0
  -81.4228   40.0883   -6.5207 N   0  0  0  0  0  0  0  0  0  0  0  0
  -81.6573   39.0648   -6.4881 H   0  0  0  0  0  0  0  0  0  0  0  0
  -80.1906   40.2692   -5.8644 C   0  0  0  0  0  0  0  0  0  0  0  0
  -79.9729   39.4515   -4.6439 C   0  0  0  0  0  0  0  0  0  0  0  0
  -79.3744   40.2483   -3.6362 F   0  0  0  0  0  0  0  0  0  0  0  0
  -79.1137   38.3959   -4.8537 F   0  0  0  0  0  0  0  0  0  0  0  0
  -81.1923   38.9987   -4.1681 F   0  0  0  0  0  0  0  0  0  0  0  0
 28 29  1  0  0  0
 29 22  1  0  0  0
 22 23  2  0  0  0
 23 24  1  0  0  0
 24 25  2  0  0  0
 25 26  1  0  0  0
 26 27  2  0  0  0
 27 20  1  0  0  0
 20  1  1  0  0  0
  1  2  2  0  0  0
  2  3  1  0  0  0
  3 30  1  0  0  0
 30 32  1  0  0  0
 32 33  2  0  0  0
 33 34  1  0  0  0
 34 35  2  0  0  0
 35 36  1  0  0  0
 36 37  2  0  0  0
 35 38  1  0  0  0
 38 39  2  0  0  0
 38 40  1  0  0  0
 40 42  1  0  0  0
 42 43  2  0  0  0
 43 44  1  0  0  0
 44 45  2  0  0  0
 45 46  1  0  0  0
 46 48  1  0  0  0
 48 49  1  0  0  0
 49 51  1  0  0  0
 51 52  1  0  0  0
 52 53  1  0  0  0
 52 54  1  0  0  0
 52 55  1  0  0  0
 46 47  2  0  0  0
  3  4  2  0  0  0
  4  5  1  0  0  0
  5  7  1  0  0  0
  7  8  1  0  0  0
  8  9  1  0  0  0
  9 10  1  0  0  0
 10 11  1  0  0  0
 11 12  1  0  0  0
 10 13  1  0  0  0
 13 14  2  0  0  0
 13 15  1  0  0  0
 15 16  1  0  0  0
 16 17  1  0  0  0
 16 18  1  0  0  0
 16 19  1  0  0  0
  5  6  2  0  0  0
 27 22  1  0  0  0
  6  1  1  0  0  0
 37 32  1  0  0  0
 47 42  1  0  0  0
 12  7  1  0  0  0
 20 21  1  0  0  0
 30 31  1  0  0  0
 40 41  1  0  0  0
 49 50  1  0  0  0
M  END
> <minimizedAffinity>
-9.02513

> <CNNscore>
0.1044835076

> <CNNaffinity>
6.9246854782

> <CNN_VS>
0.7235154510

> <CNNaffinity_variance>
0.3069242835

$$$$
[H]c1c([H])c([H])c(C([H])([H])C([H])([H])[H])c(N([H])c2nc(N([H])c3c([H])c([H])c(C(=O)N([H])c4c([H])c([H])c([H])c(C([H])([H])N([H])C([H])([H])C(F)(F)F)c4[H])c([H])c3[H])nc(N3C([H])([H])C([H])([H])N(C(=O)OC(C([H])([H])[H])(C([H])([H])[H])C([H])([H])[H])C([H])([H])C3([H])[H])n2)c1[H]


 55 59  0  0  0  0  0  0  0  0999 V2000
  -87.3052   30.9206   -0.4620 C   0  0  0  0  0  0  0  0  0  0  0  0
  -87.9131   31.8025   -1.3146 N   0  0  0  0  0  0  0  0  0  0  0  0
  -88.7692   31.4075   -2.2294 C   0  0  0  0  0  0  0  0  0  0  0  0
  -89.0408   30.0758   -2.3093 N   0  0  0  0  0  0  0  0  0  0  0  0
  -88.4841   29.1582   -1.5097 C   0  0  0  0  0  0  0  0  0  0  0  0
  -87.6175   29.6270   -0.5953 N   0  0  0  0  0  0  0  0  0  0  0  0
  -88.7809   27.7656   -1.6232 N   0  0  0  0  0  0  0  0  0  0  0  0
  -88.0081   26.7615   -0.9427 C   0  0  0  0  0  0  0  0  0  0  0  0
  -88.7632   25.5432   -0.6096 C   0  0  0  0  0  0  0  0  0  0  0  0
  -90.1659   25.5196   -0.8760 N   0  0  0  0  0  0  0  0  0  0  0  0
  -90.8580   26.4867   -1.7036 C   0  0  0  0  0  0  0  0  0  0  0  0
  -89.8826   27.3627   -2.4553 C   0  0  0  0  0  0  0  0  0  0  0  0
  -90.9552   24.4844   -0.3041 C   0  0  0  0  0  0  0  0  0  0  0  0
  -90.4232   23.6221    0.4170 O   0  0  0  0  0  0  0  0  0  0  0  0
  -92.3150   24.4045   -0.5280 O   0  0  0  0  0  0  0  0  0  0  0  0
  -92.9653   23.4247   -1.2841 C   0  0  0  0  0  0  0  0  0  0  0  0
  -94.3467   23.7834   -1.7222 C   0  0  0  0  0  0  0  0  0  0  0  0
  -92.0535   23.1131   -2.4776 C   0  0  0  0  0  0  0  0  0  0  0  0
  -93.0329   22.1287   -0.4756 C   0  0  0  0  0  0  0  0  0  0  0  0
  -86.4112   31.4731    0.4812 N   0  0  0  0  0  0  0  0  0  0  0  0
  -86.8711   32.0323    1.2777 H   0  0  0  0  0  0  0  0  0  0  0  0
  -84.4042   30.4852    1.3966 C   0  0  0  0  0  0  0  0  0  0  0  0
  -83.0394   30.4516    1.4532 C   0  0  0  0  0  0  0  0  0  0  0  0
  -82.2398   31.2932    0.7159 C   0  0  0  0  0  0  0  0  0  0  0  0
  -82.8217   32.2051   -0.1109 C   0  0  0  0  0  0  0  0  0  0  0  0
  -84.2173   32.2526   -0.1805 C   0  0  0  0  0  0  0  0  0  0  0  0
  -85.0160   31.4135    0.5545 C   0  0  0  0  0  0  0  0  0  0  0  0
  -84.6644   28.1627    2.2645 C   0  0  0  0  0  0  0  0  0  0  0  0
  -85.1955   29.5594    2.2068 C   0  0  0  0  0  0  0  0  0  0  0  0
  -89.4132   32.2428   -3.1228 N   0  0  0  0  0  0  0  0  0  0  0  0
  -90.3761   31.9617   -3.4690 H   0  0  0  0  0  0  0  0  0  0  0  0
  -88.8919   33.4670   -3.6243 C   0  0  0  0  0  0  0  0  0  0  0  0
  -88.9102   34.5895   -2.7784 C   0  0  0  0  0  0  0  0  0  0  0  0
  -88.4057   35.7699   -3.2047 C   0  0  0  0  0  0  0  0  0  0  0  0
  -87.8566   35.9376   -4.4659 C   0  0  0  0  0  0  0  0  0  0  0  0
  -87.8510   34.8311   -5.2663 C   0  0  0  0  0  0  0  0  0  0  0  0
  -88.3586   33.5865   -4.8756 C   0  0  0  0  0  0  0  0  0  0  0  0
  -87.3111   37.2523   -4.8897 C   0  0  0  0  0  0  0  0  0  0  0  0
  -88.1527   38.0949   -5.1969 O   0  0  0  0  0  0  0  0  0  0  0  0
  -85.9323   37.3905   -4.8957 N   0  0  0  0  0  0  0  0  0  0  0  0
  -85.2997   36.5722   -4.6076 H   0  0  0  0  0  0  0  0  0  0  0  0
  -85.2208   38.5495   -5.2675 C   0  0  0  0  0  0  0  0  0  0  0  0
  -84.1103   38.9585   -4.5069 C   0  0  0  0  0  0  0  0  0  0  0  0
  -83.4158   40.0660   -4.8772 C   0  0  0  0  0  0  0  0  0  0  0  0
  -83.7619   40.8047   -5.9740 C   0  0  0  0  0  0  0  0  0  0  0  0
  -84.8393   40.4268   -6.7307 C   0  0  0  0  0  0  0  0  0  0  0  0
  -85.5633   39.2952   -6.3680 C   0  0  0  0  0  0  0  0  0  0  0  0
  -85.2733   41.1922   -7.9335 C   0  0  0  0  0  0  0  0  0  0  0  0
  -85.5773   40.2714   -8.9802 N   0  0  0  0  0  0  0  0  0  0  0  0
  -84.8826   40.3028   -9.7675 H   0  0  0  0  0  0  0  0  0  0  0  0
  -86.8675   40.2803   -9.5435 C   0  0  0  0  0  0  0  0  0  0  0  0
  -87.4136   38.9603   -9.9496 C   0  0  0  0  0  0  0  0  0  0  0  0
  -87.1778   38.7510  -11.3313 F   0  0  0  0  0  0  0  0  0  0  0  0
  -88.7771   38.8704   -9.7790 F   0  0  0  0  0  0  0  0  0  0  0  0
  -86.7683   37.9574   -9.2453 F   0  0  0  0  0  0  0  0  0  0  0  0
 28 29  1  0  0  0
 29 22  1  0  0  0
 22 23  2  0  0  0
 23 24  1  0  0  0
 24 25  2  0  0  0
 25 26  1  0  0  0
 26 27  2  0  0  0
 27 20  1  0  0  0
 20  1  1  0  0  0
  1  2  2  0  0  0
  2  3  1  0  0  0
  3 30  1  0  0  0
 30 32  1  0  0  0
 32 33  2  0  0  0
 33 34  1  0  0  0
 34 35  2  0  0  0
 35 36  1  0  0  0
 36 37  2  0  0  0
 35 38  1  0  0  0
 38 39  2  0  0  0
 38 40  1  0  0  0
 40 42  1  0  0  0
 42 43  2  0  0  0
 43 44  1  0  0  0
 44 45  2  0  0  0
 45 46  1  0  0  0
 46 48  1  0  0  0
 48 49  1  0  0  0
 49 51  1  0  0  0
 51 52  1  0  0  0
 52 53  1  0  0  0
 52 54  1  0  0  0
 52 55  1  0  0  0
 46 47  2  0  0  0
  3  4  2  0  0  0
  4  5  1  0  0  0
  5  7  1  0  0  0
  7  8  1  0  0  0
  8  9  1  0  0  0
  9 10  1  0  0  0
 10 11  1  0  0  0
 11 12  1  0  0  0
 10 13  1  0  0  0
 13 14  2  0  0  0
 13 15  1  0  0  0
 15 16  1  0  0  0
 16 17  1  0  0  0
 16 18  1  0  0  0
 16 19  1  0  0  0
  5  6  2  0  0  0
 27 22  1  0  0  0
  6  1  1  0  0  0
 37 32  1  0  0  0
 47 42  1  0  0  0
 12  7  1  0  0  0
 20 21  1  0  0  0
 30 31  1  0  0  0
 40 41  1  0  0  0
 49 50  1  0  0  0
M  END
> <minimizedAffinity>
-9.01517

> <CNNscore>
0.0759427026

> <CNNaffinity>
6.8656058311

> <CNN_VS>
0.5213926435

> <CNNaffinity_variance>
0.2948546708

$$$$
[H]c1c([H])c([H])c(C([H])([H])C([H])([H])[H])c(N([H])c2nc(N([H])c3c([H])c([H])c(C(=O)N([H])c4c([H])c([H])c([H])c(C([H])([H])N([H])C([H])([H])C(F)(F)F)c4[H])c([H])c3[H])nc(N3C([H])([H])C([H])([H])N(C(=O)OC(C([H])([H])[H])(C([H])([H])[H])C([H])([H])[H])C([H])([H])C3([H])[H])n2)c1[H]


 55 59  0  0  0  0  0  0  0  0999 V2000
  -86.6900   30.7445    0.0217 C   0  0  0  0  0  0  0  0  0  0  0  0
  -87.0520   29.5939   -0.6259 N   0  0  0  0  0  0  0  0  0  0  0  0
  -87.6479   29.6128   -1.7966 C   0  0  0  0  0  0  0  0  0  0  0  0
  -87.9006   30.8268   -2.3588 N   0  0  0  0  0  0  0  0  0  0  0  0
  -87.5751   31.9905   -1.7833 C   0  0  0  0  0  0  0  0  0  0  0  0
  -86.9680   31.9024   -0.5872 N   0  0  0  0  0  0  0  0  0  0  0  0
  -87.8618   33.2501   -2.3927 N   0  0  0  0  0  0  0  0  0  0  0  0
  -86.8487   34.2519   -2.5898 C   0  0  0  0  0  0  0  0  0  0  0  0
  -87.0902   35.1340   -3.7427 C   0  0  0  0  0  0  0  0  0  0  0  0
  -88.2007   34.8500   -4.5942 N   0  0  0  0  0  0  0  0  0  0  0  0
  -89.2739   33.9351   -4.2616 C   0  0  0  0  0  0  0  0  0  0  0  0
  -89.2113   33.5214   -2.8095 C   0  0  0  0  0  0  0  0  0  0  0  0
  -88.2810   35.5000   -5.8562 C   0  0  0  0  0  0  0  0  0  0  0  0
  -87.3920   36.2973   -6.2036 O   0  0  0  0  0  0  0  0  0  0  0  0
  -89.3317   35.2711   -6.7218 O   0  0  0  0  0  0  0  0  0  0  0  0
  -90.3565   36.1729   -7.0240 C   0  0  0  0  0  0  0  0  0  0  0  0
  -91.6513   35.5430   -7.4185 C   0  0  0  0  0  0  0  0  0  0  0  0
  -90.5169   37.0827   -5.7995 C   0  0  0  0  0  0  0  0  0  0  0  0
  -89.8985   37.0928   -8.1562 C   0  0  0  0  0  0  0  0  0  0  0  0
  -86.0493   30.5879    1.2702 N   0  0  0  0  0  0  0  0  0  0  0  0
  -86.4579   31.1765    2.0736 H   0  0  0  0  0  0  0  0  0  0  0  0
  -83.6687   30.3017    1.5749 C   0  0  0  0  0  0  0  0  0  0  0  0
  -82.6256   29.4973    1.9380 C   0  0  0  0  0  0  0  0  0  0  0  0
  -82.7948   28.2015    2.3663 C   0  0  0  0  0  0  0  0  0  0  0  0
  -84.0528   27.6853    2.4362 C   0  0  0  0  0  0  0  0  0  0  0  0
  -85.1314   28.4953    2.0683 C   0  0  0  0  0  0  0  0  0  0  0  0
  -84.9637   29.7881    1.6408 C   0  0  0  0  0  0  0  0  0  0  0  0
  -82.8055   31.7903   -0.2289 C   0  0  0  0  0  0  0  0  0  0  0  0
  -83.4183   31.6725    1.1300 C   0  0  0  0  0  0  0  0  0  0  0  0
  -88.0434   28.4911   -2.5007 N   0  0  0  0  0  0  0  0  0  0  0  0
  -87.4618   28.1911   -3.3361 H   0  0  0  0  0  0  0  0  0  0  0  0
  -89.1775   27.6887   -2.1971 C   0  0  0  0  0  0  0  0  0  0  0  0
  -88.9831   26.5388   -1.4124 C   0  0  0  0  0  0  0  0  0  0  0  0
  -90.0357   25.7567   -1.0806 C   0  0  0  0  0  0  0  0  0  0  0  0
  -91.3318   26.0352   -1.4838 C   0  0  0  0  0  0  0  0  0  0  0  0
  -91.4919   27.1582   -2.2442 C   0  0  0  0  0  0  0  0  0  0  0  0
  -90.4388   28.0023   -2.6155 C   0  0  0  0  0  0  0  0  0  0  0  0
  -92.4576   25.1493   -1.0923 C   0  0  0  0  0  0  0  0  0  0  0  0
  -93.5740   25.6616   -1.1537 O   0  0  0  0  0  0  0  0  0  0  0  0
  -92.1381   23.8580   -0.7038 N   0  0  0  0  0  0  0  0  0  0  0  0
  -91.1161   23.5290   -0.6881 H   0  0  0  0  0  0  0  0  0  0  0  0
  -93.0553   22.8690   -0.2935 C   0  0  0  0  0  0  0  0  0  0  0  0
  -92.6858   21.5126   -0.3453 C   0  0  0  0  0  0  0  0  0  0  0  0
  -93.5652   20.5625    0.0670 C   0  0  0  0  0  0  0  0  0  0  0  0
  -94.8092   20.8813    0.5349 C   0  0  0  0  0  0  0  0  0  0  0  0
  -95.1923   22.1950    0.5950 C   0  0  0  0  0  0  0  0  0  0  0  0
  -94.3059   23.1831    0.1776 C   0  0  0  0  0  0  0  0  0  0  0  0
  -96.5364   22.6091    1.0878 C   0  0  0  0  0  0  0  0  0  0  0  0
  -97.2867   23.1335   -0.0069 N   0  0  0  0  0  0  0  0  0  0  0  0
  -96.7326   23.1791   -0.8982 H   0  0  0  0  0  0  0  0  0  0  0  0
  -97.9530   24.3637    0.1497 C   0  0  0  0  0  0  0  0  0  0  0  0
  -97.5972   25.4291   -0.8219 C   0  0  0  0  0  0  0  0  0  0  0  0
  -97.1460   26.5783   -0.1259 F   0  0  0  0  0  0  0  0  0  0  0  0
  -98.6703   25.8411   -1.5802 F   0  0  0  0  0  0  0  0  0  0  0  0
  -96.5679   24.9863   -1.6360 F   0  0  0  0  0  0  0  0  0  0  0  0
 28 29  1  0  0  0
 29 22  1  0  0  0
 22 23  2  0  0  0
 23 24  1  0  0  0
 24 25  2  0  0  0
 25 26  1  0  0  0
 26 27  2  0  0  0
 27 20  1  0  0  0
 20  1  1  0  0  0
  1  2  2  0  0  0
  2  3  1  0  0  0
  3 30  1  0  0  0
 30 32  1  0  0  0
 32 33  2  0  0  0
 33 34  1  0  0  0
 34 35  2  0  0  0
 35 36  1  0  0  0
 36 37  2  0  0  0
 35 38  1  0  0  0
 38 39  2  0  0  0
 38 40  1  0  0  0
 40 42  1  0  0  0
 42 43  2  0  0  0
 43 44  1  0  0  0
 44 45  2  0  0  0
 45 46  1  0  0  0
 46 48  1  0  0  0
 48 49  1  0  0  0
 49 51  1  0  0  0
 51 52  1  0  0  0
 52 53  1  0  0  0
 52 54  1  0  0  0
 52 55  1  0  0  0
 46 47  2  0  0  0
  3  4  2  0  0  0
  4  5  1  0  0  0
  5  7  1  0  0  0
  7  8  1  0  0  0
  8  9  1  0  0  0
  9 10  1  0  0  0
 10 11  1  0  0  0
 11 12  1  0  0  0
 10 13  1  0  0  0
 13 14  2  0  0  0
 13 15  1  0  0  0
 15 16  1  0  0  0
 16 17  1  0  0  0
 16 18  1  0  0  0
 16 19  1  0  0  0
  5  6  2  0  0  0
 27 22  1  0  0  0
  6  1  1  0  0  0
 37 32  1  0  0  0
 47 42  1  0  0  0
 12  7  1  0  0  0
 20 21  1  0  0  0
 30 31  1  0  0  0
 40 41  1  0  0  0
 49 50  1  0  0  0
M  END
> <minimizedAffinity>
-8.61100

> <CNNscore>
0.0648606494

> <CNNaffinity>
6.6616439819

> <CNN_VS>
0.4320785403

> <CNNaffinity_variance>
0.1864858568

$$$$
[H]c1c([H])c([H])c(C([H])([H])C([H])([H])[H])c(N([H])c2nc(N([H])c3c([H])c([H])c(C(=O)N([H])c4c([H])c([H])c([H])c(C([H])([H])N([H])C([H])([H])C(F)(F)F)c4[H])c([H])c3[H])nc(N3C([H])([H])C([H])([H])N(C(=O)OC(C([H])([H])[H])(C([H])([H])[H])C([H])([H])[H])C([H])([H])C3([H])[H])n2)c1[H]


 55 59  0  0  0  0  0  0  0  0999 V2000
  -87.7293   30.1627   -1.4385 C   0  0  0  0  0  0  0  0  0  0  0  0
  -88.7699   29.5031   -0.8417 N   0  0  0  0  0  0  0  0  0  0  0  0
  -90.0134   29.6686   -1.2319 C   0  0  0  0  0  0  0  0  0  0  0  0
  -90.2446   30.5278   -2.2625 N   0  0  0  0  0  0  0  0  0  0  0  0
  -89.2769   31.2055   -2.8915 C   0  0  0  0  0  0  0  0  0  0  0  0
  -88.0272   30.9917   -2.4449 N   0  0  0  0  0  0  0  0  0  0  0  0
  -89.5505   32.1082   -3.9641 N   0  0  0  0  0  0  0  0  0  0  0  0
  -90.8585   32.6668   -4.1781 C   0  0  0  0  0  0  0  0  0  0  0  0
  -90.8504   33.9900   -4.8219 C   0  0  0  0  0  0  0  0  0  0  0  0
  -89.5923   34.6232   -5.0569 N   0  0  0  0  0  0  0  0  0  0  0  0
  -88.3104   33.9533   -4.9712 C   0  0  0  0  0  0  0  0  0  0  0  0
  -88.4808   32.4558   -4.8605 C   0  0  0  0  0  0  0  0  0  0  0  0
  -89.5727   36.0021   -5.4033 C   0  0  0  0  0  0  0  0  0  0  0  0
  -90.6384   36.6366   -5.4934 O   0  0  0  0  0  0  0  0  0  0  0  0
  -88.3892   36.6694   -5.6473 O   0  0  0  0  0  0  0  0  0  0  0  0
  -87.8237   37.6589   -4.8374 C   0  0  0  0  0  0  0  0  0  0  0  0
  -88.1123   37.5179   -3.3794 C   0  0  0  0  0  0  0  0  0  0  0  0
  -86.3165   37.6517   -5.1218 C   0  0  0  0  0  0  0  0  0  0  0  0
  -88.3177   39.0299   -5.3003 C   0  0  0  0  0  0  0  0  0  0  0  0
  -86.4397   29.8916   -0.9312 N   0  0  0  0  0  0  0  0  0  0  0  0
  -85.7069   29.6071   -1.6665 H   0  0  0  0  0  0  0  0  0  0  0  0
  -85.2184   31.0373    0.8117 C   0  0  0  0  0  0  0  0  0  0  0  0
  -84.7482   31.0494    2.0946 C   0  0  0  0  0  0  0  0  0  0  0  0
  -84.9650   30.0196    2.9800 C   0  0  0  0  0  0  0  0  0  0  0  0
  -85.6783   28.9340    2.5722 C   0  0  0  0  0  0  0  0  0  0  0  0
  -86.1667   28.9057    1.2625 C   0  0  0  0  0  0  0  0  0  0  0  0
  -85.9511   29.9325    0.3784 C   0  0  0  0  0  0  0  0  0  0  0  0
  -83.5078   32.5160   -0.2381 C   0  0  0  0  0  0  0  0  0  0  0  0
  -84.9531   32.1676   -0.0780 C   0  0  0  0  0  0  0  0  0  0  0  0
  -91.1086   29.0389   -0.6708 N   0  0  0  0  0  0  0  0  0  0  0  0
  -92.0756   29.4043   -0.9104 H   0  0  0  0  0  0  0  0  0  0  0  0
  -91.0526   27.9246    0.2107 C   0  0  0  0  0  0  0  0  0  0  0  0
  -91.1337   26.6364   -0.3458 C   0  0  0  0  0  0  0  0  0  0  0  0
  -91.0635   25.5460    0.4516 C   0  0  0  0  0  0  0  0  0  0  0  0
  -90.9119   25.6324    1.8262 C   0  0  0  0  0  0  0  0  0  0  0  0
  -90.8350   26.8954    2.3400 C   0  0  0  0  0  0  0  0  0  0  0  0
  -90.9013   28.0567    1.5613 C   0  0  0  0  0  0  0  0  0  0  0  0
  -90.8360   24.4071    2.6620 C   0  0  0  0  0  0  0  0  0  0  0  0
  -91.4128   24.4752    3.7462 O   0  0  0  0  0  0  0  0  0  0  0  0
  -90.1337   23.3317    2.1420 N   0  0  0  0  0  0  0  0  0  0  0  0
  -89.6671   23.3986    1.1773 H   0  0  0  0  0  0  0  0  0  0  0  0
  -89.9421   22.0871    2.7760 C   0  0  0  0  0  0  0  0  0  0  0  0
  -90.6011   20.9461    2.2831 C   0  0  0  0  0  0  0  0  0  0  0  0
  -90.4013   19.7446    2.8852 C   0  0  0  0  0  0  0  0  0  0  0  0
  -89.5744   19.6038    3.9643 C   0  0  0  0  0  0  0  0  0  0  0  0
  -88.9214   20.7000    4.4627 C   0  0  0  0  0  0  0  0  0  0  0  0
  -89.1126   21.9394    3.8599 C   0  0  0  0  0  0  0  0  0  0  0  0
  -88.0122   20.6160    5.6405 C   0  0  0  0  0  0  0  0  0  0  0  0
  -87.6031   21.9345    6.0013 N   0  0  0  0  0  0  0  0  0  0  0  0
  -87.0816   22.4257    5.2329 H   0  0  0  0  0  0  0  0  0  0  0  0
  -86.8855   22.1228    7.1978 C   0  0  0  0  0  0  0  0  0  0  0  0
  -87.0809   23.4276    7.8796 C   0  0  0  0  0  0  0  0  0  0  0  0
  -85.8215   23.9837    8.2158 F   0  0  0  0  0  0  0  0  0  0  0  0
  -87.7740   23.3133    9.0641 F   0  0  0  0  0  0  0  0  0  0  0  0
  -87.7246   24.3046    7.0223 F   0  0  0  0  0  0  0  0  0  0  0  0
 28 29  1  0  0  0
 29 22  1  0  0  0
 22 23  2  0  0  0
 23 24  1  0  0  0
 24 25  2  0  0  0
 25 26  1  0  0  0
 26 27  2  0  0  0
 27 20  1  0  0  0
 20  1  1  0  0  0
  1  2  2  0  0  0
  2  3  1  0  0  0
  3 30  1  0  0  0
 30 32  1  0  0  0
 32 33  2  0  0  0
 33 34  1  0  0  0
 34 35  2  0  0  0
 35 36  1  0  0  0
 36 37  2  0  0  0
 35 38  1  0  0  0
 38 39  2  0  0  0
 38 40  1  0  0  0
 40 42  1  0  0  0
 42 43  2  0  0  0
 43 44  1  0  0  0
 44 45  2  0  0  0
 45 46  1  0  0  0
 46 48  1  0  0  0
 48 49  1  0  0  0
 49 51  1  0  0  0
 51 52  1  0  0  0
 52 53  1  0  0  0
 52 54  1  0  0  0
 52 55  1  0  0  0
 46 47  2  0  0  0
  3  4  2  0  0  0
  4  5  1  0  0  0
  5  7  1  0  0  0
  7  8  1  0  0  0
  8  9  1  0  0  0
  9 10  1  0  0  0
 10 11  1  0  0  0
 11 12  1  0  0  0
 10 13  1  0  0  0
 13 14  2  0  0  0
 13 15  1  0  0  0
 15 16  1  0  0  0
 16 17  1  0  0  0
 16 18  1  0  0  0
 16 19  1  0  0  0
  5  6  2  0  0  0
 27 22  1  0  0  0
  6  1  1  0  0  0
 37 32  1  0  0  0
 47 42  1  0  0  0
 12  7  1  0  0  0
 20 21  1  0  0  0
 30 31  1  0  0  0
 40 41  1  0  0  0
 49 50  1  0  0  0
M  END
> <minimizedAffinity>
-10.12210

> <CNNscore>
0.0580843017

> <CNNaffinity>
7.1276459694

> <CNN_VS>
0.4140043259

> <CNNaffinity_variance>
0.1633002162

$$$$
[H]c1c([H])c([H])c(C([H])([H])C([H])([H])[H])c(N([H])c2nc(N([H])c3c([H])c([H])c(C(=O)N([H])c4c([H])c([H])c([H])c(C([H])([H])N([H])C([H])([H])C(F)(F)F)c4[H])c([H])c3[H])nc(N3C([H])([H])C([H])([H])N(C(=O)OC(C([H])([H])[H])(C([H])([H])[H])C([H])([H])[H])C([H])([H])C3([H])[H])n2)c1[H]


 55 59  0  0  0  0  0  0  0  0999 V2000
  -86.5462   33.7995   -2.6947 C   0  0  0  0  0  0  0  0  0  0  0  0
  -86.8367   32.5019   -3.0205 N   0  0  0  0  0  0  0  0  0  0  0  0
  -87.6140   32.1969   -4.0348 C   0  0  0  0  0  0  0  0  0  0  0  0
  -88.1321   33.2219   -4.7659 N   0  0  0  0  0  0  0  0  0  0  0  0
  -87.8911   34.5123   -4.5049 C   0  0  0  0  0  0  0  0  0  0  0  0
  -87.0885   34.7571   -3.4548 N   0  0  0  0  0  0  0  0  0  0  0  0
  -88.4568   35.5674   -5.2840 N   0  0  0  0  0  0  0  0  0  0  0  0
  -87.6733   36.3358   -6.2136 C   0  0  0  0  0  0  0  0  0  0  0  0
  -88.4400   36.8698   -7.3504 C   0  0  0  0  0  0  0  0  0  0  0  0
  -89.8106   36.4917   -7.4827 N   0  0  0  0  0  0  0  0  0  0  0  0
  -90.5873   35.8523   -6.4400 C   0  0  0  0  0  0  0  0  0  0  0  0
  -89.8529   35.8716   -5.1193 C   0  0  0  0  0  0  0  0  0  0  0  0
  -90.4789   36.7540   -8.7099 C   0  0  0  0  0  0  0  0  0  0  0  0
  -89.8696   37.3002   -9.6463 O   0  0  0  0  0  0  0  0  0  0  0  0
  -91.8042   36.4167   -8.8978 O   0  0  0  0  0  0  0  0  0  0  0  0
  -92.2750   35.2896   -9.5781 C   0  0  0  0  0  0  0  0  0  0  0  0
  -91.2125   34.4250  -10.1718 C   0  0  0  0  0  0  0  0  0  0  0  0
  -93.1523   34.5131   -8.5880 C   0  0  0  0  0  0  0  0  0  0  0  0
  -93.2197   35.7350  -10.6948 C   0  0  0  0  0  0  0  0  0  0  0  0
  -85.6920   33.9932   -1.5871 N   0  0  0  0  0  0  0  0  0  0  0  0
  -85.5908   35.0129   -1.2574 H   0  0  0  0  0  0  0  0  0  0  0  0
  -85.6071   32.1063   -0.0790 C   0  0  0  0  0  0  0  0  0  0  0  0
  -84.8582   31.2229    0.6461 C   0  0  0  0  0  0  0  0  0  0  0  0
  -83.4832   31.2438    0.6601 C   0  0  0  0  0  0  0  0  0  0  0  0
  -82.8269   32.1817   -0.0770 C   0  0  0  0  0  0  0  0  0  0  0  0
  -83.5783   33.0932   -0.8248 C   0  0  0  0  0  0  0  0  0  0  0  0
  -84.9501   33.0733   -0.8396 C   0  0  0  0  0  0  0  0  0  0  0  0
  -87.6215   30.6383   -0.0374 C   0  0  0  0  0  0  0  0  0  0  0  0
  -87.0674   32.0270   -0.0507 C   0  0  0  0  0  0  0  0  0  0  0  0
  -87.9507   30.9111   -4.4141 N   0  0  0  0  0  0  0  0  0  0  0  0
  -87.7053   30.5967   -5.3975 H   0  0  0  0  0  0  0  0  0  0  0  0
  -88.6047   29.9560   -3.5881 C   0  0  0  0  0  0  0  0  0  0  0  0
  -87.8437   28.8880   -3.0821 C   0  0  0  0  0  0  0  0  0  0  0  0
  -88.4180   27.9669   -2.2749 C   0  0  0  0  0  0  0  0  0  0  0  0
  -89.7536   28.0204   -1.9096 C   0  0  0  0  0  0  0  0  0  0  0  0
  -90.4689   29.0685   -2.4146 C   0  0  0  0  0  0  0  0  0  0  0  0
  -89.9249   30.0489   -3.2526 C   0  0  0  0  0  0  0  0  0  0  0  0
  -90.3405   26.9882   -1.0176 C   0  0  0  0  0  0  0  0  0  0  0  0
  -91.4497   27.2594   -0.5605 O   0  0  0  0  0  0  0  0  0  0  0  0
  -89.5890   25.8453   -0.7959 N   0  0  0  0  0  0  0  0  0  0  0  0
  -88.6246   25.7281   -1.2531 H   0  0  0  0  0  0  0  0  0  0  0  0
  -89.9637   24.7563    0.0174 C   0  0  0  0  0  0  0  0  0  0  0  0
  -90.0559   23.4689   -0.5424 C   0  0  0  0  0  0  0  0  0  0  0  0
  -90.4004   22.4182    0.2472 C   0  0  0  0  0  0  0  0  0  0  0  0
  -90.6635   22.5694    1.5799 C   0  0  0  0  0  0  0  0  0  0  0  0
  -90.5803   23.8130    2.1482 C   0  0  0  0  0  0  0  0  0  0  0  0
  -90.2287   24.9018    1.3564 C   0  0  0  0  0  0  0  0  0  0  0  0
  -90.8615   24.0469    3.5929 C   0  0  0  0  0  0  0  0  0  0  0  0
  -90.1373   25.1990    4.0222 N   0  0  0  0  0  0  0  0  0  0  0  0
  -89.3309   24.9638    4.6530 H   0  0  0  0  0  0  0  0  0  0  0  0
  -90.8417   26.2698    4.6045 C   0  0  0  0  0  0  0  0  0  0  0  0
  -90.2917   27.6269    4.3565 C   0  0  0  0  0  0  0  0  0  0  0  0
  -89.9553   28.2383    5.5901 F   0  0  0  0  0  0  0  0  0  0  0  0
  -91.1977   28.4683    3.7501 F   0  0  0  0  0  0  0  0  0  0  0  0
  -89.1381   27.5256    3.5967 F   0  0  0  0  0  0  0  0  0  0  0  0
 28 29  1  0  0  0
 29 22  1  0  0  0
 22 23  2  0  0  0
 23 24  1  0  0  0
 24 25  2  0  0  0
 25 26  1  0  0  0
 26 27  2  0  0  0
 27 20  1  0  0  0
 20  1  1  0  0  0
  1  2  2  0  0  0
  2  3  1  0  0  0
  3 30  1  0  0  0
 30 32  1  0  0  0
 32 33  2  0  0  0
 33 34  1  0  0  0
 34 35  2  0  0  0
 35 36  1  0  0  0
 36 37  2  0  0  0
 35 38  1  0  0  0
 38 39  2  0  0  0
 38 40  1  0  0  0
 40 42  1  0  0  0
 42 43  2  0  0  0
 43 44  1  0  0  0
 44 45  2  0  0  0
 45 46  1  0  0  0
 46 48  1  0  0  0
 48 49  1  0  0  0
 49 51  1  0  0  0
 51 52  1  0  0  0
 52 53  1  0  0  0
 52 54  1  0  0  0
 52 55  1  0  0  0
 46 47  2  0  0  0
  3  4  2  0  0  0
  4  5  1  0  0  0
  5  7  1  0  0  0
  7  8  1  0  0  0
  8  9  1  0  0  0
  9 10  1  0  0  0
 10 11  1  0  0  0
 11 12  1  0  0  0
 10 13  1  0  0  0
 13 14  2  0  0  0
 13 15  1  0  0  0
 15 16  1  0  0  0
 16 17  1  0  0  0
 16 18  1  0  0  0
 16 19  1  0  0  0
  5  6  2  0  0  0
 27 22  1  0  0  0
  6  1  1  0  0  0
 37 32  1  0  0  0
 47 42  1  0  0  0
 12  7  1  0  0  0
 20 21  1  0  0  0
 30 31  1  0  0  0
 40 41  1  0  0  0
 49 50  1  0  0  0
M  END
> <minimizedAffinity>
-9.45427

> <CNNscore>
0.0472967960

> <CNNaffinity>
6.8430123329

> <CNN_VS>
0.3236525655

> <CNNaffinity_variance>
0.5472661257

$$$$
[H]c1c([H])c([H])c(C([H])([H])C([H])([H])[H])c(N([H])c2nc(N([H])c3c([H])c([H])c(C(=O)N([H])c4c([H])c([H])c([H])c(C([H])([H])N([H])C([H])([H])C(F)(F)F)c4[H])c([H])c3[H])nc(N3C([H])([H])C([H])([H])N(C(=O)OC(C([H])([H])[H])(C([H])([H])[H])C([H])([H])[H])C([H])([H])C3([H])[H])n2)c1[H]


 55 59  0  0  0  0  0  0  0  0999 V2000
  -87.4729   30.9705   -0.4527 C   0  0  0  0  0  0  0  0  0  0  0  0
  -87.7985   31.7908   -1.4993 N   0  0  0  0  0  0  0  0  0  0  0  0
  -88.7946   31.5194   -2.3118 C   0  0  0  0  0  0  0  0  0  0  0  0
  -89.5068   30.3820   -2.0824 N   0  0  0  0  0  0  0  0  0  0  0  0
  -89.2448   29.5349   -1.0798 C   0  0  0  0  0  0  0  0  0  0  0  0
  -88.2139   29.8697   -0.2849 N   0  0  0  0  0  0  0  0  0  0  0  0
  -90.0035   28.3432   -0.8692 N   0  0  0  0  0  0  0  0  0  0  0  0
  -89.7597   27.1397   -1.6181 C   0  0  0  0  0  0  0  0  0  0  0  0
  -90.0978   25.9025   -0.8967 C   0  0  0  0  0  0  0  0  0  0  0  0
  -90.5080   26.0022    0.4674 N   0  0  0  0  0  0  0  0  0  0  0  0
  -90.8894   27.2390    1.1188 C   0  0  0  0  0  0  0  0  0  0  0  0
  -91.0500   28.3592    0.1172 C   0  0  0  0  0  0  0  0  0  0  0  0
  -90.5565   24.8209    1.2571 C   0  0  0  0  0  0  0  0  0  0  0  0
  -90.2413   23.7258    0.7591 O   0  0  0  0  0  0  0  0  0  0  0  0
  -90.9493   24.8512    2.5801 O   0  0  0  0  0  0  0  0  0  0  0  0
  -90.1074   25.0330    3.6815 C   0  0  0  0  0  0  0  0  0  0  0  0
  -90.6245   25.9739    4.7188 C   0  0  0  0  0  0  0  0  0  0  0  0
  -89.8363   23.6396    4.2624 C   0  0  0  0  0  0  0  0  0  0  0  0
  -88.7494   25.5422    3.1971 C   0  0  0  0  0  0  0  0  0  0  0  0
  -86.3860   31.3786    0.3511 N   0  0  0  0  0  0  0  0  0  0  0  0
  -86.3045   32.4402    0.5094 H   0  0  0  0  0  0  0  0  0  0  0  0
  -84.0493   30.8474    0.6663 C   0  0  0  0  0  0  0  0  0  0  0  0
  -83.0962   30.0959    1.2939 C   0  0  0  0  0  0  0  0  0  0  0  0
  -83.3992   29.1301    2.2249 C   0  0  0  0  0  0  0  0  0  0  0  0
  -84.7031   28.9030    2.5442 C   0  0  0  0  0  0  0  0  0  0  0  0
  -85.6908   29.6635    1.9112 C   0  0  0  0  0  0  0  0  0  0  0  0
  -85.3898   30.6272    0.9822 C   0  0  0  0  0  0  0  0  0  0  0  0
  -82.4725   32.6854    0.0744 C   0  0  0  0  0  0  0  0  0  0  0  0
  -83.6577   31.8604   -0.3136 C   0  0  0  0  0  0  0  0  0  0  0  0
  -89.1724   32.3004   -3.3878 N   0  0  0  0  0  0  0  0  0  0  0  0
  -89.9331   31.9352   -4.0313 H   0  0  0  0  0  0  0  0  0  0  0  0
  -88.6251   33.5722   -3.7117 C   0  0  0  0  0  0  0  0  0  0  0  0
  -88.6927   34.5877   -2.7421 C   0  0  0  0  0  0  0  0  0  0  0  0
  -88.1664   35.8073   -2.9976 C   0  0  0  0  0  0  0  0  0  0  0  0
  -87.5468   36.1189   -4.1972 C   0  0  0  0  0  0  0  0  0  0  0  0
  -87.4943   35.1140   -5.1205 C   0  0  0  0  0  0  0  0  0  0  0  0
  -88.0217   33.8349   -4.9081 C   0  0  0  0  0  0  0  0  0  0  0  0
  -86.9798   37.4712   -4.4321 C   0  0  0  0  0  0  0  0  0  0  0  0
  -87.6713   38.4066   -4.0324 O   0  0  0  0  0  0  0  0  0  0  0  0
  -85.7503   37.5377   -5.0678 N   0  0  0  0  0  0  0  0  0  0  0  0
  -85.2444   36.6417   -5.3746 H   0  0  0  0  0  0  0  0  0  0  0  0
  -85.0484   38.7185   -5.3856 C   0  0  0  0  0  0  0  0  0  0  0  0
  -84.1000   39.2293   -4.4807 C   0  0  0  0  0  0  0  0  0  0  0  0
  -83.4125   40.3577   -4.7968 C   0  0  0  0  0  0  0  0  0  0  0  0
  -83.6120   41.0213   -5.9750 C   0  0  0  0  0  0  0  0  0  0  0  0
  -84.5301   40.5436   -6.8724 C   0  0  0  0  0  0  0  0  0  0  0  0
  -85.2442   39.3891   -6.5673 C   0  0  0  0  0  0  0  0  0  0  0  0
  -84.8004   41.2235   -8.1707 C   0  0  0  0  0  0  0  0  0  0  0  0
  -85.3507   40.2735   -9.0821 N   0  0  0  0  0  0  0  0  0  0  0  0
  -84.7150   40.0684   -9.8928 H   0  0  0  0  0  0  0  0  0  0  0  0
  -86.6448   40.4884   -9.5929 C   0  0  0  0  0  0  0  0  0  0  0  0
  -87.3532   39.2885  -10.1069 C   0  0  0  0  0  0  0  0  0  0  0  0
  -87.0222   39.0863  -11.4700 F   0  0  0  0  0  0  0  0  0  0  0  0
  -88.7236   39.4174  -10.0638 F   0  0  0  0  0  0  0  0  0  0  0  0
  -86.9472   38.1723   -9.3944 F   0  0  0  0  0  0  0  0  0  0  0  0
 28 29  1  0  0  0
 29 22  1  0  0  0
 22 23  2  0  0  0
 23 24  1  0  0  0
 24 25  2  0  0  0
 25 26  1  0  0  0
 26 27  2  0  0  0
 27 20  1  0  0  0
 20  1  1  0  0  0
  1  2  2  0  0  0
  2  3  1  0  0  0
  3 30  1  0  0  0
 30 32  1  0  0  0
 32 33  2  0  0  0
 33 34  1  0  0  0
 34 35  2  0  0  0
 35 36  1  0  0  0
 36 37  2  0  0  0
 35 38  1  0  0  0
 38 39  2  0  0  0
 38 40  1  0  0  0
 40 42  1  0  0  0
 42 43  2  0  0  0
 43 44  1  0  0  0
 44 45  2  0  0  0
 45 46  1  0  0  0
 46 48  1  0  0  0
 48 49  1  0  0  0
 49 51  1  0  0  0
 51 52  1  0  0  0
 52 53  1  0  0  0
 52 54  1  0  0  0
 52 55  1  0  0  0
 46 47  2  0  0  0
  3  4  2  0  0  0
  4  5  1  0  0  0
  5  7  1  0  0  0
  7  8  1  0  0  0
  8  9  1  0  0  0
  9 10  1  0  0  0
 10 11  1  0  0  0
 11 12  1  0  0  0
 10 13  1  0  0  0
 13 14  2  0  0  0
 13 15  1  0  0  0
 15 16  1  0  0  0
 16 17  1  0  0  0
 16 18  1  0  0  0
 16 19  1  0  0  0
  5  6  2  0  0  0
 27 22  1  0  0  0
  6  1  1  0  0  0
 37 32  1  0  0  0
 47 42  1  0  0  0
 12  7  1  0  0  0
 20 21  1  0  0  0
 30 31  1  0  0  0
 40 41  1  0  0  0
 49 50  1  0  0  0
M  END
> <minimizedAffinity>
-9.11914

> <CNNscore>
0.0381939672

> <CNNaffinity>
6.7788214684

> <CNN_VS>
0.2589100897

> <CNNaffinity_variance>
0.2330785245

$$$$
[H]c1c([H])c([H])c(C([H])([H])C([H])([H])[H])c(N([H])c2nc(N([H])c3c([H])c([H])c(C(=O)N([H])c4c([H])c([H])c([H])c(C([H])([H])N([H])C([H])([H])C(F)(F)F)c4[H])c([H])c3[H])nc(N3C([H])([H])C([H])([H])N(C(=O)OC(C([H])([H])[H])(C([H])([H])[H])C([H])([H])[H])C([H])([H])C3([H])[H])n2)c1[H]


 55 59  0  0  0  0  0  0  0  0999 V2000
  -86.9460   30.6833   -0.6189 C   0  0  0  0  0  0  0  0  0  0  0  0
  -87.4136   29.4696   -1.0461 N   0  0  0  0  0  0  0  0  0  0  0  0
  -87.9688   29.3146   -2.2267 C   0  0  0  0  0  0  0  0  0  0  0  0
  -88.0689   30.4108   -3.0280 N   0  0  0  0  0  0  0  0  0  0  0  0
  -87.6340   31.6266   -2.6758 C   0  0  0  0  0  0  0  0  0  0  0  0
  -87.0761   31.7181   -1.4563 N   0  0  0  0  0  0  0  0  0  0  0  0
  -87.7615   32.7612   -3.5340 N   0  0  0  0  0  0  0  0  0  0  0  0
  -88.5901   32.7412   -4.7094 C   0  0  0  0  0  0  0  0  0  0  0  0
  -89.1351   34.0555   -5.0847 C   0  0  0  0  0  0  0  0  0  0  0  0
  -88.8974   35.1627   -4.2149 N   0  0  0  0  0  0  0  0  0  0  0  0
  -87.9289   35.1635   -3.1372 C   0  0  0  0  0  0  0  0  0  0  0  0
  -87.0257   33.9541   -3.2110 C   0  0  0  0  0  0  0  0  0  0  0  0
  -89.6474   36.3559   -4.4030 C   0  0  0  0  0  0  0  0  0  0  0  0
  -90.4956   36.4216   -5.3101 O   0  0  0  0  0  0  0  0  0  0  0  0
  -89.4604   37.4618   -3.5983 O   0  0  0  0  0  0  0  0  0  0  0  0
  -88.6976   38.5891   -3.9180 C   0  0  0  0  0  0  0  0  0  0  0  0
  -87.8430   38.4450   -5.1336 C   0  0  0  0  0  0  0  0  0  0  0  0
  -89.6784   39.7611   -4.0485 C   0  0  0  0  0  0  0  0  0  0  0  0
  -87.7998   38.9411   -2.7315 C   0  0  0  0  0  0  0  0  0  0  0  0
  -86.3638   30.7152    0.6672 N   0  0  0  0  0  0  0  0  0  0  0  0
  -86.9509   31.2039    1.4255 H   0  0  0  0  0  0  0  0  0  0  0  0
  -85.1095   29.0264    1.8573 C   0  0  0  0  0  0  0  0  0  0  0  0
  -83.9025   28.5601    2.2964 C   0  0  0  0  0  0  0  0  0  0  0  0
  -82.7153   29.2084    2.0480 C   0  0  0  0  0  0  0  0  0  0  0  0
  -82.7299   30.3676    1.3339 C   0  0  0  0  0  0  0  0  0  0  0  0
  -83.9567   30.8585    0.8771 C   0  0  0  0  0  0  0  0  0  0  0  0
  -85.1416   30.2125    1.1243 C   0  0  0  0  0  0  0  0  0  0  0  0
  -86.2590   26.8147    1.8978 C   0  0  0  0  0  0  0  0  0  0  0  0
  -86.3351   28.2857    2.1552 C   0  0  0  0  0  0  0  0  0  0  0  0
  -88.4648   28.1211   -2.7166 N   0  0  0  0  0  0  0  0  0  0  0  0
  -88.4593   27.9678   -3.7666 H   0  0  0  0  0  0  0  0  0  0  0  0
  -88.9873   27.0622   -1.9243 C   0  0  0  0  0  0  0  0  0  0  0  0
  -90.3692   26.8117   -1.9835 C   0  0  0  0  0  0  0  0  0  0  0  0
  -90.9080   25.8012   -1.2636 C   0  0  0  0  0  0  0  0  0  0  0  0
  -90.1504   24.9763   -0.4477 C   0  0  0  0  0  0  0  0  0  0  0  0
  -88.8113   25.2414   -0.4097 C   0  0  0  0  0  0  0  0  0  0  0  0
  -88.2021   26.2727   -1.1341 C   0  0  0  0  0  0  0  0  0  0  0  0
  -90.7852   23.8763    0.3221 C   0  0  0  0  0  0  0  0  0  0  0  0
  -91.1692   24.1795    1.4505 O   0  0  0  0  0  0  0  0  0  0  0  0
  -90.8766   22.6419   -0.3009 N   0  0  0  0  0  0  0  0  0  0  0  0
  -90.4968   22.5020   -1.2954 H   0  0  0  0  0  0  0  0  0  0  0  0
  -91.4371   21.4751    0.2579 C   0  0  0  0  0  0  0  0  0  0  0  0
  -92.8221   21.2505    0.1558 C   0  0  0  0  0  0  0  0  0  0  0  0
  -93.3574   20.1170    0.6800 C   0  0  0  0  0  0  0  0  0  0  0  0
  -92.5899   19.1777    1.3099 C   0  0  0  0  0  0  0  0  0  0  0  0
  -91.2388   19.3736    1.4219 C   0  0  0  0  0  0  0  0  0  0  0  0
  -90.6714   20.5280    0.8913 C   0  0  0  0  0  0  0  0  0  0  0  0
  -90.3473   18.3925    2.1028 C   0  0  0  0  0  0  0  0  0  0  0  0
  -89.2806   19.0999    2.7332 N   0  0  0  0  0  0  0  0  0  0  0  0
  -88.3432   18.6530    2.5748 H   0  0  0  0  0  0  0  0  0  0  0  0
  -89.3836   19.4113    4.1023 C   0  0  0  0  0  0  0  0  0  0  0  0
  -88.2883   20.2386    4.6695 C   0  0  0  0  0  0  0  0  0  0  0  0
  -87.9953   19.8045    5.9864 F   0  0  0  0  0  0  0  0  0  0  0  0
  -88.6236   21.5702    4.7743 F   0  0  0  0  0  0  0  0  0  0  0  0
  -87.1470   20.0836    3.9004 F   0  0  0  0  0  0  0  0  0  0  0  0
 28 29  1  0  0  0
 29 22  1  0  0  0
 22 23  2  0  0  0
 23 24  1  0  0  0
 24 25  2  0  0  0
 25 26  1  0  0  0
 26 27  2  0  0  0
 27 20  1  0  0  0
 20  1  1  0  0  0
  1  2  2  0  0  0
  2  3  1  0  0  0
  3 30  1  0  0  0
 30 32  1  0  0  0
 32 33  2  0  0  0
 33 34  1  0  0  0
 34 35  2  0  0  0
 35 36  1  0  0  0
 36 37  2  0  0  0
 35 38  1  0  0  0
 38 39  2  0  0  0
 38 40  1  0  0  0
 40 42  1  0  0  0
 42 43  2  0  0  0
 43 44  1  0  0  0
 44 45  2  0  0  0
 45 46  1  0  0  0
 46 48  1  0  0  0
 48 49  1  0  0  0
 49 51  1  0  0  0
 51 52  1  0  0  0
 52 53  1  0  0  0
 52 54  1  0  0  0
 52 55  1  0  0  0
 46 47  2  0  0  0
  3  4  2  0  0  0
  4  5  1  0  0  0
  5  7  1  0  0  0
  7  8  1  0  0  0
  8  9  1  0  0  0
  9 10  1  0  0  0
 10 11  1  0  0  0
 11 12  1  0  0  0
 10 13  1  0  0  0
 13 14  2  0  0  0
 13 15  1  0  0  0
 15 16  1  0  0  0
 16 17  1  0  0  0
 16 18  1  0  0  0
 16 19  1  0  0  0
  5  6  2  0  0  0
 27 22  1  0  0  0
  6  1  1  0  0  0
 37 32  1  0  0  0
 47 42  1  0  0  0
 12  7  1  0  0  0
 20 21  1  0  0  0
 30 31  1  0  0  0
 40 41  1  0  0  0
 49 50  1  0  0  0
M  END
> <minimizedAffinity>
-10.15111

> <CNNscore>
0.0336059146

> <CNNaffinity>
6.4798555374

> <CNN_VS>
0.2177614719

> <CNNaffinity_variance>
0.6510038972

$$$$
[H]c1c([H])c([H])c(C([H])([H])C([H])([H])[H])c(N([H])c2nc(N([H])c3c([H])c([H])c(C(=O)N([H])c4c([H])c([H])c([H])c(C([H])([H])N([H])C([H])([H])C(F)(F)F)c4[H])c([H])c3[H])nc(N3C([H])([H])C([H])([H])N(C(=O)OC(C([H])([H])[H])(C([H])([H])[H])C([H])([H])[H])C([H])([H])C3([H])[H])n2)c1[H]


 55 59  0  0  0  0  0  0  0  0999 V2000
  -87.4098   30.4460   -0.6812 C   0  0  0  0  0  0  0  0  0  0  0  0
  -88.1378   29.3061   -0.8931 N   0  0  0  0  0  0  0  0  0  0  0  0
  -88.9748   29.1925   -1.8994 C   0  0  0  0  0  0  0  0  0  0  0  0
  -89.1019   30.2557   -2.7402 N   0  0  0  0  0  0  0  0  0  0  0  0
  -88.4229   31.3998   -2.5937 C   0  0  0  0  0  0  0  0  0  0  0  0
  -87.5832   31.4520   -1.5453 N   0  0  0  0  0  0  0  0  0  0  0  0
  -88.5842   32.5030   -3.4866 N   0  0  0  0  0  0  0  0  0  0  0  0
  -89.7019   32.6008   -4.3864 C   0  0  0  0  0  0  0  0  0  0  0  0
  -90.0875   33.9812   -4.7201 C   0  0  0  0  0  0  0  0  0  0  0  0
  -89.4194   35.0529   -4.0537 N   0  0  0  0  0  0  0  0  0  0  0  0
  -88.2010   34.9047   -3.2837 C   0  0  0  0  0  0  0  0  0  0  0  0
  -87.5866   33.5390   -3.4871 C   0  0  0  0  0  0  0  0  0  0  0  0
  -89.9666   36.3623   -4.1413 C   0  0  0  0  0  0  0  0  0  0  0  0
  -91.0114   36.5584   -4.7866 O   0  0  0  0  0  0  0  0  0  0  0  0
  -89.3649   37.4401   -3.5234 O   0  0  0  0  0  0  0  0  0  0  0  0
  -88.6180   38.4371   -4.1581 C   0  0  0  0  0  0  0  0  0  0  0  0
  -87.8889   37.9922   -5.3825 C   0  0  0  0  0  0  0  0  0  0  0  0
  -89.5867   39.5874   -4.4598 C   0  0  0  0  0  0  0  0  0  0  0  0
  -87.6025   39.0103   -3.1690 C   0  0  0  0  0  0  0  0  0  0  0  0
  -86.5397   30.4384    0.4309 N   0  0  0  0  0  0  0  0  0  0  0  0
  -86.9812   30.1149    1.3578 H   0  0  0  0  0  0  0  0  0  0  0  0
  -84.3184   29.9771    1.2644 C   0  0  0  0  0  0  0  0  0  0  0  0
  -83.0036   30.3394    1.3492 C   0  0  0  0  0  0  0  0  0  0  0  0
  -82.4977   31.4648    0.7419 C   0  0  0  0  0  0  0  0  0  0  0  0
  -83.3338   32.2618    0.0212 C   0  0  0  0  0  0  0  0  0  0  0  0
  -84.6822   31.9053   -0.0756 C   0  0  0  0  0  0  0  0  0  0  0  0
  -85.1880   30.7829    0.5299 C   0  0  0  0  0  0  0  0  0  0  0  0
  -83.7206   27.9511    2.5883 C   0  0  0  0  0  0  0  0  0  0  0  0
  -84.7905   28.7652    1.9337 C   0  0  0  0  0  0  0  0  0  0  0  0
  -89.7420   28.0744   -2.1672 N   0  0  0  0  0  0  0  0  0  0  0  0
  -90.1541   27.9688   -3.1393 H   0  0  0  0  0  0  0  0  0  0  0  0
  -90.0297   27.0348   -1.2406 C   0  0  0  0  0  0  0  0  0  0  0  0
  -89.2316   25.8783   -1.2755 C   0  0  0  0  0  0  0  0  0  0  0  0
  -89.4545   24.8722   -0.3993 C   0  0  0  0  0  0  0  0  0  0  0  0
  -90.4553   24.9209    0.5578 C   0  0  0  0  0  0  0  0  0  0  0  0
  -91.2148   26.0559    0.5698 C   0  0  0  0  0  0  0  0  0  0  0  0
  -91.0269   27.1263   -0.3124 C   0  0  0  0  0  0  0  0  0  0  0  0
  -90.6611   23.7931    1.5019 C   0  0  0  0  0  0  0  0  0  0  0  0
  -91.5131   23.9832    2.3683 O   0  0  0  0  0  0  0  0  0  0  0  0
  -89.8835   22.6620    1.3119 N   0  0  0  0  0  0  0  0  0  0  0  0
  -89.1653   22.6199    0.5149 H   0  0  0  0  0  0  0  0  0  0  0  0
  -89.9229   21.4921    2.0978 C   0  0  0  0  0  0  0  0  0  0  0  0
  -90.7603   20.4270    1.7190 C   0  0  0  0  0  0  0  0  0  0  0  0
  -90.7836   19.2939    2.4684 C   0  0  0  0  0  0  0  0  0  0  0  0
  -90.0144   19.1509    3.5892 C   0  0  0  0  0  0  0  0  0  0  0  0
  -89.1908   20.1738    3.9785 C   0  0  0  0  0  0  0  0  0  0  0  0
  -89.1525   21.3425    3.2241 C   0  0  0  0  0  0  0  0  0  0  0  0
  -88.3326   20.0846    5.1936 C   0  0  0  0  0  0  0  0  0  0  0  0
  -87.8999   21.3970    5.5490 N   0  0  0  0  0  0  0  0  0  0  0  0
  -87.2538   21.8215    4.8379 H   0  0  0  0  0  0  0  0  0  0  0  0
  -87.3380   21.6087    6.8224 C   0  0  0  0  0  0  0  0  0  0  0  0
  -87.0545   23.0204    7.1862 C   0  0  0  0  0  0  0  0  0  0  0  0
  -87.8171   23.8874    6.3644 F   0  0  0  0  0  0  0  0  0  0  0  0
  -85.7373   23.3695    6.9872 F   0  0  0  0  0  0  0  0  0  0  0  0
  -87.4221   23.2405    8.5032 F   0  0  0  0  0  0  0  0  0  0  0  0
 28 29  1  0  0  0
 29 22  1  0  0  0
 22 23  2  0  0  0
 23 24  1  0  0  0
 24 25  2  0  0  0
 25 26  1  0  0  0
 26 27  2  0  0  0
 27 20  1  0  0  0
 20  1  1  0  0  0
  1  2  2  0  0  0
  2  3  1  0  0  0
  3 30  1  0  0  0
 30 32  1  0  0  0
 32 33  2  0  0  0
 33 34  1  0  0  0
 34 35  2  0  0  0
 35 36  1  0  0  0
 36 37  2  0  0  0
 35 38  1  0  0  0
 38 39  2  0  0  0
 38 40  1  0  0  0
 40 42  1  0  0  0
 42 43  2  0  0  0
 43 44  1  0  0  0
 44 45  2  0  0  0
 45 46  1  0  0  0
 46 48  1  0  0  0
 48 49  1  0  0  0
 49 51  1  0  0  0
 51 52  1  0  0  0
 52 53  1  0  0  0
 52 54  1  0  0  0
 52 55  1  0  0  0
 46 47  2  0  0  0
  3  4  2  0  0  0
  4  5  1  0  0  0
  5  7  1  0  0  0
  7  8  1  0  0  0
  8  9  1  0  0  0
  9 10  1  0  0  0
 10 11  1  0  0  0
 11 12  1  0  0  0
 10 13  1  0  0  0
 13 14  2  0  0  0
 13 15  1  0  0  0
 15 16  1  0  0  0
 16 17  1  0  0  0
 16 18  1  0  0  0
 16 19  1  0  0  0
  5  6  2  0  0  0
 27 22  1  0  0  0
  6  1  1  0  0  0
 37 32  1  0  0  0
 47 42  1  0  0  0
 12  7  1  0  0  0
 20 21  1  0  0  0
 30 31  1  0  0  0
 40 41  1  0  0  0
 49 50  1  0  0  0
M  END
> <minimizedAffinity>
-10.24835

> <CNNscore>
0.0328748785

> <CNNaffinity>
7.0693154335

> <CNN_VS>
0.2324028909

> <CNNaffinity_variance>
0.2497232854

$$$$
[H]c1c([H])c([H])c(C([H])([H])C([H])([H])[H])c(N([H])c2nc(N([H])c3c([H])c([H])c(C(=O)N([H])c4c([H])c([H])c([H])c(C([H])([H])N([H])C([H])([H])C(F)(F)F)c4[H])c([H])c3[H])nc(N3C([H])([H])C([H])([H])N(C(=O)OC(C([H])([H])[H])(C([H])([H])[H])C([H])([H])[H])C([H])([H])C3([H])[H])n2)c1[H]


 55 59  0  0  0  0  0  0  0  0999 V2000
  -87.2064   29.2873    0.1218 C   0  0  0  0  0  0  0  0  0  0  0  0
  -87.1242   29.7421   -1.1669 N   0  0  0  0  0  0  0  0  0  0  0  0
  -87.8605   29.2374   -2.1307 C   0  0  0  0  0  0  0  0  0  0  0  0
  -88.7220   28.2332   -1.8096 N   0  0  0  0  0  0  0  0  0  0  0  0
  -88.8545   27.7397   -0.5726 C   0  0  0  0  0  0  0  0  0  0  0  0
  -88.0733   28.2990    0.3675 N   0  0  0  0  0  0  0  0  0  0  0  0
  -89.7602   26.6783   -0.2670 N   0  0  0  0  0  0  0  0  0  0  0  0
  -90.7700   26.2444   -1.1948 C   0  0  0  0  0  0  0  0  0  0  0  0
  -91.1428   24.8273   -1.0601 C   0  0  0  0  0  0  0  0  0  0  0  0
  -90.4124   24.0176   -0.1381 N   0  0  0  0  0  0  0  0  0  0  0  0
  -89.5214   24.5371    0.8795 C   0  0  0  0  0  0  0  0  0  0  0  0
  -89.6594   26.0359    1.0158 C   0  0  0  0  0  0  0  0  0  0  0  0
  -90.5569   22.6046   -0.2024 C   0  0  0  0  0  0  0  0  0  0  0  0
  -91.3061   22.0935   -1.0533 O   0  0  0  0  0  0  0  0  0  0  0  0
  -89.8816   21.7687    0.6641 O   0  0  0  0  0  0  0  0  0  0  0  0
  -90.4434   21.0782    1.7422 C   0  0  0  0  0  0  0  0  0  0  0  0
  -91.6676   20.2894    1.4136 C   0  0  0  0  0  0  0  0  0  0  0  0
  -89.3345   20.1914    2.3223 C   0  0  0  0  0  0  0  0  0  0  0  0
  -90.7892   22.0731    2.8506 C   0  0  0  0  0  0  0  0  0  0  0  0
  -86.3671   29.9186    1.0658 N   0  0  0  0  0  0  0  0  0  0  0  0
  -86.7623   29.9775    2.0653 H   0  0  0  0  0  0  0  0  0  0  0  0
  -84.0122   29.9448    1.6092 C   0  0  0  0  0  0  0  0  0  0  0  0
  -82.7828   30.5196    1.4507 C   0  0  0  0  0  0  0  0  0  0  0  0
  -82.5656   31.6081    0.6386 C   0  0  0  0  0  0  0  0  0  0  0  0
  -83.6141   32.1462   -0.0431 C   0  0  0  0  0  0  0  0  0  0  0  0
  -84.8789   31.5699    0.1080 C   0  0  0  0  0  0  0  0  0  0  0  0
  -85.0967   30.4840    0.9178 C   0  0  0  0  0  0  0  0  0  0  0  0
  -82.9911   27.8725    2.5461 C   0  0  0  0  0  0  0  0  0  0  0  0
  -84.1731   28.7864    2.4878 C   0  0  0  0  0  0  0  0  0  0  0  0
  -87.8234   29.6459   -3.4507 N   0  0  0  0  0  0  0  0  0  0  0  0
  -87.5870   28.9256   -4.1932 H   0  0  0  0  0  0  0  0  0  0  0  0
  -88.0815   30.9671   -3.9088 C   0  0  0  0  0  0  0  0  0  0  0  0
  -87.2317   31.9971   -3.4699 C   0  0  0  0  0  0  0  0  0  0  0  0
  -87.4256   33.2661   -3.8962 C   0  0  0  0  0  0  0  0  0  0  0  0
  -88.4455   33.6158   -4.7666 C   0  0  0  0  0  0  0  0  0  0  0  0
  -89.2553   32.5959   -5.1776 C   0  0  0  0  0  0  0  0  0  0  0  0
  -89.0992   31.2663   -4.7685 C   0  0  0  0  0  0  0  0  0  0  0  0
  -88.6182   35.0224   -5.2107 C   0  0  0  0  0  0  0  0  0  0  0  0
  -87.5746   35.6515   -5.3778 O   0  0  0  0  0  0  0  0  0  0  0  0
  -89.9167   35.4730   -5.3871 N   0  0  0  0  0  0  0  0  0  0  0  0
  -90.7507   34.8226   -5.2027 H   0  0  0  0  0  0  0  0  0  0  0  0
  -90.2918   36.7687   -5.7974 C   0  0  0  0  0  0  0  0  0  0  0  0
  -90.7416   37.6983   -4.8420 C   0  0  0  0  0  0  0  0  0  0  0  0
  -91.0861   38.9517   -5.2374 C   0  0  0  0  0  0  0  0  0  0  0  0
  -91.0107   39.3454   -6.5442 C   0  0  0  0  0  0  0  0  0  0  0  0
  -90.5757   38.4584   -7.4930 C   0  0  0  0  0  0  0  0  0  0  0  0
  -90.2179   37.1699   -7.1081 C   0  0  0  0  0  0  0  0  0  0  0  0
  -90.4773   38.8218   -8.9349 C   0  0  0  0  0  0  0  0  0  0  0  0
  -89.5683   39.9129   -9.0737 N   0  0  0  0  0  0  0  0  0  0  0  0
  -89.5526   40.3113  -10.0456 H   0  0  0  0  0  0  0  0  0  0  0  0
  -88.2347   39.7475   -8.6542 C   0  0  0  0  0  0  0  0  0  0  0  0
  -87.2928   39.2047   -9.6661 C   0  0  0  0  0  0  0  0  0  0  0  0
  -87.9933   38.9171  -10.8642 F   0  0  0  0  0  0  0  0  0  0  0  0
  -86.7101   38.0204   -9.2731 F   0  0  0  0  0  0  0  0  0  0  0  0
  -86.3238   40.1526   -9.9501 F   0  0  0  0  0  0  0  0  0  0  0  0
 28 29  1  0  0  0
 29 22  1  0  0  0
 22 23  2  0  0  0
 23 24  1  0  0  0
 24 25  2  0  0  0
 25 26  1  0  0  0
 26 27  2  0  0  0
 27 20  1  0  0  0
 20  1  1  0  0  0
  1  2  2  0  0  0
  2  3  1  0  0  0
  3 30  1  0  0  0
 30 32  1  0  0  0
 32 33  2  0  0  0
 33 34  1  0  0  0
 34 35  2  0  0  0
 35 36  1  0  0  0
 36 37  2  0  0  0
 35 38  1  0  0  0
 38 39  2  0  0  0
 38 40  1  0  0  0
 40 42  1  0  0  0
 42 43  2  0  0  0
 43 44  1  0  0  0
 44 45  2  0  0  0
 45 46  1  0  0  0
 46 48  1  0  0  0
 48 49  1  0  0  0
 49 51  1  0  0  0
 51 52  1  0  0  0
 52 53  1  0  0  0
 52 54  1  0  0  0
 52 55  1  0  0  0
 46 47  2  0  0  0
  3  4  2  0  0  0
  4  5  1  0  0  0
  5  7  1  0  0  0
  7  8  1  0  0  0
  8  9  1  0  0  0
  9 10  1  0  0  0
 10 11  1  0  0  0
 11 12  1  0  0  0
 10 13  1  0  0  0
 13 14  2  0  0  0
 13 15  1  0  0  0
 15 16  1  0  0  0
 16 17  1  0  0  0
 16 18  1  0  0  0
 16 19  1  0  0  0
  5  6  2  0  0  0
 27 22  1  0  0  0
  6  1  1  0  0  0
 37 32  1  0  0  0
 47 42  1  0  0  0
 12  7  1  0  0  0
 20 21  1  0  0  0
 30 31  1  0  0  0
 40 41  1  0  0  0
 49 50  1  0  0  0
M  END
> <minimizedAffinity>
-9.10179

> <CNNscore>
0.0316385813

> <CNNaffinity>
6.3612852097

> <CNN_VS>
0.2012620419

> <CNNaffinity_variance>
0.3394028842

$$$$
[H]c1sc([H])c(N([H])C(=O)N2C([H])([H])C([H])([H])N(C3([H])C([H])([H])C([H])([H])N(C(=O)c4sc5c([H])c([H])c([H])c([H])c5c4C([H])([H])[H])C([H])([H])C3([H])[H])C([H])([H])C2([H])[H])c1[H]


 33 37  0  0  0  0  0  0  0  0999 V2000
  -93.0145   33.5531   -7.2309 C   0  0  0  0  0  0  0  0  0  0  0  0
  -93.0396   32.9734   -8.3452 O   0  0  0  0  0  0  0  0  0  0  0  0
  -93.4059   32.8398   -6.0747 N   0  0  0  0  0  0  0  0  0  0  0  0
  -93.8229   31.4558   -6.2504 C   0  0  0  0  0  0  0  0  0  0  0  0
  -93.2276   30.5241   -5.2183 C   0  0  0  0  0  0  0  0  0  0  0  0
  -92.7442   31.2642   -4.0117 C   0  0  0  0  0  0  0  0  0  0  0  0
  -93.7517   32.3796   -3.7611 C   0  0  0  0  0  0  0  0  0  0  0  0
  -93.3876   33.4752   -4.7886 C   0  0  0  0  0  0  0  0  0  0  0  0
  -90.2213   34.4785   -6.5457 C   0  0  0  0  0  0  0  0  0  0  0  0
  -91.3359   35.4530   -6.9093 C   0  0  0  0  0  0  0  0  0  0  0  0
  -92.5728   34.9553   -7.2063 C   0  0  0  0  0  0  0  0  0  0  0  0
  -93.4812   36.3688   -7.5450 S   0  0  0  0  0  0  0  0  0  0  0  0
  -92.2765   37.5415   -7.3024 C   0  0  0  0  0  0  0  0  0  0  0  0
  -92.2399   38.9471   -7.3881 C   0  0  0  0  0  0  0  0  0  0  0  0
  -91.0852   39.6390   -7.1264 C   0  0  0  0  0  0  0  0  0  0  0  0
  -89.9869   38.8833   -6.7816 C   0  0  0  0  0  0  0  0  0  0  0  0
  -90.0074   37.5353   -6.6956 C   0  0  0  0  0  0  0  0  0  0  0  0
  -91.1855   36.7989   -6.9604 C   0  0  0  0  0  0  0  0  0  0  0  0
  -92.5246   30.4309   -2.8766 N   0  0  0  0  0  0  0  0  0  0  0  0
  -93.1077   29.1308   -2.9210 C   0  0  0  0  0  0  0  0  0  0  0  0
  -92.3279   28.0685   -2.1750 C   0  0  0  0  0  0  0  0  0  0  0  0
  -91.5255   28.5700   -1.1139 N   0  0  0  0  0  0  0  0  0  0  0  0
  -90.9211   29.8678   -1.1955 C   0  0  0  0  0  0  0  0  0  0  0  0
  -91.1010   30.3260   -2.6484 C   0  0  0  0  0  0  0  0  0  0  0  0
  -91.3081   27.7696    0.0676 C   0  0  0  0  0  0  0  0  0  0  0  0
  -91.8299   26.6376    0.1475 O   0  0  0  0  0  0  0  0  0  0  0  0
  -90.5153   28.2652    1.1150 N   0  0  0  0  0  0  0  0  0  0  0  0
  -90.0850   29.2235    1.0390 H   0  0  0  0  0  0  0  0  0  0  0  0
  -90.2878   27.4560    2.2957 C   0  0  0  0  0  0  0  0  0  0  0  0
  -90.7715   27.8405    3.4990 C   0  0  0  0  0  0  0  0  0  0  0  0
  -90.4955   27.0542    4.5751 C   0  0  0  0  0  0  0  0  0  0  0  0
  -89.5707   25.7943    3.9075 S   0  0  0  0  0  0  0  0  0  0  0  0
  -89.5593   26.3040    2.2697 C   0  0  0  0  0  0  0  0  0  0  0  0
  9 10  1  0  0  0
 10 11  2  0  0  0
 11 12  1  0  0  0
 12 13  1  0  0  0
 13 14  2  0  0  0
 14 15  1  0  0  0
 15 16  2  0  0  0
 16 17  1  0  0  0
 17 18  2  0  0  0
 11  1  1  0  0  0
  1  2  2  0  0  0
  1  3  1  0  0  0
  3  4  1  0  0  0
  4  5  1  0  0  0
  5  6  1  0  0  0
  6  7  1  0  0  0
  7  8  1  0  0  0
  6 19  1  0  0  0
 19 20  1  0  0  0
 20 21  1  0  0  0
 21 22  1  0  0  0
 22 23  1  0  0  0
 23 24  1  0  0  0
 22 25  1  0  0  0
 25 26  2  0  0  0
 25 27  1  0  0  0
 27 29  1  0  0  0
 29 30  1  0  0  0
 30 31  2  0  0  0
 31 32  1  0  0  0
 32 33  1  0  0  0
 18 10  1  0  0  0
  8  3  1  0  0  0
 24 19  1  0  0  0
 33 29  2  0  0  0
 18 13  1  0  0  0
 27 28  1  0  0  0
M  END
> <minimizedAffinity>
-5.42275

> <CNNscore>
0.3132668138

> <CNNaffinity>
5.4911251068

> <CNN_VS>
1.7201873064

> <CNNaffinity_variance>
0.4946060181

$$$$
[H]c1sc([H])c(N([H])C(=O)N2C([H])([H])C([H])([H])N(C3([H])C([H])([H])C([H])([H])N(C(=O)c4sc5c([H])c([H])c([H])c([H])c5c4C([H])([H])[H])C([H])([H])C3([H])[H])C([H])([H])C2([H])[H])c1[H]


 33 37  0  0  0  0  0  0  0  0999 V2000
  -94.4467   32.8085   -5.4563 C   0  0  0  0  0  0  0  0  0  0  0  0
  -94.8090   32.6918   -6.6536 O   0  0  0  0  0  0  0  0  0  0  0  0
  -94.6929   31.7468   -4.5558 N   0  0  0  0  0  0  0  0  0  0  0  0
  -95.3641   30.5658   -5.0798 C   0  0  0  0  0  0  0  0  0  0  0  0
  -94.7248   29.2726   -4.6252 C   0  0  0  0  0  0  0  0  0  0  0  0
  -93.8748   29.4677   -3.4099 C   0  0  0  0  0  0  0  0  0  0  0  0
  -94.6026   30.4824   -2.5366 C   0  0  0  0  0  0  0  0  0  0  0  0
  -94.2907   31.8514   -3.1826 C   0  0  0  0  0  0  0  0  0  0  0  0
  -91.4694   33.3035   -5.5928 C   0  0  0  0  0  0  0  0  0  0  0  0
  -92.4495   34.3627   -5.1011 C   0  0  0  0  0  0  0  0  0  0  0  0
  -93.7814   34.0611   -5.0687 C   0  0  0  0  0  0  0  0  0  0  0  0
  -94.4845   35.5039   -4.4671 S   0  0  0  0  0  0  0  0  0  0  0  0
  -93.0810   36.4413   -4.2751 C   0  0  0  0  0  0  0  0  0  0  0  0
  -92.8267   37.7514   -3.8244 C   0  0  0  0  0  0  0  0  0  0  0  0
  -91.5482   38.2458   -3.7809 C   0  0  0  0  0  0  0  0  0  0  0  0
  -90.5508   37.3932   -4.1987 C   0  0  0  0  0  0  0  0  0  0  0  0
  -90.7800   36.1348   -4.6332 C   0  0  0  0  0  0  0  0  0  0  0  0
  -92.0889   35.6019   -4.6875 C   0  0  0  0  0  0  0  0  0  0  0  0
  -93.5580   28.2560   -2.7301 N   0  0  0  0  0  0  0  0  0  0  0  0
  -94.3421   27.1145   -3.0683 C   0  0  0  0  0  0  0  0  0  0  0  0
  -93.6061   25.7952   -2.9631 C   0  0  0  0  0  0  0  0  0  0  0  0
  -92.5251   25.8015   -2.0398 N   0  0  0  0  0  0  0  0  0  0  0  0
  -91.7477   26.9864   -1.8217 C   0  0  0  0  0  0  0  0  0  0  0  0
  -92.1554   27.9678   -2.9280 C   0  0  0  0  0  0  0  0  0  0  0  0
  -92.1951   24.6028   -1.3061 C   0  0  0  0  0  0  0  0  0  0  0  0
  -92.8661   23.5656   -1.4900 O   0  0  0  0  0  0  0  0  0  0  0  0
  -91.1272   24.6094   -0.3947 N   0  0  0  0  0  0  0  0  0  0  0  0
  -90.5719   25.4915   -0.2436 H   0  0  0  0  0  0  0  0  0  0  0  0
  -90.7891   23.4022    0.3326 C   0  0  0  0  0  0  0  0  0  0  0  0
  -89.9896   22.4633   -0.2234 C   0  0  0  0  0  0  0  0  0  0  0  0
  -89.7365   21.3370    0.4976 C   0  0  0  0  0  0  0  0  0  0  0  0
  -90.6079   21.5924    1.9342 S   0  0  0  0  0  0  0  0  0  0  0  0
  -91.2745   23.1321    1.5774 C   0  0  0  0  0  0  0  0  0  0  0  0
  9 10  1  0  0  0
 10 11  2  0  0  0
 11 12  1  0  0  0
 12 13  1  0  0  0
 13 14  2  0  0  0
 14 15  1  0  0  0
 15 16  2  0  0  0
 16 17  1  0  0  0
 17 18  2  0  0  0
 11  1  1  0  0  0
  1  2  2  0  0  0
  1  3  1  0  0  0
  3  4  1  0  0  0
  4  5  1  0  0  0
  5  6  1  0  0  0
  6  7  1  0  0  0
  7  8  1  0  0  0
  6 19  1  0  0  0
 19 20  1  0  0  0
 20 21  1  0  0  0
 21 22  1  0  0  0
 22 23  1  0  0  0
 23 24  1  0  0  0
 22 25  1  0  0  0
 25 26  2  0  0  0
 25 27  1  0  0  0
 27 29  1  0  0  0
 29 30  1  0  0  0
 30 31  2  0  0  0
 31 32  1  0  0  0
 32 33  1  0  0  0
 18 10  1  0  0  0
  8  3  1  0  0  0
 24 19  1  0  0  0
 33 29  2  0  0  0
 18 13  1  0  0  0
 27 28  1  0  0  0
M  END
> <minimizedAffinity>
-4.95515

> <CNNscore>
0.2211913317

> <CNNaffinity>
4.9427957535

> <CNN_VS>
1.0933035612

> <CNNaffinity_variance>
0.3559010625

$$$$
[H]c1sc([H])c(N([H])C(=O)N2C([H])([H])C([H])([H])N(C3([H])C([H])([H])C([H])([H])N(C(=O)c4sc5c([H])c([H])c([H])c([H])c5c4C([H])([H])[H])C([H])([H])C3([H])[H])C([H])([H])C2([H])[H])c1[H]


 33 37  0  0  0  0  0  0  0  0999 V2000
  -85.1145   32.6731   -0.8813 C   0  0  0  0  0  0  0  0  0  0  0  0
  -84.1193   33.3497   -1.2424 O   0  0  0  0  0  0  0  0  0  0  0  0
  -86.4030   33.0560   -1.3194 N   0  0  0  0  0  0  0  0  0  0  0  0
  -86.4985   34.2311   -2.1738 C   0  0  0  0  0  0  0  0  0  0  0  0
  -87.4176   34.0274   -3.3577 C   0  0  0  0  0  0  0  0  0  0  0  0
  -88.3564   32.8826   -3.1444 C   0  0  0  0  0  0  0  0  0  0  0  0
  -88.7568   32.9250   -1.6748 C   0  0  0  0  0  0  0  0  0  0  0  0
  -87.5581   32.3028   -0.9235 C   0  0  0  0  0  0  0  0  0  0  0  0
  -86.6418   30.0687   -0.9929 C   0  0  0  0  0  0  0  0  0  0  0  0
  -85.5074   30.3060   -0.0022 C   0  0  0  0  0  0  0  0  0  0  0  0
  -84.8659   31.5118   -0.0144 C   0  0  0  0  0  0  0  0  0  0  0  0
  -83.6990   31.3354    1.2285 S   0  0  0  0  0  0  0  0  0  0  0  0
  -84.0547   29.7502    1.7246 C   0  0  0  0  0  0  0  0  0  0  0  0
  -83.5296   28.8842    2.7036 C   0  0  0  0  0  0  0  0  0  0  0  0
  -84.0395   27.6226    2.8749 C   0  0  0  0  0  0  0  0  0  0  0  0
  -85.0775   27.2669    2.0428 C   0  0  0  0  0  0  0  0  0  0  0  0
  -85.5909   28.0868    1.0999 C   0  0  0  0  0  0  0  0  0  0  0  0
  -85.0827   29.3920    0.9038 C   0  0  0  0  0  0  0  0  0  0  0  0
  -89.4677   32.8774   -4.0366 N   0  0  0  0  0  0  0  0  0  0  0  0
  -90.2746   31.7022   -4.0389 C   0  0  0  0  0  0  0  0  0  0  0  0
  -91.7356   31.9459   -4.3538 C   0  0  0  0  0  0  0  0  0  0  0  0
  -91.9785   33.1072   -5.1371 N   0  0  0  0  0  0  0  0  0  0  0  0
  -91.1493   34.2701   -5.0095 C   0  0  0  0  0  0  0  0  0  0  0  0
  -90.2857   34.0375   -3.7632 C   0  0  0  0  0  0  0  0  0  0  0  0
  -93.0738   33.1281   -6.0773 C   0  0  0  0  0  0  0  0  0  0  0  0
  -93.8018   32.1201   -6.1948 O   0  0  0  0  0  0  0  0  0  0  0  0
  -93.3134   34.2754   -6.8503 N   0  0  0  0  0  0  0  0  0  0  0  0
  -92.6893   35.1174   -6.7467 H   0  0  0  0  0  0  0  0  0  0  0  0
  -94.4205   34.2996   -7.7853 C   0  0  0  0  0  0  0  0  0  0  0  0
  -94.8193   35.4615   -8.3519 C   0  0  0  0  0  0  0  0  0  0  0  0
  -95.8862   35.4229   -9.1960 C   0  0  0  0  0  0  0  0  0  0  0  0
  -96.3229   33.7805   -9.1941 S   0  0  0  0  0  0  0  0  0  0  0  0
  -95.1314   33.1839   -8.1140 C   0  0  0  0  0  0  0  0  0  0  0  0
  9 10  1  0  0  0
 10 11  2  0  0  0
 11 12  1  0  0  0
 12 13  1  0  0  0
 13 14  2  0  0  0
 14 15  1  0  0  0
 15 16  2  0  0  0
 16 17  1  0  0  0
 17 18  2  0  0  0
 11  1  1  0  0  0
  1  2  2  0  0  0
  1  3  1  0  0  0
  3  4  1  0  0  0
  4  5  1  0  0  0
  5  6  1  0  0  0
  6  7  1  0  0  0
  7  8  1  0  0  0
  6 19  1  0  0  0
 19 20  1  0  0  0
 20 21  1  0  0  0
 21 22  1  0  0  0
 22 23  1  0  0  0
 23 24  1  0  0  0
 22 25  1  0  0  0
 25 26  2  0  0  0
 25 27  1  0  0  0
 27 29  1  0  0  0
 29 30  1  0  0  0
 30 31  2  0  0  0
 31 32  1  0  0  0
 32 33  1  0  0  0
 18 10  1  0  0  0
  8  3  1  0  0  0
 24 19  1  0  0  0
 33 29  2  0  0  0
 18 13  1  0  0  0
 27 28  1  0  0  0
M  END
> <minimizedAffinity>
-7.93137

> <CNNscore>
0.2114885449

> <CNNaffinity>
6.2413234711

> <CNN_VS>
1.3199684620

> <CNNaffinity_variance>
0.1251625568

$$$$
[H]c1sc([H])c(N([H])C(=O)N2C([H])([H])C([H])([H])N(C3([H])C([H])([H])C([H])([H])N(C(=O)c4sc5c([H])c([H])c([H])c([H])c5c4C([H])([H])[H])C([H])([H])C3([H])[H])C([H])([H])C2([H])[H])c1[H]


 33 37  0  0  0  0  0  0  0  0999 V2000
  -91.6314   34.3171   -6.4404 C   0  0  0  0  0  0  0  0  0  0  0  0
  -91.6211   34.3730   -7.6955 O   0  0  0  0  0  0  0  0  0  0  0  0
  -92.4946   33.3993   -5.7991 N   0  0  0  0  0  0  0  0  0  0  0  0
  -93.3335   32.5640   -6.6467 C   0  0  0  0  0  0  0  0  0  0  0  0
  -93.3535   31.1149   -6.2134 C   0  0  0  0  0  0  0  0  0  0  0  0
  -92.9102   30.9510   -4.7942 C   0  0  0  0  0  0  0  0  0  0  0  0
  -93.4765   32.1405   -4.0284 C   0  0  0  0  0  0  0  0  0  0  0  0
  -92.5281   33.3128   -4.3674 C   0  0  0  0  0  0  0  0  0  0  0  0
  -92.2876   37.1656   -5.6770 C   0  0  0  0  0  0  0  0  0  0  0  0
  -90.9511   36.5176   -5.3334 C   0  0  0  0  0  0  0  0  0  0  0  0
  -90.7306   35.2245   -5.7144 C   0  0  0  0  0  0  0  0  0  0  0  0
  -89.1463   34.9212   -5.1350 S   0  0  0  0  0  0  0  0  0  0  0  0
  -88.8108   36.4306   -4.4318 C   0  0  0  0  0  0  0  0  0  0  0  0
  -87.7053   36.9741   -3.7487 C   0  0  0  0  0  0  0  0  0  0  0  0
  -87.7293   38.2639   -3.2831 C   0  0  0  0  0  0  0  0  0  0  0  0
  -88.8827   38.9769   -3.5231 C   0  0  0  0  0  0  0  0  0  0  0  0
  -89.9503   38.4686   -4.1766 C   0  0  0  0  0  0  0  0  0  0  0  0
  -89.9501   37.1418   -4.6664 C   0  0  0  0  0  0  0  0  0  0  0  0
  -93.2577   29.6912   -4.2259 N   0  0  0  0  0  0  0  0  0  0  0  0
  -93.3623   28.5939   -5.1299 C   0  0  0  0  0  0  0  0  0  0  0  0
  -92.9958   27.2520   -4.5316 C   0  0  0  0  0  0  0  0  0  0  0  0
  -93.1735   27.1723   -3.1233 N   0  0  0  0  0  0  0  0  0  0  0  0
  -92.9741   28.3206   -2.2881 C   0  0  0  0  0  0  0  0  0  0  0  0
  -92.3115   29.3795   -3.1784 C   0  0  0  0  0  0  0  0  0  0  0  0
  -93.5593   25.9218   -2.5138 C   0  0  0  0  0  0  0  0  0  0  0  0
  -93.7346   24.9159   -3.2331 O   0  0  0  0  0  0  0  0  0  0  0  0
  -93.7343   25.8435   -1.1229 N   0  0  0  0  0  0  0  0  0  0  0  0
  -93.5893   26.6997   -0.5270 H   0  0  0  0  0  0  0  0  0  0  0  0
  -94.1100   24.5847   -0.5106 C   0  0  0  0  0  0  0  0  0  0  0  0
  -95.4016   24.3259   -0.2028 C   0  0  0  0  0  0  0  0  0  0  0  0
  -95.6850   23.1395    0.4009 C   0  0  0  0  0  0  0  0  0  0  0  0
  -94.1613   22.3987    0.5344 S   0  0  0  0  0  0  0  0  0  0  0  0
  -93.1997   23.6240   -0.1841 C   0  0  0  0  0  0  0  0  0  0  0  0
  9 10  1  0  0  0
 10 11  2  0  0  0
 11 12  1  0  0  0
 12 13  1  0  0  0
 13 14  2  0  0  0
 14 15  1  0  0  0
 15 16  2  0  0  0
 16 17  1  0  0  0
 17 18  2  0  0  0
 11  1  1  0  0  0
  1  2  2  0  0  0
  1  3  1  0  0  0
  3  4  1  0  0  0
  4  5  1  0  0  0
  5  6  1  0  0  0
  6  7  1  0  0  0
  7  8  1  0  0  0
  6 19  1  0  0  0
 19 20  1  0  0  0
 20 21  1  0  0  0
 21 22  1  0  0  0
 22 23  1  0  0  0
 23 24  1  0  0  0
 22 25  1  0  0  0
 25 26  2  0  0  0
 25 27  1  0  0  0
 27 29  1  0  0  0
 29 30  1  0  0  0
 30 31  2  0  0  0
 31 32  1  0  0  0
 32 33  1  0  0  0
 18 10  1  0  0  0
  8  3  1  0  0  0
 24 19  1  0  0  0
 33 29  2  0  0  0
 18 13  1  0  0  0
 27 28  1  0  0  0
M  END
> <minimizedAffinity>
-5.19575

> <CNNscore>
0.1890448034

> <CNNaffinity>
4.9928851128

> <CNN_VS>
0.9438790083

> <CNNaffinity_variance>
0.1457032561

$$$$
[H]c1sc([H])c(N([H])C(=O)N2C([H])([H])C([H])([H])N(C3([H])C([H])([H])C([H])([H])N(C(=O)c4sc5c([H])c([H])c([H])c([H])c5c4C([H])([H])[H])C([H])([H])C3([H])[H])C([H])([H])C2([H])[H])c1[H]


 33 37  0  0  0  0  0  0  0  0999 V2000
  -91.9423   35.8780   -6.7016 C   0  0  0  0  0  0  0  0  0  0  0  0
  -91.9332   36.1116   -7.9360 O   0  0  0  0  0  0  0  0  0  0  0  0
  -92.7133   34.7995   -6.2105 N   0  0  0  0  0  0  0  0  0  0  0  0
  -93.4630   34.0152   -7.1815 C   0  0  0  0  0  0  0  0  0  0  0  0
  -93.3418   32.5244   -6.9563 C   0  0  0  0  0  0  0  0  0  0  0  0
  -92.8895   32.2051   -5.5668 C   0  0  0  0  0  0  0  0  0  0  0  0
  -93.5728   33.2137   -4.6515 C   0  0  0  0  0  0  0  0  0  0  0  0
  -92.7432   34.5086   -4.8060 C   0  0  0  0  0  0  0  0  0  0  0  0
  -89.2044   35.2056   -5.6154 C   0  0  0  0  0  0  0  0  0  0  0  0
  -89.8992   36.5281   -5.3110 C   0  0  0  0  0  0  0  0  0  0  0  0
  -91.1377   36.7566   -5.8397 C   0  0  0  0  0  0  0  0  0  0  0  0
  -91.5205   38.3206   -5.2522 S   0  0  0  0  0  0  0  0  0  0  0  0
  -90.1105   38.6380   -4.3597 C   0  0  0  0  0  0  0  0  0  0  0  0
  -89.6619   39.7229   -3.5812 C   0  0  0  0  0  0  0  0  0  0  0  0
  -88.4382   39.6881   -2.9630 C   0  0  0  0  0  0  0  0  0  0  0  0
  -87.6931   38.5453   -3.1505 C   0  0  0  0  0  0  0  0  0  0  0  0
  -88.1105   37.4975   -3.8942 C   0  0  0  0  0  0  0  0  0  0  0  0
  -89.3679   37.5091   -4.5415 C   0  0  0  0  0  0  0  0  0  0  0  0
  -93.1135   30.8499   -5.1871 N   0  0  0  0  0  0  0  0  0  0  0  0
  -93.6763   29.9967   -6.1809 C   0  0  0  0  0  0  0  0  0  0  0  0
  -93.2441   28.5488   -6.0814 C   0  0  0  0  0  0  0  0  0  0  0  0
  -92.8623   28.1417   -4.7738 N   0  0  0  0  0  0  0  0  0  0  0  0
  -92.2346   29.0599   -3.8689 C   0  0  0  0  0  0  0  0  0  0  0  0
  -91.8696   30.2930   -4.7052 C   0  0  0  0  0  0  0  0  0  0  0  0
  -93.1041   26.7862   -4.3401 C   0  0  0  0  0  0  0  0  0  0  0  0
  -93.6497   25.9791   -5.1216 O   0  0  0  0  0  0  0  0  0  0  0  0
  -92.7265   26.3846   -3.0488 N   0  0  0  0  0  0  0  0  0  0  0  0
  -92.2722   27.0755   -2.3964 H   0  0  0  0  0  0  0  0  0  0  0  0
  -92.9587   25.0203   -2.6184 C   0  0  0  0  0  0  0  0  0  0  0  0
  -92.0003   24.0775   -2.7677 C   0  0  0  0  0  0  0  0  0  0  0  0
  -92.2920   22.8076   -2.3742 C   0  0  0  0  0  0  0  0  0  0  0  0
  -93.8876   22.9355   -1.8035 S   0  0  0  0  0  0  0  0  0  0  0  0
  -94.1426   24.6086   -2.0825 C   0  0  0  0  0  0  0  0  0  0  0  0
  9 10  1  0  0  0
 10 11  2  0  0  0
 11 12  1  0  0  0
 12 13  1  0  0  0
 13 14  2  0  0  0
 14 15  1  0  0  0
 15 16  2  0  0  0
 16 17  1  0  0  0
 17 18  2  0  0  0
 11  1  1  0  0  0
  1  2  2  0  0  0
  1  3  1  0  0  0
  3  4  1  0  0  0
  4  5  1  0  0  0
  5  6  1  0  0  0
  6  7  1  0  0  0
  7  8  1  0  0  0
  6 19  1  0  0  0
 19 20  1  0  0  0
 20 21  1  0  0  0
 21 22  1  0  0  0
 22 23  1  0  0  0
 23 24  1  0  0  0
 22 25  1  0  0  0
 25 26  2  0  0  0
 25 27  1  0  0  0
 27 29  1  0  0  0
 29 30  1  0  0  0
 30 31  2  0  0  0
 31 32  1  0  0  0
 32 33  1  0  0  0
 18 10  1  0  0  0
  8  3  1  0  0  0
 24 19  1  0  0  0
 33 29  2  0  0  0
 18 13  1  0  0  0
 27 28  1  0  0  0
M  END
> <minimizedAffinity>
-5.48339

> <CNNscore>
0.1825280637

> <CNNaffinity>
4.9672756195

> <CNN_VS>
0.9066671729

> <CNNaffinity_variance>
0.2904278040

$$$$
[H]c1sc([H])c(N([H])C(=O)N2C([H])([H])C([H])([H])N(C3([H])C([H])([H])C([H])([H])N(C(=O)c4sc5c([H])c([H])c([H])c([H])c5c4C([H])([H])[H])C([H])([H])C3([H])[H])C([H])([H])C2([H])[H])c1[H]


 33 37  0  0  0  0  0  0  0  0999 V2000
  -93.9011   32.8826   -5.4984 C   0  0  0  0  0  0  0  0  0  0  0  0
  -93.7529   32.6488   -6.7239 O   0  0  0  0  0  0  0  0  0  0  0  0
  -94.0678   31.7989   -4.6059 N   0  0  0  0  0  0  0  0  0  0  0  0
  -94.0596   30.4574   -5.1719 C   0  0  0  0  0  0  0  0  0  0  0  0
  -93.2188   29.4852   -4.3746 C   0  0  0  0  0  0  0  0  0  0  0  0
  -92.9762   29.9703   -2.9807 C   0  0  0  0  0  0  0  0  0  0  0  0
  -94.2673   30.6428   -2.5304 C   0  0  0  0  0  0  0  0  0  0  0  0
  -94.2391   32.0349   -3.2012 C   0  0  0  0  0  0  0  0  0  0  0  0
  -91.4297   34.4438   -4.7351 C   0  0  0  0  0  0  0  0  0  0  0  0
  -92.8231   35.0620   -4.7120 C   0  0  0  0  0  0  0  0  0  0  0  0
  -93.8908   34.2894   -5.0709 C   0  0  0  0  0  0  0  0  0  0  0  0
  -95.2141   35.3655   -4.9017 S   0  0  0  0  0  0  0  0  0  0  0  0
  -94.3828   36.7537   -4.3848 C   0  0  0  0  0  0  0  0  0  0  0  0
  -94.7728   38.0615   -4.0360 C   0  0  0  0  0  0  0  0  0  0  0  0
  -93.8449   38.9930   -3.6458 C   0  0  0  0  0  0  0  0  0  0  0  0
  -92.5339   38.5726   -3.6185 C   0  0  0  0  0  0  0  0  0  0  0  0
  -92.1455   37.3219   -3.9502 C   0  0  0  0  0  0  0  0  0  0  0  0
  -93.0829   36.3435   -4.3557 C   0  0  0  0  0  0  0  0  0  0  0  0
  -92.5235   28.9544   -2.0897 N   0  0  0  0  0  0  0  0  0  0  0  0
  -91.9983   27.7722   -2.6888 C   0  0  0  0  0  0  0  0  0  0  0  0
  -90.9137   27.0897   -1.8820 C   0  0  0  0  0  0  0  0  0  0  0  0
  -90.9818   27.3380   -0.4839 N   0  0  0  0  0  0  0  0  0  0  0  0
  -91.4603   28.5921    0.0204 C   0  0  0  0  0  0  0  0  0  0  0  0
  -91.5470   29.5285   -1.1915 C   0  0  0  0  0  0  0  0  0  0  0  0
  -90.5649   26.3205    0.4515 C   0  0  0  0  0  0  0  0  0  0  0  0
  -90.1460   25.2253    0.0216 O   0  0  0  0  0  0  0  0  0  0  0  0
  -90.6320   26.5665    1.8322 N   0  0  0  0  0  0  0  0  0  0  0  0
  -90.9923   27.4918    2.1833 H   0  0  0  0  0  0  0  0  0  0  0  0
  -90.2019   25.5488    2.7702 C   0  0  0  0  0  0  0  0  0  0  0  0
  -90.8875   24.3891    2.8918 C   0  0  0  0  0  0  0  0  0  0  0  0
  -90.4521   23.4877    3.8140 C   0  0  0  0  0  0  0  0  0  0  0  0
  -89.1008   24.2570    4.5000 S   0  0  0  0  0  0  0  0  0  0  0  0
  -89.1262   25.7117    3.5915 C   0  0  0  0  0  0  0  0  0  0  0  0
  9 10  1  0  0  0
 10 11  2  0  0  0
 11 12  1  0  0  0
 12 13  1  0  0  0
 13 14  2  0  0  0
 14 15  1  0  0  0
 15 16  2  0  0  0
 16 17  1  0  0  0
 17 18  2  0  0  0
 11  1  1  0  0  0
  1  2  2  0  0  0
  1  3  1  0  0  0
  3  4  1  0  0  0
  4  5  1  0  0  0
  5  6  1  0  0  0
  6  7  1  0  0  0
  7  8  1  0  0  0
  6 19  1  0  0  0
 19 20  1  0  0  0
 20 21  1  0  0  0
 21 22  1  0  0  0
 22 23  1  0  0  0
 23 24  1  0  0  0
 22 25  1  0  0  0
 25 26  2  0  0  0
 25 27  1  0  0  0
 27 29  1  0  0  0
 29 30  1  0  0  0
 30 31  2  0  0  0
 31 32  1  0  0  0
 32 33  1  0  0  0
 18 10  1  0  0  0
  8  3  1  0  0  0
 24 19  1  0  0  0
 33 29  2  0  0  0
 18 13  1  0  0  0
 27 28  1  0  0  0
M  END
> <minimizedAffinity>
-5.27560

> <CNNscore>
0.1767007858

> <CNNaffinity>
5.0937147141

> <CNN_VS>
0.9000633955

> <CNNaffinity_variance>
0.2636142373

$$$$
[H]c1sc([H])c(N([H])C(=O)N2C([H])([H])C([H])([H])N(C3([H])C([H])([H])C([H])([H])N(C(=O)c4sc5c([H])c([H])c([H])c([H])c5c4C([H])([H])[H])C([H])([H])C3([H])[H])C([H])([H])C2([H])[H])c1[H]


 33 37  0  0  0  0  0  0  0  0999 V2000
  -85.1738   32.6652   -0.5945 C   0  0  0  0  0  0  0  0  0  0  0  0
  -84.1975   33.3893   -0.9121 O   0  0  0  0  0  0  0  0  0  0  0  0
  -86.4778   33.0660   -0.9654 N   0  0  0  0  0  0  0  0  0  0  0  0
  -86.6108   34.3147   -1.7023 C   0  0  0  0  0  0  0  0  0  0  0  0
  -87.5549   34.2083   -2.8792 C   0  0  0  0  0  0  0  0  0  0  0  0
  -88.4716   33.0329   -2.7543 C   0  0  0  0  0  0  0  0  0  0  0  0
  -88.8373   32.9298   -1.2787 C   0  0  0  0  0  0  0  0  0  0  0  0
  -87.6120   32.2596   -0.6167 C   0  0  0  0  0  0  0  0  0  0  0  0
  -82.4709   31.9002    0.5178 C   0  0  0  0  0  0  0  0  0  0  0  0
  -83.7009   31.0153    0.6857 C   0  0  0  0  0  0  0  0  0  0  0  0
  -84.8876   31.4316    0.1527 C   0  0  0  0  0  0  0  0  0  0  0  0
  -85.9602   30.1622    0.5722 S   0  0  0  0  0  0  0  0  0  0  0  0
  -84.8821   29.1474    1.4049 C   0  0  0  0  0  0  0  0  0  0  0  0
  -85.0042   27.9037    2.0548 C   0  0  0  0  0  0  0  0  0  0  0  0
  -83.9220   27.3137    2.6562 C   0  0  0  0  0  0  0  0  0  0  0  0
  -82.7330   28.0045    2.5836 C   0  0  0  0  0  0  0  0  0  0  0  0
  -82.6013   29.1977    1.9639 C   0  0  0  0  0  0  0  0  0  0  0  0
  -83.7018   29.8265    1.3365 C   0  0  0  0  0  0  0  0  0  0  0  0
  -89.6037   33.0933   -3.6178 N   0  0  0  0  0  0  0  0  0  0  0  0
  -89.7299   34.2661   -4.4184 C   0  0  0  0  0  0  0  0  0  0  0  0
  -90.4023   34.0419   -5.7565 C   0  0  0  0  0  0  0  0  0  0  0  0
  -91.2896   32.9315   -5.7856 N   0  0  0  0  0  0  0  0  0  0  0  0
  -91.0360   31.7632   -4.9939 C   0  0  0  0  0  0  0  0  0  0  0  0
  -89.6064   31.9181   -4.4597 C   0  0  0  0  0  0  0  0  0  0  0  0
  -92.4659   32.9688   -6.6216 C   0  0  0  0  0  0  0  0  0  0  0  0
  -92.6948   33.9818   -7.3154 O   0  0  0  0  0  0  0  0  0  0  0  0
  -93.3417   31.8717   -6.6503 N   0  0  0  0  0  0  0  0  0  0  0  0
  -93.1415   31.0251   -6.0567 H   0  0  0  0  0  0  0  0  0  0  0  0
  -94.5160   31.9053   -7.4990 C   0  0  0  0  0  0  0  0  0  0  0  0
  -95.2342   30.7819   -7.7273 C   0  0  0  0  0  0  0  0  0  0  0  0
  -96.3069   30.8723   -8.5601 C   0  0  0  0  0  0  0  0  0  0  0  0
  -96.3071   32.5096   -9.0156 S   0  0  0  0  0  0  0  0  0  0  0  0
  -94.9358   33.0378   -8.1309 C   0  0  0  0  0  0  0  0  0  0  0  0
  9 10  1  0  0  0
 10 11  2  0  0  0
 11 12  1  0  0  0
 12 13  1  0  0  0
 13 14  2  0  0  0
 14 15  1  0  0  0
 15 16  2  0  0  0
 16 17  1  0  0  0
 17 18  2  0  0  0
 11  1  1  0  0  0
  1  2  2  0  0  0
  1  3  1  0  0  0
  3  4  1  0  0  0
  4  5  1  0  0  0
  5  6  1  0  0  0
  6  7  1  0  0  0
  7  8  1  0  0  0
  6 19  1  0  0  0
 19 20  1  0  0  0
 20 21  1  0  0  0
 21 22  1  0  0  0
 22 23  1  0  0  0
 23 24  1  0  0  0
 22 25  1  0  0  0
 25 26  2  0  0  0
 25 27  1  0  0  0
 27 29  1  0  0  0
 29 30  1  0  0  0
 30 31  2  0  0  0
 31 32  1  0  0  0
 32 33  1  0  0  0
 18 10  1  0  0  0
  8  3  1  0  0  0
 24 19  1  0  0  0
 33 29  2  0  0  0
 18 13  1  0  0  0
 27 28  1  0  0  0
M  END
> <minimizedAffinity>
-9.96995

> <CNNscore>
0.1733761728

> <CNNaffinity>
6.2639760971

> <CNN_VS>
1.0860241652

> <CNNaffinity_variance>
0.0992523879

$$$$
[H]c1sc([H])c(N([H])C(=O)N2C([H])([H])C([H])([H])N(C3([H])C([H])([H])C([H])([H])N(C(=O)c4sc5c([H])c([H])c([H])c([H])c5c4C([H])([H])[H])C([H])([H])C3([H])[H])C([H])([H])C2([H])[H])c1[H]


 33 37  0  0  0  0  0  0  0  0999 V2000
  -92.0327   33.4582   -6.3564 C   0  0  0  0  0  0  0  0  0  0  0  0
  -92.1742   33.6268   -7.5934 O   0  0  0  0  0  0  0  0  0  0  0  0
  -92.8256   32.4903   -5.6983 N   0  0  0  0  0  0  0  0  0  0  0  0
  -93.7741   31.7383   -6.5075 C   0  0  0  0  0  0  0  0  0  0  0  0
  -93.7635   30.2563   -6.2053 C   0  0  0  0  0  0  0  0  0  0  0  0
  -93.1537   29.9635   -4.8713 C   0  0  0  0  0  0  0  0  0  0  0  0
  -93.6044   31.0817   -3.9394 C   0  0  0  0  0  0  0  0  0  0  0  0
  -92.6863   32.2756   -4.2866 C   0  0  0  0  0  0  0  0  0  0  0  0
  -92.4801   36.3096   -5.4634 C   0  0  0  0  0  0  0  0  0  0  0  0
  -91.1602   35.5819   -5.2342 C   0  0  0  0  0  0  0  0  0  0  0  0
  -91.0366   34.2927   -5.6684 C   0  0  0  0  0  0  0  0  0  0  0  0
  -89.4350   33.8883   -5.2112 S   0  0  0  0  0  0  0  0  0  0  0  0
  -88.9710   35.3537   -4.4881 C   0  0  0  0  0  0  0  0  0  0  0  0
  -87.7935   35.8158   -3.8683 C   0  0  0  0  0  0  0  0  0  0  0  0
  -87.7159   37.0886   -3.3635 C   0  0  0  0  0  0  0  0  0  0  0  0
  -88.8427   37.8681   -3.5005 C   0  0  0  0  0  0  0  0  0  0  0  0
  -89.9785   37.4382   -4.0923 C   0  0  0  0  0  0  0  0  0  0  0  0
  -90.0836   36.1305   -4.6206 C   0  0  0  0  0  0  0  0  0  0  0  0
  -93.4489   28.6592   -4.3787 N   0  0  0  0  0  0  0  0  0  0  0  0
  -94.8004   28.4160   -3.9958 C   0  0  0  0  0  0  0  0  0  0  0  0
  -95.2597   26.9865   -4.1924 C   0  0  0  0  0  0  0  0  0  0  0  0
  -94.2124   26.0259   -4.1538 N   0  0  0  0  0  0  0  0  0  0  0  0
  -92.8988   26.3467   -4.6310 C   0  0  0  0  0  0  0  0  0  0  0  0
  -93.0324   27.6873   -5.3644 C   0  0  0  0  0  0  0  0  0  0  0  0
  -94.4635   24.7044   -3.6297 C   0  0  0  0  0  0  0  0  0  0  0  0
  -95.6046   24.4155   -3.2124 O   0  0  0  0  0  0  0  0  0  0  0  0
  -93.4288   23.7560   -3.5922 N   0  0  0  0  0  0  0  0  0  0  0  0
  -92.4690   24.0127   -3.9416 H   0  0  0  0  0  0  0  0  0  0  0  0
  -93.6850   22.4258   -3.0769 C   0  0  0  0  0  0  0  0  0  0  0  0
  -93.5142   22.1503   -1.7636 C   0  0  0  0  0  0  0  0  0  0  0  0
  -93.7391   20.8739   -1.3480 C   0  0  0  0  0  0  0  0  0  0  0  0
  -94.1835   20.0729   -2.7795 S   0  0  0  0  0  0  0  0  0  0  0  0
  -94.0702   21.3889   -3.8736 C   0  0  0  0  0  0  0  0  0  0  0  0
  9 10  1  0  0  0
 10 11  2  0  0  0
 11 12  1  0  0  0
 12 13  1  0  0  0
 13 14  2  0  0  0
 14 15  1  0  0  0
 15 16  2  0  0  0
 16 17  1  0  0  0
 17 18  2  0  0  0
 11  1  1  0  0  0
  1  2  2  0  0  0
  1  3  1  0  0  0
  3  4  1  0  0  0
  4  5  1  0  0  0
  5  6  1  0  0  0
  6  7  1  0  0  0
  7  8  1  0  0  0
  6 19  1  0  0  0
 19 20  1  0  0  0
 20 21  1  0  0  0
 21 22  1  0  0  0
 22 23  1  0  0  0
 23 24  1  0  0  0
 22 25  1  0  0  0
 25 26  2  0  0  0
 25 27  1  0  0  0
 27 29  1  0  0  0
 29 30  1  0  0  0
 30 31  2  0  0  0
 31 32  1  0  0  0
 32 33  1  0  0  0
 18 10  1  0  0  0
  8  3  1  0  0  0
 24 19  1  0  0  0
 33 29  2  0  0  0
 18 13  1  0  0  0
 27 28  1  0  0  0
M  END
> <minimizedAffinity>
-5.24484

> <CNNscore>
0.1558030844

> <CNNaffinity>
4.9445610046

> <CNN_VS>
0.7703778744

> <CNNaffinity_variance>
0.3125132918

$$$$
[H]c1sc([H])c(N([H])C(=O)N2C([H])([H])C([H])([H])N(C3([H])C([H])([H])C([H])([H])N(C(=O)c4sc5c([H])c([H])c([H])c([H])c5c4C([H])([H])[H])C([H])([H])C3([H])[H])C([H])([H])C2([H])[H])c1[H]


 33 37  0  0  0  0  0  0  0  0999 V2000
  -85.7206   28.6359    1.9936 C   0  0  0  0  0  0  0  0  0  0  0  0
  -85.2569   28.5175    3.1552 O   0  0  0  0  0  0  0  0  0  0  0  0
  -86.4711   27.5732    1.4402 N   0  0  0  0  0  0  0  0  0  0  0  0
  -86.6611   26.3873    2.2633 C   0  0  0  0  0  0  0  0  0  0  0  0
  -88.0840   25.8747    2.2409 C   0  0  0  0  0  0  0  0  0  0  0  0
  -88.8434   26.3885    1.0591 C   0  0  0  0  0  0  0  0  0  0  0  0
  -87.8615   26.4069   -0.1060 C   0  0  0  0  0  0  0  0  0  0  0  0
  -87.0131   27.6795    0.1161 C   0  0  0  0  0  0  0  0  0  0  0  0
  -82.9866   29.8774    1.6593 C   0  0  0  0  0  0  0  0  0  0  0  0
  -84.2464   30.5148    1.0842 C   0  0  0  0  0  0  0  0  0  0  0  0
  -85.4460   29.8912    1.2790 C   0  0  0  0  0  0  0  0  0  0  0  0
  -86.5506   30.9325    0.4831 S   0  0  0  0  0  0  0  0  0  0  0  0
  -85.4688   32.1197   -0.0697 C   0  0  0  0  0  0  0  0  0  0  0  0
  -85.6081   33.3101   -0.8097 C   0  0  0  0  0  0  0  0  0  0  0  0
  -84.5168   34.0838   -1.1118 C   0  0  0  0  0  0  0  0  0  0  0  0
  -83.3011   33.6281   -0.6527 C   0  0  0  0  0  0  0  0  0  0  0  0
  -83.1526   32.4888    0.0578 C   0  0  0  0  0  0  0  0  0  0  0  0
  -84.2621   31.6739    0.3821 C   0  0  0  0  0  0  0  0  0  0  0  0
  -90.0383   25.6622    0.7843 N   0  0  0  0  0  0  0  0  0  0  0  0
  -91.1757   26.4320    0.4022 C   0  0  0  0  0  0  0  0  0  0  0  0
  -92.1205   25.7252   -0.5469 C   0  0  0  0  0  0  0  0  0  0  0  0
  -92.0841   24.3067   -0.4588 N   0  0  0  0  0  0  0  0  0  0  0  0
  -90.8683   23.6183   -0.1364 C   0  0  0  0  0  0  0  0  0  0  0  0
  -89.7532   24.6678   -0.2255 C   0  0  0  0  0  0  0  0  0  0  0  0
  -93.2824   23.5374   -0.6963 C   0  0  0  0  0  0  0  0  0  0  0  0
  -94.3460   24.1282   -0.9784 O   0  0  0  0  0  0  0  0  0  0  0  0
  -93.2458   22.1365   -0.6095 N   0  0  0  0  0  0  0  0  0  0  0  0
  -92.3444   21.6495   -0.3653 H   0  0  0  0  0  0  0  0  0  0  0  0
  -94.4465   21.3645   -0.8599 C   0  0  0  0  0  0  0  0  0  0  0  0
  -95.0434   20.6744    0.1388 C   0  0  0  0  0  0  0  0  0  0  0  0
  -96.1489   19.9421   -0.1679 C   0  0  0  0  0  0  0  0  0  0  0  0
  -96.3471   20.2182   -1.8330 S   0  0  0  0  0  0  0  0  0  0  0  0
  -95.0118   21.2621   -2.0961 C   0  0  0  0  0  0  0  0  0  0  0  0
  9 10  1  0  0  0
 10 11  2  0  0  0
 11 12  1  0  0  0
 12 13  1  0  0  0
 13 14  2  0  0  0
 14 15  1  0  0  0
 15 16  2  0  0  0
 16 17  1  0  0  0
 17 18  2  0  0  0
 11  1  1  0  0  0
  1  2  2  0  0  0
  1  3  1  0  0  0
  3  4  1  0  0  0
  4  5  1  0  0  0
  5  6  1  0  0  0
  6  7  1  0  0  0
  7  8  1  0  0  0
  6 19  1  0  0  0
 19 20  1  0  0  0
 20 21  1  0  0  0
 21 22  1  0  0  0
 22 23  1  0  0  0
 23 24  1  0  0  0
 22 25  1  0  0  0
 25 26  2  0  0  0
 25 27  1  0  0  0
 27 29  1  0  0  0
 29 30  1  0  0  0
 30 31  2  0  0  0
 31 32  1  0  0  0
 32 33  1  0  0  0
 18 10  1  0  0  0
  8  3  1  0  0  0
 24 19  1  0  0  0
 33 29  2  0  0  0
 18 13  1  0  0  0
 27 28  1  0  0  0
M  END
> <minimizedAffinity>
-7.35484

> <CNNscore>
0.1472203135

> <CNNaffinity>
6.1640958786

> <CNN_VS>
0.9074801207

> <CNNaffinity_variance>
0.0816575140

$$$$
[H]c1c([H])c(Cl)c([H])c(N2C([H])([H])C([H])([H])N(C([H])([H])c3c([H])c([H])c4c(c3[H])C(C([H])([H])OC([H])([H])C([H])([H])OC([H])([H])[H])=NC(=O)C([H])(N([H])[H])OC([H])([H])C([H])([H])C4([H])[H])C([H])([H])C2([H])[H])c1[H]


 38 41  0  0  0  0  0  0  0  0999 V2000
  -87.6912   34.9476   -4.5582 C   0  0  0  0  0  0  0  0  0  0  0  0
  -86.9107   35.6614   -5.2362 N   0  0  0  0  0  0  0  0  0  0  0  0
  -86.8645   36.6011   -6.2143 C   0  0  0  0  0  0  0  0  0  0  0  0
  -87.0316   36.4848   -7.4826 O   0  0  0  0  0  0  0  0  0  0  0  0
  -86.5744   38.0136   -5.7896 C   0  0  0  0  0  0  0  0  0  0  0  0
  -85.3797   38.0603   -4.9582 N   0  0  0  0  0  0  0  0  0  0  0  0
  -87.6566   38.5552   -5.1068 O   0  0  0  0  0  0  0  0  0  0  0  0
  -87.6357   38.3161   -3.7570 C   0  0  0  0  0  0  0  0  0  0  0  0
  -88.9034   37.6008   -3.3872 C   0  0  0  0  0  0  0  0  0  0  0  0
  -89.8215   37.3320   -4.5470 C   0  0  0  0  0  0  0  0  0  0  0  0
  -90.0836   35.8653   -4.6197 C   0  0  0  0  0  0  0  0  0  0  0  0
  -91.4520   35.5517   -4.6784 C   0  0  0  0  0  0  0  0  0  0  0  0
  -91.9225   34.2534   -4.7260 C   0  0  0  0  0  0  0  0  0  0  0  0
  -90.9981   33.2447   -4.7145 C   0  0  0  0  0  0  0  0  0  0  0  0
  -89.6572   33.5566   -4.6573 C   0  0  0  0  0  0  0  0  0  0  0  0
  -89.1594   34.8673   -4.6093 C   0  0  0  0  0  0  0  0  0  0  0  0
  -85.1565   37.1747   -4.4971 H   0  0  0  0  0  0  0  0  0  0  0  0
  -85.4342   38.8966   -4.3657 H   0  0  0  0  0  0  0  0  0  0  0  0
  -86.9805   34.0369   -3.5467 C   0  0  0  0  0  0  0  0  0  0  0  0
  -87.2611   34.3477   -2.2575 O   0  0  0  0  0  0  0  0  0  0  0  0
  -87.5477   33.2131   -1.5350 C   0  0  0  0  0  0  0  0  0  0  0  0
  -86.4075   32.6757   -0.7103 C   0  0  0  0  0  0  0  0  0  0  0  0
  -84.1697   33.2912   -0.8592 C   0  0  0  0  0  0  0  0  0  0  0  0
  -85.4296   33.6316   -0.4519 O   0  0  0  0  0  0  0  0  0  0  0  0
  -91.4996   31.8513   -4.7654 C   0  0  0  0  0  0  0  0  0  0  0  0
  -91.8277   31.3355   -3.4872 N   0  0  0  0  0  0  0  0  0  0  0  0
  -92.5715   30.1157   -3.4583 C   0  0  0  0  0  0  0  0  0  0  0  0
  -91.7263   28.9237   -3.0687 C   0  0  0  0  0  0  0  0  0  0  0  0
  -90.8695   29.2053   -1.9539 N   0  0  0  0  0  0  0  0  0  0  0  0
  -90.0258   30.3772   -2.0763 C   0  0  0  0  0  0  0  0  0  0  0  0
  -90.9220   31.5440   -2.4298 C   0  0  0  0  0  0  0  0  0  0  0  0
  -90.8628   28.3931   -0.7995 C   0  0  0  0  0  0  0  0  0  0  0  0
  -90.6350   27.0243   -0.9620 C   0  0  0  0  0  0  0  0  0  0  0  0
  -90.6015   26.1866    0.1372 C   0  0  0  0  0  0  0  0  0  0  0  0
  -90.7963   26.7234    1.3890 C   0  0  0  0  0  0  0  0  0  0  0  0
  -91.0224   28.0682    1.5718 C   0  0  0  0  0  0  0  0  0  0  0  0
  -91.2744   28.7914    3.1324 Cl  0  0  0  0  0  0  0  0  0  0  0  0
  -91.0539   28.9024    0.4617 C   0  0  0  0  0  0  0  0  0  0  0  0
 23 24  1  0  0  0
 24 22  1  0  0  0
 22 21  1  0  0  0
 21 20  1  0  0  0
 20 19  1  0  0  0
 19  1  1  0  0  0
  1  2  2  0  0  0
  2  3  1  0  0  0
  3  4  2  0  0  0
  3  5  1  0  0  0
  5  6  1  0  0  0
  5  7  1  0  0  0
  7  8  1  0  0  0
  8  9  1  0  0  0
  9 10  1  0  0  0
 10 11  1  0  0  0
 11 12  2  0  0  0
 12 13  1  0  0  0
 13 14  2  0  0  0
 14 25  1  0  0  0
 25 26  1  0  0  0
 26 27  1  0  0  0
 27 28  1  0  0  0
 28 29  1  0  0  0
 29 30  1  0  0  0
 30 31  1  0  0  0
 29 32  1  0  0  0
 32 33  2  0  0  0
 33 34  1  0  0  0
 34 35  2  0  0  0
 35 36  1  0  0  0
 36 37  1  0  0  0
 36 38  2  0  0  0
 14 15  1  0  0  0
 15 16  2  0  0  0
 16  1  1  0  0  0
 16 11  1  0  0  0
 31 26  1  0  0  0
 38 32  1  0  0  0
  6 17  1  0  0  0
  6 18  1  0  0  0
M  END
> <minimizedAffinity>
-7.17630

> <CNNscore>
0.2601394653

> <CNNaffinity>
5.9415640831

> <CNN_VS>
1.5456353426

> <CNNaffinity_variance>
0.4368298054

$$$$
[H]c1c([H])c(Cl)c([H])c(N2C([H])([H])C([H])([H])N(C([H])([H])c3c([H])c([H])c4c(c3[H])C(C([H])([H])OC([H])([H])C([H])([H])OC([H])([H])[H])=NC(=O)C([H])(N([H])[H])OC([H])([H])C([H])([H])C4([H])[H])C([H])([H])C2([H])[H])c1[H]


 38 41  0  0  0  0  0  0  0  0999 V2000
  -88.0301   29.5463   -2.5096 C   0  0  0  0  0  0  0  0  0  0  0  0
  -87.5643   30.3955   -3.3097 N   0  0  0  0  0  0  0  0  0  0  0  0
  -87.9000   31.2551   -4.3049 C   0  0  0  0  0  0  0  0  0  0  0  0
  -88.1996   31.0240   -5.5324 O   0  0  0  0  0  0  0  0  0  0  0  0
  -87.9388   32.7173   -3.9585 C   0  0  0  0  0  0  0  0  0  0  0  0
  -86.6982   33.1205   -3.3112 N   0  0  0  0  0  0  0  0  0  0  0  0
  -89.0234   33.0009   -3.1377 O   0  0  0  0  0  0  0  0  0  0  0  0
  -88.7587   32.8565   -1.8003 C   0  0  0  0  0  0  0  0  0  0  0  0
  -89.7308   31.8615   -1.2341 C   0  0  0  0  0  0  0  0  0  0  0  0
  -90.6927   31.2960   -2.2417 C   0  0  0  0  0  0  0  0  0  0  0  0
  -90.5655   29.8097   -2.2427 C   0  0  0  0  0  0  0  0  0  0  0  0
  -91.7976   29.1505   -2.0945 C   0  0  0  0  0  0  0  0  0  0  0  0
  -91.9105   27.7743   -2.0442 C   0  0  0  0  0  0  0  0  0  0  0  0
  -90.7597   27.0411   -2.1448 C   0  0  0  0  0  0  0  0  0  0  0  0
  -89.5537   27.6915   -2.2904 C   0  0  0  0  0  0  0  0  0  0  0  0
  -89.4179   29.0866   -2.3446 C   0  0  0  0  0  0  0  0  0  0  0  0
  -86.1891   32.3518   -2.8678 H   0  0  0  0  0  0  0  0  0  0  0  0
  -86.8913   33.9482   -2.7358 H   0  0  0  0  0  0  0  0  0  0  0  0
  -86.9746   28.9120   -1.5923 C   0  0  0  0  0  0  0  0  0  0  0  0
  -87.1102   29.2714   -0.2923 O   0  0  0  0  0  0  0  0  0  0  0  0
  -86.1673   30.2110    0.0534 C   0  0  0  0  0  0  0  0  0  0  0  0
  -84.8246   29.6538    0.4479 C   0  0  0  0  0  0  0  0  0  0  0  0
  -84.6730   31.3516    2.0302 C   0  0  0  0  0  0  0  0  0  0  0  0
  -84.0239   30.5851    1.1025 O   0  0  0  0  0  0  0  0  0  0  0  0
  -90.8775   25.5650   -2.0911 C   0  0  0  0  0  0  0  0  0  0  0  0
  -90.7552   25.0487   -0.7774 N   0  0  0  0  0  0  0  0  0  0  0  0
  -89.4281   24.8630   -0.2811 C   0  0  0  0  0  0  0  0  0  0  0  0
  -89.0290   25.9137    0.7307 C   0  0  0  0  0  0  0  0  0  0  0  0
  -90.0659   26.1691    1.6877 N   0  0  0  0  0  0  0  0  0  0  0  0
  -91.3708   26.4906    1.1455 C   0  0  0  0  0  0  0  0  0  0  0  0
  -91.7375   25.3934    0.1703 C   0  0  0  0  0  0  0  0  0  0  0  0
  -89.8279   26.0957    3.0770 C   0  0  0  0  0  0  0  0  0  0  0  0
  -90.3498   27.1080    3.8862 C   0  0  0  0  0  0  0  0  0  0  0  0
  -90.1601   27.0755    5.2551 C   0  0  0  0  0  0  0  0  0  0  0  0
  -89.4503   26.0322    5.8038 C   0  0  0  0  0  0  0  0  0  0  0  0
  -88.9275   25.0251    5.0256 C   0  0  0  0  0  0  0  0  0  0  0  0
  -88.0240   23.6884    5.6730 Cl  0  0  0  0  0  0  0  0  0  0  0  0
  -89.1234   25.0659    3.6512 C   0  0  0  0  0  0  0  0  0  0  0  0
 23 24  1  0  0  0
 24 22  1  0  0  0
 22 21  1  0  0  0
 21 20  1  0  0  0
 20 19  1  0  0  0
 19  1  1  0  0  0
  1  2  2  0  0  0
  2  3  1  0  0  0
  3  4  2  0  0  0
  3  5  1  0  0  0
  5  6  1  0  0  0
  5  7  1  0  0  0
  7  8  1  0  0  0
  8  9  1  0  0  0
  9 10  1  0  0  0
 10 11  1  0  0  0
 11 12  2  0  0  0
 12 13  1  0  0  0
 13 14  2  0  0  0
 14 25  1  0  0  0
 25 26  1  0  0  0
 26 27  1  0  0  0
 27 28  1  0  0  0
 28 29  1  0  0  0
 29 30  1  0  0  0
 30 31  1  0  0  0
 29 32  1  0  0  0
 32 33  2  0  0  0
 33 34  1  0  0  0
 34 35  2  0  0  0
 35 36  1  0  0  0
 36 37  1  0  0  0
 36 38  2  0  0  0
 14 15  1  0  0  0
 15 16  2  0  0  0
 16  1  1  0  0  0
 16 11  1  0  0  0
 31 26  1  0  0  0
 38 32  1  0  0  0
  6 17  1  0  0  0
  6 18  1  0  0  0
M  END
> <minimizedAffinity>
-8.30051

> <CNNscore>
0.1204436794

> <CNNaffinity>
6.1642041206

> <CNN_VS>
0.7424394488

> <CNNaffinity_variance>
0.4457430840

$$$$
[H]c1c([H])c(Cl)c([H])c(N2C([H])([H])C([H])([H])N(C([H])([H])c3c([H])c([H])c4c(c3[H])C(C([H])([H])OC([H])([H])C([H])([H])OC([H])([H])[H])=NC(=O)C([H])(N([H])[H])OC([H])([H])C([H])([H])C4([H])[H])C([H])([H])C2([H])[H])c1[H]


 38 41  0  0  0  0  0  0  0  0999 V2000
  -90.2796   25.1766    0.8033 C   0  0  0  0  0  0  0  0  0  0  0  0
  -90.7080   24.2305    1.5103 N   0  0  0  0  0  0  0  0  0  0  0  0
  -91.6414   23.2468    1.5661 C   0  0  0  0  0  0  0  0  0  0  0  0
  -92.9014   23.3139    1.8067 O   0  0  0  0  0  0  0  0  0  0  0  0
  -91.1681   21.8428    1.3128 C   0  0  0  0  0  0  0  0  0  0  0  0
  -90.0237   21.5308    2.1576 N   0  0  0  0  0  0  0  0  0  0  0  0
  -90.8393   21.6672   -0.0257 O   0  0  0  0  0  0  0  0  0  0  0  0
  -89.5398   21.9868   -0.3234 C   0  0  0  0  0  0  0  0  0  0  0  0
  -89.5488   23.0455   -1.3886 C   0  0  0  0  0  0  0  0  0  0  0  0
  -90.9233   23.4716   -1.8239 C   0  0  0  0  0  0  0  0  0  0  0  0
  -91.0512   24.9451   -1.6299 C   0  0  0  0  0  0  0  0  0  0  0  0
  -91.5044   25.6155   -2.7787 C   0  0  0  0  0  0  0  0  0  0  0  0
  -91.6715   26.9861   -2.8302 C   0  0  0  0  0  0  0  0  0  0  0  0
  -91.3769   27.7022   -1.7022 C   0  0  0  0  0  0  0  0  0  0  0  0
  -90.9331   27.0409   -0.5777 C   0  0  0  0  0  0  0  0  0  0  0  0
  -90.7578   25.6510   -0.5047 C   0  0  0  0  0  0  0  0  0  0  0  0
  -89.5063   22.3523    2.4806 H   0  0  0  0  0  0  0  0  0  0  0  0
  -89.4837   20.7855    1.7034 H   0  0  0  0  0  0  0  0  0  0  0  0
  -89.0929   25.9282    1.4233 C   0  0  0  0  0  0  0  0  0  0  0  0
  -89.1938   26.0717    2.7674 O   0  0  0  0  0  0  0  0  0  0  0  0
  -89.4038   27.3891    3.1015 C   0  0  0  0  0  0  0  0  0  0  0  0
  -90.6494   27.6536    3.9063 C   0  0  0  0  0  0  0  0  0  0  0  0
  -91.0809   29.0452    2.0935 C   0  0  0  0  0  0  0  0  0  0  0  0
  -91.4617   28.6313    3.3397 O   0  0  0  0  0  0  0  0  0  0  0  0
  -91.5550   29.1723   -1.7543 C   0  0  0  0  0  0  0  0  0  0  0  0
  -90.3612   29.8620   -2.0810 N   0  0  0  0  0  0  0  0  0  0  0  0
  -90.3253   31.2595   -1.7855 C   0  0  0  0  0  0  0  0  0  0  0  0
  -89.4792   31.5803   -0.5738 C   0  0  0  0  0  0  0  0  0  0  0  0
  -88.2333   30.8702   -0.5768 N   0  0  0  0  0  0  0  0  0  0  0  0
  -88.3174   29.4329   -0.7413 C   0  0  0  0  0  0  0  0  0  0  0  0
  -89.1403   29.1678   -1.9831 C   0  0  0  0  0  0  0  0  0  0  0  0
  -86.9977   31.5391   -0.4418 C   0  0  0  0  0  0  0  0  0  0  0  0
  -86.8823   32.8200   -0.9876 C   0  0  0  0  0  0  0  0  0  0  0  0
  -85.6995   33.5257   -0.8689 C   0  0  0  0  0  0  0  0  0  0  0  0
  -84.6423   32.9455   -0.2065 C   0  0  0  0  0  0  0  0  0  0  0  0
  -84.7341   31.6855    0.3383 C   0  0  0  0  0  0  0  0  0  0  0  0
  -83.4263   30.9117    1.1827 Cl  0  0  0  0  0  0  0  0  0  0  0  0
  -85.9265   30.9840    0.2146 C   0  0  0  0  0  0  0  0  0  0  0  0
 23 24  1  0  0  0
 24 22  1  0  0  0
 22 21  1  0  0  0
 21 20  1  0  0  0
 20 19  1  0  0  0
 19  1  1  0  0  0
  1  2  2  0  0  0
  2  3  1  0  0  0
  3  4  2  0  0  0
  3  5  1  0  0  0
  5  6  1  0  0  0
  5  7  1  0  0  0
  7  8  1  0  0  0
  8  9  1  0  0  0
  9 10  1  0  0  0
 10 11  1  0  0  0
 11 12  2  0  0  0
 12 13  1  0  0  0
 13 14  2  0  0  0
 14 25  1  0  0  0
 25 26  1  0  0  0
 26 27  1  0  0  0
 27 28  1  0  0  0
 28 29  1  0  0  0
 29 30  1  0  0  0
 30 31  1  0  0  0
 29 32  1  0  0  0
 32 33  2  0  0  0
 33 34  1  0  0  0
 34 35  2  0  0  0
 35 36  1  0  0  0
 36 37  1  0  0  0
 36 38  2  0  0  0
 14 15  1  0  0  0
 15 16  2  0  0  0
 16  1  1  0  0  0
 16 11  1  0  0  0
 31 26  1  0  0  0
 38 32  1  0  0  0
  6 17  1  0  0  0
  6 18  1  0  0  0
M  END
> <minimizedAffinity>
-8.92453

> <CNNscore>
0.1171022728

> <CNNaffinity>
5.9059090614

> <CNN_VS>
0.6915953755

> <CNNaffinity_variance>
0.3719277680

$$$$
[H]c1c([H])c(Cl)c([H])c(N2C([H])([H])C([H])([H])N(C([H])([H])c3c([H])c([H])c4c(c3[H])C(C([H])([H])OC([H])([H])C([H])([H])OC([H])([H])[H])=NC(=O)C([H])(N([H])[H])OC([H])([H])C([H])([H])C4([H])[H])C([H])([H])C2([H])[H])c1[H]


 38 41  0  0  0  0  0  0  0  0999 V2000
  -89.7026   30.7254   -1.9747 C   0  0  0  0  0  0  0  0  0  0  0  0
  -89.2029   31.4189   -2.8954 N   0  0  0  0  0  0  0  0  0  0  0  0
  -88.9326   31.4339   -4.2253 C   0  0  0  0  0  0  0  0  0  0  0  0
  -88.0194   30.8237   -4.8914 O   0  0  0  0  0  0  0  0  0  0  0  0
  -89.8173   32.2866   -5.0912 C   0  0  0  0  0  0  0  0  0  0  0  0
  -89.9031   33.6384   -4.5565 N   0  0  0  0  0  0  0  0  0  0  0  0
  -91.0861   31.7306   -5.1982 O   0  0  0  0  0  0  0  0  0  0  0  0
  -91.9488   32.1245   -4.2081 C   0  0  0  0  0  0  0  0  0  0  0  0
  -92.4448   30.8957   -3.5013 C   0  0  0  0  0  0  0  0  0  0  0  0
  -91.8797   29.6076   -4.0323 C   0  0  0  0  0  0  0  0  0  0  0  0
  -91.2138   28.8802   -2.9131 C   0  0  0  0  0  0  0  0  0  0  0  0
  -91.6420   27.5476   -2.7892 C   0  0  0  0  0  0  0  0  0  0  0  0
  -91.1742   26.6980   -1.8051 C   0  0  0  0  0  0  0  0  0  0  0  0
  -90.2544   27.1969   -0.9234 C   0  0  0  0  0  0  0  0  0  0  0  0
  -89.8369   28.5040   -1.0488 C   0  0  0  0  0  0  0  0  0  0  0  0
  -90.2986   29.3819   -2.0407 C   0  0  0  0  0  0  0  0  0  0  0  0
  -89.6969   33.7063   -3.5566 H   0  0  0  0  0  0  0  0  0  0  0  0
  -90.7813   34.0572   -4.8834 H   0  0  0  0  0  0  0  0  0  0  0  0
  -89.6644   31.4013   -0.5965 C   0  0  0  0  0  0  0  0  0  0  0  0
  -88.8247   32.4642   -0.5450 O   0  0  0  0  0  0  0  0  0  0  0  0
  -87.5183   32.0473   -0.4400 C   0  0  0  0  0  0  0  0  0  0  0  0
  -86.4873   33.0682   -0.8446 C   0  0  0  0  0  0  0  0  0  0  0  0
  -86.7851   34.2055   -2.8513 C   0  0  0  0  0  0  0  0  0  0  0  0
  -86.2743   33.1060   -2.2194 O   0  0  0  0  0  0  0  0  0  0  0  0
  -89.7509   26.2882    0.1332 C   0  0  0  0  0  0  0  0  0  0  0  0
  -88.3417   26.3321    0.2738 N   0  0  0  0  0  0  0  0  0  0  0  0
  -87.6125   26.9884   -0.7651 C   0  0  0  0  0  0  0  0  0  0  0  0
  -87.1033   28.3512   -0.3522 C   0  0  0  0  0  0  0  0  0  0  0  0
  -86.5254   28.3413    0.9601 N   0  0  0  0  0  0  0  0  0  0  0  0
  -87.3504   27.7924    2.0176 C   0  0  0  0  0  0  0  0  0  0  0  0
  -87.8020   26.4190    1.5712 C   0  0  0  0  0  0  0  0  0  0  0  0
  -85.2217   28.8259    1.2005 C   0  0  0  0  0  0  0  0  0  0  0  0
  -84.4308   28.1472    2.1309 C   0  0  0  0  0  0  0  0  0  0  0  0
  -83.1407   28.5699    2.3915 C   0  0  0  0  0  0  0  0  0  0  0  0
  -82.6520   29.6674    1.7206 C   0  0  0  0  0  0  0  0  0  0  0  0
  -83.4135   30.3506    0.8006 C   0  0  0  0  0  0  0  0  0  0  0  0
  -82.8400   31.7415   -0.0703 Cl  0  0  0  0  0  0  0  0  0  0  0  0
  -84.7085   29.9184    0.5450 C   0  0  0  0  0  0  0  0  0  0  0  0
 23 24  1  0  0  0
 24 22  1  0  0  0
 22 21  1  0  0  0
 21 20  1  0  0  0
 20 19  1  0  0  0
 19  1  1  0  0  0
  1  2  2  0  0  0
  2  3  1  0  0  0
  3  4  2  0  0  0
  3  5  1  0  0  0
  5  6  1  0  0  0
  5  7  1  0  0  0
  7  8  1  0  0  0
  8  9  1  0  0  0
  9 10  1  0  0  0
 10 11  1  0  0  0
 11 12  2  0  0  0
 12 13  1  0  0  0
 13 14  2  0  0  0
 14 25  1  0  0  0
 25 26  1  0  0  0
 26 27  1  0  0  0
 27 28  1  0  0  0
 28 29  1  0  0  0
 29 30  1  0  0  0
 30 31  1  0  0  0
 29 32  1  0  0  0
 32 33  2  0  0  0
 33 34  1  0  0  0
 34 35  2  0  0  0
 35 36  1  0  0  0
 36 37  1  0  0  0
 36 38  2  0  0  0
 14 15  1  0  0  0
 15 16  2  0  0  0
 16  1  1  0  0  0
 16 11  1  0  0  0
 31 26  1  0  0  0
 38 32  1  0  0  0
  6 17  1  0  0  0
  6 18  1  0  0  0
M  END
> <minimizedAffinity>
-8.92041

> <CNNscore>
0.1064689979

> <CNNaffinity>
6.3702793121

> <CNN_VS>
0.6782372594

> <CNNaffinity_variance>
0.3280277848

$$$$
[H]c1c([H])c(Cl)c([H])c(N2C([H])([H])C([H])([H])N(C([H])([H])c3c([H])c([H])c4c(c3[H])C(C([H])([H])OC([H])([H])C([H])([H])OC([H])([H])[H])=NC(=O)C([H])(N([H])[H])OC([H])([H])C([H])([H])C4([H])[H])C([H])([H])C2([H])[H])c1[H]


 38 41  0  0  0  0  0  0  0  0999 V2000
  -91.9369   27.4075   -3.3691 C   0  0  0  0  0  0  0  0  0  0  0  0
  -92.9366   26.6481   -3.3205 N   0  0  0  0  0  0  0  0  0  0  0  0
  -94.2836   26.6069   -3.4814 C   0  0  0  0  0  0  0  0  0  0  0  0
  -95.2220   27.0397   -2.7185 O   0  0  0  0  0  0  0  0  0  0  0  0
  -94.8009   25.9611   -4.7363 C   0  0  0  0  0  0  0  0  0  0  0  0
  -94.2095   24.6419   -4.9113 N   0  0  0  0  0  0  0  0  0  0  0  0
  -94.5377   26.7565   -5.8447 O   0  0  0  0  0  0  0  0  0  0  0  0
  -93.3156   26.5195   -6.4191 C   0  0  0  0  0  0  0  0  0  0  0  0
  -92.5430   27.8073   -6.4274 C   0  0  0  0  0  0  0  0  0  0  0  0
  -93.2747   28.9702   -5.8169 C   0  0  0  0  0  0  0  0  0  0  0  0
  -92.4444   29.5310   -4.7118 C   0  0  0  0  0  0  0  0  0  0  0  0
  -92.2512   30.9188   -4.8166 C   0  0  0  0  0  0  0  0  0  0  0  0
  -91.4938   31.6408   -3.9142 C   0  0  0  0  0  0  0  0  0  0  0  0
  -90.9157   30.9542   -2.8814 C   0  0  0  0  0  0  0  0  0  0  0  0
  -91.1080   29.5934   -2.7822 C   0  0  0  0  0  0  0  0  0  0  0  0
  -91.8736   28.8427   -3.6867 C   0  0  0  0  0  0  0  0  0  0  0  0
  -93.3187   24.5151   -4.4241 H   0  0  0  0  0  0  0  0  0  0  0  0
  -94.2343   24.4095   -5.9107 H   0  0  0  0  0  0  0  0  0  0  0  0
  -90.6096   26.7100   -3.0389 C   0  0  0  0  0  0  0  0  0  0  0  0
  -90.7103   25.8241   -2.0178 O   0  0  0  0  0  0  0  0  0  0  0  0
  -89.4770   25.5848   -1.4581 C   0  0  0  0  0  0  0  0  0  0  0  0
  -88.5921   26.7959   -1.3198 C   0  0  0  0  0  0  0  0  0  0  0  0
  -87.3122   26.2446    0.5422 C   0  0  0  0  0  0  0  0  0  0  0  0
  -88.2570   27.0724    0.0024 O   0  0  0  0  0  0  0  0  0  0  0  0
  -90.1028   31.7257   -1.9121 C   0  0  0  0  0  0  0  0  0  0  0  0
  -88.7120   31.4920   -2.0484 N   0  0  0  0  0  0  0  0  0  0  0  0
  -87.8752   32.6444   -2.1643 C   0  0  0  0  0  0  0  0  0  0  0  0
  -87.1014   32.9360   -0.8981 C   0  0  0  0  0  0  0  0  0  0  0  0
  -86.5263   31.7528   -0.3274 N   0  0  0  0  0  0  0  0  0  0  0  0
  -87.4354   30.6484   -0.0953 C   0  0  0  0  0  0  0  0  0  0  0  0
  -88.1552   30.3746   -1.3978 C   0  0  0  0  0  0  0  0  0  0  0  0
  -85.1503   31.6683   -0.0246 C   0  0  0  0  0  0  0  0  0  0  0  0
  -84.3128   32.6853   -0.4898 C   0  0  0  0  0  0  0  0  0  0  0  0
  -82.9598   32.6599   -0.2071 C   0  0  0  0  0  0  0  0  0  0  0  0
  -82.4552   31.6185    0.5374 C   0  0  0  0  0  0  0  0  0  0  0  0
  -83.2617   30.6068    1.0052 C   0  0  0  0  0  0  0  0  0  0  0  0
  -82.6700   29.2714    1.9480 Cl  0  0  0  0  0  0  0  0  0  0  0  0
  -84.6200   30.6408    0.7166 C   0  0  0  0  0  0  0  0  0  0  0  0
 23 24  1  0  0  0
 24 22  1  0  0  0
 22 21  1  0  0  0
 21 20  1  0  0  0
 20 19  1  0  0  0
 19  1  1  0  0  0
  1  2  2  0  0  0
  2  3  1  0  0  0
  3  4  2  0  0  0
  3  5  1  0  0  0
  5  6  1  0  0  0
  5  7  1  0  0  0
  7  8  1  0  0  0
  8  9  1  0  0  0
  9 10  1  0  0  0
 10 11  1  0  0  0
 11 12  2  0  0  0
 12 13  1  0  0  0
 13 14  2  0  0  0
 14 25  1  0  0  0
 25 26  1  0  0  0
 26 27  1  0  0  0
 27 28  1  0  0  0
 28 29  1  0  0  0
 29 30  1  0  0  0
 30 31  1  0  0  0
 29 32  1  0  0  0
 32 33  2  0  0  0
 33 34  1  0  0  0
 34 35  2  0  0  0
 35 36  1  0  0  0
 36 37  1  0  0  0
 36 38  2  0  0  0
 14 15  1  0  0  0
 15 16  2  0  0  0
 16  1  1  0  0  0
 16 11  1  0  0  0
 31 26  1  0  0  0
 38 32  1  0  0  0
  6 17  1  0  0  0
  6 18  1  0  0  0
M  END
> <minimizedAffinity>
-8.17367

> <CNNscore>
0.0858926699

> <CNNaffinity>
5.5047655106

> <CNN_VS>
0.4728190005

> <CNNaffinity_variance>
0.5491126180

$$$$
[H]c1c([H])c(Cl)c([H])c(N2C([H])([H])C([H])([H])N(C([H])([H])c3c([H])c([H])c4c(c3[H])C(C([H])([H])OC([H])([H])C([H])([H])OC([H])([H])[H])=NC(=O)C([H])(N([H])[H])OC([H])([H])C([H])([H])C4([H])[H])C([H])([H])C2([H])[H])c1[H]


 38 41  0  0  0  0  0  0  0  0999 V2000
  -88.1414   29.2867   -2.5940 C   0  0  0  0  0  0  0  0  0  0  0  0
  -87.6940   30.1767   -3.3597 N   0  0  0  0  0  0  0  0  0  0  0  0
  -88.0578   31.1187   -4.2664 C   0  0  0  0  0  0  0  0  0  0  0  0
  -88.4423   30.9898   -5.4852 O   0  0  0  0  0  0  0  0  0  0  0  0
  -88.0181   32.5517   -3.8139 C   0  0  0  0  0  0  0  0  0  0  0  0
  -86.7248   32.8632   -3.2215 N   0  0  0  0  0  0  0  0  0  0  0  0
  -89.0374   32.8103   -2.9059 O   0  0  0  0  0  0  0  0  0  0  0  0
  -88.6954   32.5580   -1.6024 C   0  0  0  0  0  0  0  0  0  0  0  0
  -89.6679   31.5574   -1.0470 C   0  0  0  0  0  0  0  0  0  0  0  0
  -90.7123   31.1014   -2.0278 C   0  0  0  0  0  0  0  0  0  0  0  0
  -90.6431   29.6159   -2.1440 C   0  0  0  0  0  0  0  0  0  0  0  0
  -91.8881   28.9899   -1.9636 C   0  0  0  0  0  0  0  0  0  0  0  0
  -92.0509   27.6184   -2.0051 C   0  0  0  0  0  0  0  0  0  0  0  0
  -90.9379   26.8558   -2.2331 C   0  0  0  0  0  0  0  0  0  0  0  0
  -89.7191   27.4738   -2.4099 C   0  0  0  0  0  0  0  0  0  0  0  0
  -89.5330   28.8637   -2.3723 C   0  0  0  0  0  0  0  0  0  0  0  0
  -86.2190   32.0467   -2.8688 H   0  0  0  0  0  0  0  0  0  0  0  0
  -86.8492   33.6519   -2.5768 H   0  0  0  0  0  0  0  0  0  0  0  0
  -87.0560   28.5505   -1.7955 C   0  0  0  0  0  0  0  0  0  0  0  0
  -87.0012   28.9266   -0.4944 O   0  0  0  0  0  0  0  0  0  0  0  0
  -85.7193   29.2811   -0.1442 C   0  0  0  0  0  0  0  0  0  0  0  0
  -85.5336   30.7315    0.2176 C   0  0  0  0  0  0  0  0  0  0  0  0
  -84.3913   31.4674    2.1051 C   0  0  0  0  0  0  0  0  0  0  0  0
  -85.5490   30.9521    1.5917 O   0  0  0  0  0  0  0  0  0  0  0  0
  -91.1093   25.3847   -2.2782 C   0  0  0  0  0  0  0  0  0  0  0  0
  -91.2071   24.8005   -0.9911 N   0  0  0  0  0  0  0  0  0  0  0  0
  -92.3823   24.0337   -0.7212 C   0  0  0  0  0  0  0  0  0  0  0  0
  -92.1238   22.5437   -0.7287 C   0  0  0  0  0  0  0  0  0  0  0  0
  -90.9268   22.1956   -0.0200 N   0  0  0  0  0  0  0  0  0  0  0  0
  -89.7225   22.8975   -0.4163 C   0  0  0  0  0  0  0  0  0  0  0  0
  -90.0230   24.3792   -0.3567 C   0  0  0  0  0  0  0  0  0  0  0  0
  -90.9295   21.2345    1.0137 C   0  0  0  0  0  0  0  0  0  0  0  0
  -91.8908   20.2218    0.9652 C   0  0  0  0  0  0  0  0  0  0  0  0
  -91.9269   19.2457    1.9434 C   0  0  0  0  0  0  0  0  0  0  0  0
  -91.0028   19.2900    2.9619 C   0  0  0  0  0  0  0  0  0  0  0  0
  -90.0479   20.2782    3.0292 C   0  0  0  0  0  0  0  0  0  0  0  0
  -88.8613   20.3758    4.2960 Cl  0  0  0  0  0  0  0  0  0  0  0  0
  -90.0189   21.2546    2.0417 C   0  0  0  0  0  0  0  0  0  0  0  0
 23 24  1  0  0  0
 24 22  1  0  0  0
 22 21  1  0  0  0
 21 20  1  0  0  0
 20 19  1  0  0  0
 19  1  1  0  0  0
  1  2  2  0  0  0
  2  3  1  0  0  0
  3  4  2  0  0  0
  3  5  1  0  0  0
  5  6  1  0  0  0
  5  7  1  0  0  0
  7  8  1  0  0  0
  8  9  1  0  0  0
  9 10  1  0  0  0
 10 11  1  0  0  0
 11 12  2  0  0  0
 12 13  1  0  0  0
 13 14  2  0  0  0
 14 25  1  0  0  0
 25 26  1  0  0  0
 26 27  1  0  0  0
 27 28  1  0  0  0
 28 29  1  0  0  0
 29 30  1  0  0  0
 30 31  1  0  0  0
 29 32  1  0  0  0
 32 33  2  0  0  0
 33 34  1  0  0  0
 34 35  2  0  0  0
 35 36  1  0  0  0
 36 37  1  0  0  0
 36 38  2  0  0  0
 14 15  1  0  0  0
 15 16  2  0  0  0
 16  1  1  0  0  0
 16 11  1  0  0  0
 31 26  1  0  0  0
 38 32  1  0  0  0
  6 17  1  0  0  0
  6 18  1  0  0  0
M  END
> <minimizedAffinity>
-8.03459

> <CNNscore>
0.0839256719

> <CNNaffinity>
5.3151755333

> <CNN_VS>
0.4460796714

> <CNNaffinity_variance>
1.0984462500

$$$$
[H]c1c([H])c(Cl)c([H])c(N2C([H])([H])C([H])([H])N(C([H])([H])c3c([H])c([H])c4c(c3[H])C(C([H])([H])OC([H])([H])C([H])([H])OC([H])([H])[H])=NC(=O)C([H])(N([H])[H])OC([H])([H])C([H])([H])C4([H])[H])C([H])([H])C2([H])[H])c1[H]


 38 41  0  0  0  0  0  0  0  0999 V2000
  -91.2587   28.9051   -1.7481 C   0  0  0  0  0  0  0  0  0  0  0  0
  -91.2354   29.8354   -2.5922 N   0  0  0  0  0  0  0  0  0  0  0  0
  -90.8384   30.1574   -3.8494 C   0  0  0  0  0  0  0  0  0  0  0  0
  -89.6650   30.4062   -4.3088 O   0  0  0  0  0  0  0  0  0  0  0  0
  -91.9094   30.2482   -4.9003 C   0  0  0  0  0  0  0  0  0  0  0  0
  -92.9908   31.1144   -4.4519 N   0  0  0  0  0  0  0  0  0  0  0  0
  -92.4019   28.9870   -5.2126 O   0  0  0  0  0  0  0  0  0  0  0  0
  -93.4432   28.5861   -4.4160 C   0  0  0  0  0  0  0  0  0  0  0  0
  -93.0593   27.2923   -3.7571 C   0  0  0  0  0  0  0  0  0  0  0  0
  -91.6849   26.8003   -4.1169 C   0  0  0  0  0  0  0  0  0  0  0  0
  -90.8958   26.6260   -2.8631 C   0  0  0  0  0  0  0  0  0  0  0  0
  -90.2973   25.3589   -2.7596 C   0  0  0  0  0  0  0  0  0  0  0  0
  -89.5414   24.9733   -1.6691 C   0  0  0  0  0  0  0  0  0  0  0  0
  -89.3818   25.8806   -0.6574 C   0  0  0  0  0  0  0  0  0  0  0  0
  -89.9701   27.1221   -0.7631 C   0  0  0  0  0  0  0  0  0  0  0  0
  -90.7399   27.5330   -1.8614 C   0  0  0  0  0  0  0  0  0  0  0  0
  -93.0555   31.2101   -3.4353 H   0  0  0  0  0  0  0  0  0  0  0  0
  -93.8454   30.8454   -4.9527 H   0  0  0  0  0  0  0  0  0  0  0  0
  -91.9235   29.2887   -0.4182 C   0  0  0  0  0  0  0  0  0  0  0  0
  -91.0350   29.4905    0.5854 O   0  0  0  0  0  0  0  0  0  0  0  0
  -91.1613   28.5180    1.5497 C   0  0  0  0  0  0  0  0  0  0  0  0
  -91.1877   29.0242    2.9682 C   0  0  0  0  0  0  0  0  0  0  0  0
  -89.9264   27.1725    3.5922 C   0  0  0  0  0  0  0  0  0  0  0  0
  -90.9513   28.0218    3.9043 O   0  0  0  0  0  0  0  0  0  0  0  0
  -88.5718   25.4700    0.5135 C   0  0  0  0  0  0  0  0  0  0  0  0
  -87.2718   26.0333    0.5105 N   0  0  0  0  0  0  0  0  0  0  0  0
  -86.8756   26.7285   -0.6734 C   0  0  0  0  0  0  0  0  0  0  0  0
  -86.8835   28.2309   -0.5005 C   0  0  0  0  0  0  0  0  0  0  0  0
  -86.2894   28.6390    0.7392 N   0  0  0  0  0  0  0  0  0  0  0  0
  -86.8132   28.0116    1.9359 C   0  0  0  0  0  0  0  0  0  0  0  0
  -86.7492   26.5145    1.7259 C   0  0  0  0  0  0  0  0  0  0  0  0
  -85.2445   29.5868    0.7847 C   0  0  0  0  0  0  0  0  0  0  0  0
  -84.0798   29.2463    1.4772 C   0  0  0  0  0  0  0  0  0  0  0  0
  -83.0196   30.1313    1.5385 C   0  0  0  0  0  0  0  0  0  0  0  0
  -83.1323   31.3490    0.9079 C   0  0  0  0  0  0  0  0  0  0  0  0
  -84.2699   31.7049    0.2207 C   0  0  0  0  0  0  0  0  0  0  0  0
  -84.4585   33.2309   -0.5903 Cl  0  0  0  0  0  0  0  0  0  0  0  0
  -85.3299   30.8091    0.1641 C   0  0  0  0  0  0  0  0  0  0  0  0
 23 24  1  0  0  0
 24 22  1  0  0  0
 22 21  1  0  0  0
 21 20  1  0  0  0
 20 19  1  0  0  0
 19  1  1  0  0  0
  1  2  2  0  0  0
  2  3  1  0  0  0
  3  4  2  0  0  0
  3  5  1  0  0  0
  5  6  1  0  0  0
  5  7  1  0  0  0
  7  8  1  0  0  0
  8  9  1  0  0  0
  9 10  1  0  0  0
 10 11  1  0  0  0
 11 12  2  0  0  0
 12 13  1  0  0  0
 13 14  2  0  0  0
 14 25  1  0  0  0
 25 26  1  0  0  0
 26 27  1  0  0  0
 27 28  1  0  0  0
 28 29  1  0  0  0
 29 30  1  0  0  0
 30 31  1  0  0  0
 29 32  1  0  0  0
 32 33  2  0  0  0
 33 34  1  0  0  0
 34 35  2  0  0  0
 35 36  1  0  0  0
 36 37  1  0  0  0
 36 38  2  0  0  0
 14 15  1  0  0  0
 15 16  2  0  0  0
 16  1  1  0  0  0
 16 11  1  0  0  0
 31 26  1  0  0  0
 38 32  1  0  0  0
  6 17  1  0  0  0
  6 18  1  0  0  0
M  END
> <minimizedAffinity>
-8.06120

> <CNNscore>
0.0798202753

> <CNNaffinity>
5.9395341873

> <CNN_VS>
0.4740952551

> <CNNaffinity_variance>
0.3836721778

$$$$
[H]c1c([H])c(Cl)c([H])c(N2C([H])([H])C([H])([H])N(C([H])([H])c3c([H])c([H])c4c(c3[H])C(C([H])([H])OC([H])([H])C([H])([H])OC([H])([H])[H])=NC(=O)C([H])(N([H])[H])OC([H])([H])C([H])([H])C4([H])[H])C([H])([H])C2([H])[H])c1[H]


 38 41  0  0  0  0  0  0  0  0999 V2000
  -91.9519   29.8421   -2.0895 C   0  0  0  0  0  0  0  0  0  0  0  0
  -93.1352   29.5403   -1.7944 N   0  0  0  0  0  0  0  0  0  0  0  0
  -94.4325   29.8723   -2.0149 C   0  0  0  0  0  0  0  0  0  0  0  0
  -95.1207   30.8621   -1.5715 O   0  0  0  0  0  0  0  0  0  0  0  0
  -95.2252   28.9648   -2.9137 C   0  0  0  0  0  0  0  0  0  0  0  0
  -95.1031   27.5812   -2.4762 N   0  0  0  0  0  0  0  0  0  0  0  0
  -94.8077   29.0902   -4.2330 O   0  0  0  0  0  0  0  0  0  0  0  0
  -93.7745   28.2541   -4.5689 C   0  0  0  0  0  0  0  0  0  0  0  0
  -92.6330   29.0943   -5.0655 C   0  0  0  0  0  0  0  0  0  0  0  0
  -92.9038   30.5731   -5.0530 C   0  0  0  0  0  0  0  0  0  0  0  0
  -91.8546   31.2447   -4.2325 C   0  0  0  0  0  0  0  0  0  0  0  0
  -91.2356   32.3162   -4.8981 C   0  0  0  0  0  0  0  0  0  0  0  0
  -90.2192   33.0631   -4.3339 C   0  0  0  0  0  0  0  0  0  0  0  0
  -89.8134   32.7271   -3.0711 C   0  0  0  0  0  0  0  0  0  0  0  0
  -90.4233   31.6759   -2.4217 C   0  0  0  0  0  0  0  0  0  0  0  0
  -91.4568   30.9064   -2.9764 C   0  0  0  0  0  0  0  0  0  0  0  0
  -94.2650   27.3907   -1.9211 H   0  0  0  0  0  0  0  0  0  0  0  0
  -95.2785   26.9729   -3.2841 H   0  0  0  0  0  0  0  0  0  0  0  0
  -90.8966   28.9606   -1.4061 C   0  0  0  0  0  0  0  0  0  0  0  0
  -90.4764   27.9309   -2.1810 O   0  0  0  0  0  0  0  0  0  0  0  0
  -89.1147   27.9856   -2.3661 C   0  0  0  0  0  0  0  0  0  0  0  0
  -88.2915   27.7614   -1.1247 C   0  0  0  0  0  0  0  0  0  0  0  0
  -87.4012   26.1508    0.2973 C   0  0  0  0  0  0  0  0  0  0  0  0
  -88.0143   26.4170   -0.8954 O   0  0  0  0  0  0  0  0  0  0  0  0
  -88.7236   33.5261   -2.4633 C   0  0  0  0  0  0  0  0  0  0  0  0
  -87.5126   32.8016   -2.3359 N   0  0  0  0  0  0  0  0  0  0  0  0
  -86.3492   33.5520   -1.9824 C   0  0  0  0  0  0  0  0  0  0  0  0
  -85.9341   33.3454   -0.5429 C   0  0  0  0  0  0  0  0  0  0  0  0
  -85.9761   31.9649   -0.1574 N   0  0  0  0  0  0  0  0  0  0  0  0
  -87.2231   31.2696   -0.4058 C   0  0  0  0  0  0  0  0  0  0  0  0
  -87.5731   31.4768   -1.8632 C   0  0  0  0  0  0  0  0  0  0  0  0
  -84.8593   31.3207    0.4172 C   0  0  0  0  0  0  0  0  0  0  0  0
  -83.6010   31.8982    0.2301 C   0  0  0  0  0  0  0  0  0  0  0  0
  -82.4763   31.3172    0.7855 C   0  0  0  0  0  0  0  0  0  0  0  0
  -82.6183   30.1640    1.5225 C   0  0  0  0  0  0  0  0  0  0  0  0
  -83.8477   29.5784    1.7192 C   0  0  0  0  0  0  0  0  0  0  0  0
  -84.0763   28.1225    2.6413 Cl  0  0  0  0  0  0  0  0  0  0  0  0
  -84.9723   30.1694    1.1577 C   0  0  0  0  0  0  0  0  0  0  0  0
 23 24  1  0  0  0
 24 22  1  0  0  0
 22 21  1  0  0  0
 21 20  1  0  0  0
 20 19  1  0  0  0
 19  1  1  0  0  0
  1  2  2  0  0  0
  2  3  1  0  0  0
  3  4  2  0  0  0
  3  5  1  0  0  0
  5  6  1  0  0  0
  5  7  1  0  0  0
  7  8  1  0  0  0
  8  9  1  0  0  0
  9 10  1  0  0  0
 10 11  1  0  0  0
 11 12  2  0  0  0
 12 13  1  0  0  0
 13 14  2  0  0  0
 14 25  1  0  0  0
 25 26  1  0  0  0
 26 27  1  0  0  0
 27 28  1  0  0  0
 28 29  1  0  0  0
 29 30  1  0  0  0
 30 31  1  0  0  0
 29 32  1  0  0  0
 32 33  2  0  0  0
 33 34  1  0  0  0
 34 35  2  0  0  0
 35 36  1  0  0  0
 36 37  1  0  0  0
 36 38  2  0  0  0
 14 15  1  0  0  0
 15 16  2  0  0  0
 16  1  1  0  0  0
 16 11  1  0  0  0
 31 26  1  0  0  0
 38 32  1  0  0  0
  6 17  1  0  0  0
  6 18  1  0  0  0
M  END
> <minimizedAffinity>
-8.51412

> <CNNscore>
0.0690238401

> <CNNaffinity>
5.5665593147

> <CNN_VS>
0.3842253089

> <CNNaffinity_variance>
0.6464328766

$$$$
[H]c1c([H])c(Cl)c([H])c(N2C([H])([H])C([H])([H])N(C([H])([H])c3c([H])c([H])c4c(c3[H])C(C([H])([H])OC([H])([H])C([H])([H])OC([H])([H])[H])=NC(=O)C([H])(N([H])[H])OC([H])([H])C([H])([H])C4([H])[H])C([H])([H])C2([H])[H])c1[H]


 38 41  0  0  0  0  0  0  0  0999 V2000
  -88.4668   29.2092   -2.6512 C   0  0  0  0  0  0  0  0  0  0  0  0
  -87.8283   30.1079   -3.2539 N   0  0  0  0  0  0  0  0  0  0  0  0
  -87.9566   31.1345   -4.1322 C   0  0  0  0  0  0  0  0  0  0  0  0
  -88.1236   31.1185   -5.4057 O   0  0  0  0  0  0  0  0  0  0  0  0
  -87.8996   32.5263   -3.5672 C   0  0  0  0  0  0  0  0  0  0  0  0
  -86.7154   32.6902   -2.7355 N   0  0  0  0  0  0  0  0  0  0  0  0
  -89.0452   32.8077   -2.8330 O   0  0  0  0  0  0  0  0  0  0  0  0
  -88.9615   32.4425   -1.5142 C   0  0  0  0  0  0  0  0  0  0  0  0
  -90.0852   31.4911   -1.2182 C   0  0  0  0  0  0  0  0  0  0  0  0
  -90.9652   31.1885   -2.3991 C   0  0  0  0  0  0  0  0  0  0  0  0
  -90.9796   29.7132   -2.6194 C   0  0  0  0  0  0  0  0  0  0  0  0
  -92.2771   29.1815   -2.7091 C   0  0  0  0  0  0  0  0  0  0  0  0
  -92.5247   27.8339   -2.8875 C   0  0  0  0  0  0  0  0  0  0  0  0
  -91.4446   26.9988   -2.9780 C   0  0  0  0  0  0  0  0  0  0  0  0
  -90.1739   27.5245   -2.8899 C   0  0  0  0  0  0  0  0  0  0  0  0
  -89.9015   28.8887   -2.7099 C   0  0  0  0  0  0  0  0  0  0  0  0
  -86.3394   31.8133   -2.3662 H   0  0  0  0  0  0  0  0  0  0  0  0
  -86.8987   33.4423   -2.0616 H   0  0  0  0  0  0  0  0  0  0  0  0
  -87.5966   28.3349   -1.7370 C   0  0  0  0  0  0  0  0  0  0  0  0
  -88.0878   28.2222   -0.4786 O   0  0  0  0  0  0  0  0  0  0  0  0
  -87.4943   29.1374    0.3590 C   0  0  0  0  0  0  0  0  0  0  0  0
  -86.1371   29.6205   -0.0812 C   0  0  0  0  0  0  0  0  0  0  0  0
  -84.8772   31.5389    0.2943 C   0  0  0  0  0  0  0  0  0  0  0  0
  -86.0546   31.0079   -0.1540 O   0  0  0  0  0  0  0  0  0  0  0  0
  -91.7068   25.5531   -3.1692 C   0  0  0  0  0  0  0  0  0  0  0  0
  -91.7185   24.8283   -1.9518 N   0  0  0  0  0  0  0  0  0  0  0  0
  -90.4843   24.2331   -1.5466 C   0  0  0  0  0  0  0  0  0  0  0  0
  -89.8202   24.9780   -0.4103 C   0  0  0  0  0  0  0  0  0  0  0  0
  -90.7505   25.3429    0.6182 N   0  0  0  0  0  0  0  0  0  0  0  0
  -91.9280   26.0689    0.1866 C   0  0  0  0  0  0  0  0  0  0  0  0
  -92.5728   25.2657   -0.9218 C   0  0  0  0  0  0  0  0  0  0  0  0
  -90.5344   24.9992    1.9701 C   0  0  0  0  0  0  0  0  0  0  0  0
  -90.5066   23.6433    2.3057 C   0  0  0  0  0  0  0  0  0  0  0  0
  -90.2819   23.2517    3.6123 C   0  0  0  0  0  0  0  0  0  0  0  0
  -90.0874   24.2181    4.5723 C   0  0  0  0  0  0  0  0  0  0  0  0
  -90.1109   25.5587    4.2639 C   0  0  0  0  0  0  0  0  0  0  0  0
  -89.8714   26.8147    5.4418 Cl  0  0  0  0  0  0  0  0  0  0  0  0
  -90.3370   25.9428    2.9484 C   0  0  0  0  0  0  0  0  0  0  0  0
 23 24  1  0  0  0
 24 22  1  0  0  0
 22 21  1  0  0  0
 21 20  1  0  0  0
 20 19  1  0  0  0
 19  1  1  0  0  0
  1  2  2  0  0  0
  2  3  1  0  0  0
  3  4  2  0  0  0
  3  5  1  0  0  0
  5  6  1  0  0  0
  5  7  1  0  0  0
  7  8  1  0  0  0
  8  9  1  0  0  0
  9 10  1  0  0  0
 10 11  1  0  0  0
 11 12  2  0  0  0
 12 13  1  0  0  0
 13 14  2  0  0  0
 14 25  1  0  0  0
 25 26  1  0  0  0
 26 27  1  0  0  0
 27 28  1  0  0  0
 28 29  1  0  0  0
 29 30  1  0  0  0
 30 31  1  0  0  0
 29 32  1  0  0  0
 32 33  2  0  0  0
 33 34  1  0  0  0
 34 35  2  0  0  0
 35 36  1  0  0  0
 36 37  1  0  0  0
 36 38  2  0  0  0
 14 15  1  0  0  0
 15 16  2  0  0  0
 16  1  1  0  0  0
 16 11  1  0  0  0
 31 26  1  0  0  0
 38 32  1  0  0  0
  6 17  1  0  0  0
  6 18  1  0  0  0
M  END
> <minimizedAffinity>
-7.40844

> <CNNscore>
0.0596708693

> <CNNaffinity>
5.7993631363

> <CNN_VS>
0.3460530341

> <CNNaffinity_variance>
0.6804908514

$$$$
[H]c1c([H])c([H])c(C(F)(F)F)c(-c2c([H])c([H])c(N3C([H])([H])C([H])([H])N(C(=O)N([H])c4c([H])c(F)c([H])c(-c5c([H])c([H])c([H])c(N6C(=O)C([H])([H])C([H])([H])C6([H])[H])c5[H])c4[H])C([H])([H])C3([H])[H])c([H])c2[H])c1[H]


 45 50  0  0  0  0  0  0  0  0999 V2000
  -86.3003   33.8271   -2.0569 N   0  0  0  0  0  0  0  0  0  0  0  0
  -87.0053   33.6184   -3.2285 C   0  0  0  0  0  0  0  0  0  0  0  0
  -87.0723   32.4457   -3.7324 O   0  0  0  0  0  0  0  0  0  0  0  0
  -87.6718   34.6638   -3.9132 N   0  0  0  0  0  0  0  0  0  0  0  0
  -88.3853   34.3653   -5.1571 C   0  0  0  0  0  0  0  0  0  0  0  0
  -88.9855   35.6095   -5.7379 C   0  0  0  0  0  0  0  0  0  0  0  0
  -89.6824   36.4072   -4.7513 N   0  0  0  0  0  0  0  0  0  0  0  0
  -89.2026   36.3843   -3.3816 C   0  0  0  0  0  0  0  0  0  0  0  0
  -87.7018   36.0135   -3.4553 C   0  0  0  0  0  0  0  0  0  0  0  0
  -86.2859   34.8377   -1.7036 H   0  0  0  0  0  0  0  0  0  0  0  0
  -82.1304   32.6384    0.0007 F   0  0  0  0  0  0  0  0  0  0  0  0
  -83.4394   32.3773   -0.2519 C   0  0  0  0  0  0  0  0  0  0  0  0
  -84.2354   33.1931   -1.0073 C   0  0  0  0  0  0  0  0  0  0  0  0
  -85.5854   32.9021   -1.2551 C   0  0  0  0  0  0  0  0  0  0  0  0
  -86.0696   31.7556   -0.7012 C   0  0  0  0  0  0  0  0  0  0  0  0
  -85.3079   30.8894    0.0745 C   0  0  0  0  0  0  0  0  0  0  0  0
  -83.9929   31.2186    0.2878 C   0  0  0  0  0  0  0  0  0  0  0  0
  -85.8180   29.6662    0.6703 C   0  0  0  0  0  0  0  0  0  0  0  0
  -85.0091   28.8601    1.4444 C   0  0  0  0  0  0  0  0  0  0  0  0
  -85.4604   27.6913    2.0177 C   0  0  0  0  0  0  0  0  0  0  0  0
  -86.7640   27.3055    1.8163 C   0  0  0  0  0  0  0  0  0  0  0  0
  -87.6178   28.0839    1.0442 C   0  0  0  0  0  0  0  0  0  0  0  0
  -87.1248   29.2446    0.4904 C   0  0  0  0  0  0  0  0  0  0  0  0
  -88.9763   27.6823    0.8305 N   0  0  0  0  0  0  0  0  0  0  0  0
  -89.9147   27.2187    1.7869 C   0  0  0  0  0  0  0  0  0  0  0  0
  -89.8132   27.3216    3.0503 O   0  0  0  0  0  0  0  0  0  0  0  0
  -91.0677   26.5782    1.1249 C   0  0  0  0  0  0  0  0  0  0  0  0
  -90.9037   26.9111   -0.3145 C   0  0  0  0  0  0  0  0  0  0  0  0
  -89.6405   27.6846   -0.4430 C   0  0  0  0  0  0  0  0  0  0  0  0
  -90.7974   37.1908   -5.1321 C   0  0  0  0  0  0  0  0  0  0  0  0
  -91.0141   38.4350   -4.5417 C   0  0  0  0  0  0  0  0  0  0  0  0
  -92.0713   39.2269   -4.8834 C   0  0  0  0  0  0  0  0  0  0  0  0
  -92.9757   38.8317   -5.8311 C   0  0  0  0  0  0  0  0  0  0  0  0
  -92.7794   37.6053   -6.4267 C   0  0  0  0  0  0  0  0  0  0  0  0
  -91.7031   36.7832   -6.0878 C   0  0  0  0  0  0  0  0  0  0  0  0
  -94.1107   39.6615   -6.2079 C   0  0  0  0  0  0  0  0  0  0  0  0
  -93.9346   40.5171   -7.3149 C   0  0  0  0  0  0  0  0  0  0  0  0
  -94.9813   41.3123   -7.7060 C   0  0  0  0  0  0  0  0  0  0  0  0
  -96.2049   41.2941   -7.0398 C   0  0  0  0  0  0  0  0  0  0  0  0
  -96.3642   40.4652   -5.9730 C   0  0  0  0  0  0  0  0  0  0  0  0
  -95.3123   39.6389   -5.5474 C   0  0  0  0  0  0  0  0  0  0  0  0
  -95.5213   38.7635   -4.3946 C   0  0  0  0  0  0  0  0  0  0  0  0
  -95.2921   37.4307   -4.6218 F   0  0  0  0  0  0  0  0  0  0  0  0
  -96.8471   38.8541   -3.9736 F   0  0  0  0  0  0  0  0  0  0  0  0
  -94.7370   39.1301   -3.3074 F   0  0  0  0  0  0  0  0  0  0  0  0
 11 12  1  0  0  0
 12 13  2  0  0  0
 13 14  1  0  0  0
 14  1  1  0  0  0
  1  2  1  0  0  0
  2  3  2  0  0  0
  2  4  1  0  0  0
  4  5  1  0  0  0
  5  6  1  0  0  0
  6  7  1  0  0  0
  7  8  1  0  0  0
  8  9  1  0  0  0
  7 30  1  0  0  0
 30 31  2  0  0  0
 31 32  1  0  0  0
 32 33  2  0  0  0
 33 34  1  0  0  0
 34 35  2  0  0  0
 33 36  1  0  0  0
 36 37  2  0  0  0
 37 38  1  0  0  0
 38 39  2  0  0  0
 39 40  1  0  0  0
 40 41  2  0  0  0
 41 42  1  0  0  0
 42 43  1  0  0  0
 42 44  1  0  0  0
 42 45  1  0  0  0
 14 15  2  0  0  0
 15 16  1  0  0  0
 16 17  2  0  0  0
 16 18  1  0  0  0
 18 19  2  0  0  0
 19 20  1  0  0  0
 20 21  2  0  0  0
 21 22  1  0  0  0
 22 23  2  0  0  0
 22 24  1  0  0  0
 24 25  1  0  0  0
 25 26  2  0  0  0
 25 27  1  0  0  0
 27 28  1  0  0  0
 28 29  1  0  0  0
 17 12  1  0  0  0
 23 18  1  0  0  0
 29 24  1  0  0  0
  9  4  1  0  0  0
 35 30  1  0  0  0
 41 36  1  0  0  0
  1 10  1  0  0  0
M  END
> <minimizedAffinity>
-8.42307

> <CNNscore>
0.1846081018

> <CNNaffinity>
6.4945998192

> <CNN_VS>
1.1989557743

> <CNNaffinity_variance>
0.0600889549

$$$$
[H]c1c([H])c([H])c(C(F)(F)F)c(-c2c([H])c([H])c(N3C([H])([H])C([H])([H])N(C(=O)N([H])c4c([H])c(F)c([H])c(-c5c([H])c([H])c([H])c(N6C(=O)C([H])([H])C([H])([H])C6([H])[H])c5[H])c4[H])C([H])([H])C3([H])[H])c([H])c2[H])c1[H]


 45 50  0  0  0  0  0  0  0  0999 V2000
  -93.4030   24.5517   -3.3593 N   0  0  0  0  0  0  0  0  0  0  0  0
  -93.4374   25.6857   -2.5680 C   0  0  0  0  0  0  0  0  0  0  0  0
  -94.4550   25.9183   -1.8305 O   0  0  0  0  0  0  0  0  0  0  0  0
  -92.3766   26.6234   -2.5339 N   0  0  0  0  0  0  0  0  0  0  0  0
  -92.4942   27.8082   -1.6808 C   0  0  0  0  0  0  0  0  0  0  0  0
  -91.2871   28.6854   -1.8188 C   0  0  0  0  0  0  0  0  0  0  0  0
  -90.0462   27.9431   -1.7516 N   0  0  0  0  0  0  0  0  0  0  0  0
  -90.0314   26.5777   -2.2435 C   0  0  0  0  0  0  0  0  0  0  0  0
  -91.1729   26.4806   -3.2842 C   0  0  0  0  0  0  0  0  0  0  0  0
  -92.5198   24.4325   -3.9527 H   0  0  0  0  0  0  0  0  0  0  0  0
  -97.2617   22.9417   -5.7158 F   0  0  0  0  0  0  0  0  0  0  0  0
  -96.3175   22.7875   -4.7513 C   0  0  0  0  0  0  0  0  0  0  0  0
  -95.3326   23.7052   -4.5116 C   0  0  0  0  0  0  0  0  0  0  0  0
  -94.3681   23.5241   -3.5088 C   0  0  0  0  0  0  0  0  0  0  0  0
  -94.4616   22.3783   -2.7779 C   0  0  0  0  0  0  0  0  0  0  0  0
  -95.4402   21.4114   -2.9770 C   0  0  0  0  0  0  0  0  0  0  0  0
  -96.3604   21.6350   -3.9701 C   0  0  0  0  0  0  0  0  0  0  0  0
  -95.5448   20.1860   -2.2031 C   0  0  0  0  0  0  0  0  0  0  0  0
  -96.6068   19.3226   -2.3768 C   0  0  0  0  0  0  0  0  0  0  0  0
  -96.7384   18.1567   -1.6546 C   0  0  0  0  0  0  0  0  0  0  0  0
  -95.7807   17.8331   -0.7235 C   0  0  0  0  0  0  0  0  0  0  0  0
  -94.6921   18.6706   -0.5122 C   0  0  0  0  0  0  0  0  0  0  0  0
  -94.6003   19.8258   -1.2565 C   0  0  0  0  0  0  0  0  0  0  0  0
  -93.6941   18.3367    0.4598 N   0  0  0  0  0  0  0  0  0  0  0  0
  -93.7156   18.5766    1.8570 C   0  0  0  0  0  0  0  0  0  0  0  0
  -94.7340   18.8934    2.5494 O   0  0  0  0  0  0  0  0  0  0  0  0
  -92.3700   18.4105    2.4400 C   0  0  0  0  0  0  0  0  0  0  0  0
  -91.5655   17.7948    1.3522 C   0  0  0  0  0  0  0  0  0  0  0  0
  -92.4540   17.6741    0.1663 C   0  0  0  0  0  0  0  0  0  0  0  0
  -88.8832   28.5525   -1.2238 C   0  0  0  0  0  0  0  0  0  0  0  0
  -87.7107   28.5944   -1.9767 C   0  0  0  0  0  0  0  0  0  0  0  0
  -86.5687   29.1779   -1.5107 C   0  0  0  0  0  0  0  0  0  0  0  0
  -86.5225   29.7544   -0.2706 C   0  0  0  0  0  0  0  0  0  0  0  0
  -87.6709   29.7237    0.4893 C   0  0  0  0  0  0  0  0  0  0  0  0
  -88.8471   29.1303    0.0271 C   0  0  0  0  0  0  0  0  0  0  0  0
  -85.3135   30.3801    0.2446 C   0  0  0  0  0  0  0  0  0  0  0  0
  -84.4209   29.5519    0.9558 C   0  0  0  0  0  0  0  0  0  0  0  0
  -83.2672   30.1011    1.4538 C   0  0  0  0  0  0  0  0  0  0  0  0
  -82.9593   31.4481    1.2745 C   0  0  0  0  0  0  0  0  0  0  0  0
  -83.8273   32.2384    0.5870 C   0  0  0  0  0  0  0  0  0  0  0  0
  -85.0168   31.7069    0.0647 C   0  0  0  0  0  0  0  0  0  0  0  0
  -85.9259   32.5891   -0.6661 C   0  0  0  0  0  0  0  0  0  0  0  0
  -86.1701   32.2310   -1.9671 F   0  0  0  0  0  0  0  0  0  0  0  0
  -85.3867   33.8735   -0.7210 F   0  0  0  0  0  0  0  0  0  0  0  0
  -87.1608   32.7069   -0.0395 F   0  0  0  0  0  0  0  0  0  0  0  0
 11 12  1  0  0  0
 12 13  2  0  0  0
 13 14  1  0  0  0
 14  1  1  0  0  0
  1  2  1  0  0  0
  2  3  2  0  0  0
  2  4  1  0  0  0
  4  5  1  0  0  0
  5  6  1  0  0  0
  6  7  1  0  0  0
  7  8  1  0  0  0
  8  9  1  0  0  0
  7 30  1  0  0  0
 30 31  2  0  0  0
 31 32  1  0  0  0
 32 33  2  0  0  0
 33 34  1  0  0  0
 34 35  2  0  0  0
 33 36  1  0  0  0
 36 37  2  0  0  0
 37 38  1  0  0  0
 38 39  2  0  0  0
 39 40  1  0  0  0
 40 41  2  0  0  0
 41 42  1  0  0  0
 42 43  1  0  0  0
 42 44  1  0  0  0
 42 45  1  0  0  0
 14 15  2  0  0  0
 15 16  1  0  0  0
 16 17  2  0  0  0
 16 18  1  0  0  0
 18 19  2  0  0  0
 19 20  1  0  0  0
 20 21  2  0  0  0
 21 22  1  0  0  0
 22 23  2  0  0  0
 22 24  1  0  0  0
 24 25  1  0  0  0
 25 26  2  0  0  0
 25 27  1  0  0  0
 27 28  1  0  0  0
 28 29  1  0  0  0
 17 12  1  0  0  0
 23 18  1  0  0  0
 29 24  1  0  0  0
  9  4  1  0  0  0
 35 30  1  0  0  0
 41 36  1  0  0  0
  1 10  1  0  0  0
M  END
> <minimizedAffinity>
-8.42479

> <CNNscore>
0.1833134294

> <CNNaffinity>
6.2396507263

> <CNN_VS>
1.1438118219

> <CNNaffinity_variance>
0.8504473567

$$$$
[H]c1c([H])c([H])c(C(F)(F)F)c(-c2c([H])c([H])c(N3C([H])([H])C([H])([H])N(C(=O)N([H])c4c([H])c(F)c([H])c(-c5c([H])c([H])c([H])c(N6C(=O)C([H])([H])C([H])([H])C6([H])[H])c5[H])c4[H])C([H])([H])C3([H])[H])c([H])c2[H])c1[H]


 45 50  0  0  0  0  0  0  0  0999 V2000
  -90.2683   32.0656   -2.6136 N   0  0  0  0  0  0  0  0  0  0  0  0
  -90.7556   31.4280   -3.7402 C   0  0  0  0  0  0  0  0  0  0  0  0
  -90.0857   31.4549   -4.8284 O   0  0  0  0  0  0  0  0  0  0  0  0
  -91.9885   30.7311   -3.7480 N   0  0  0  0  0  0  0  0  0  0  0  0
  -92.4440   30.0937   -4.9856 C   0  0  0  0  0  0  0  0  0  0  0  0
  -93.7812   29.4462   -4.7899 C   0  0  0  0  0  0  0  0  0  0  0  0
  -93.8486   28.6586   -3.5773 N   0  0  0  0  0  0  0  0  0  0  0  0
  -93.0527   29.0766   -2.4378 C   0  0  0  0  0  0  0  0  0  0  0  0
  -92.8273   30.5989   -2.6029 C   0  0  0  0  0  0  0  0  0  0  0  0
  -90.8912   32.0029   -1.7451 H   0  0  0  0  0  0  0  0  0  0  0  0
  -87.8661   36.1424   -3.4160 F   0  0  0  0  0  0  0  0  0  0  0  0
  -87.9267   34.8913   -2.8899 C   0  0  0  0  0  0  0  0  0  0  0  0
  -89.0285   34.0878   -2.9893 C   0  0  0  0  0  0  0  0  0  0  0  0
  -89.0675   32.7982   -2.4378 C   0  0  0  0  0  0  0  0  0  0  0  0
  -87.9427   32.3811   -1.7923 C   0  0  0  0  0  0  0  0  0  0  0  0
  -86.7949   33.1538   -1.6603 C   0  0  0  0  0  0  0  0  0  0  0  0
  -86.8068   34.4080   -2.2170 C   0  0  0  0  0  0  0  0  0  0  0  0
  -85.5925   32.7166   -0.9714 C   0  0  0  0  0  0  0  0  0  0  0  0
  -84.4419   33.4775   -0.9947 C   0  0  0  0  0  0  0  0  0  0  0  0
  -83.2842   33.0879   -0.3574 C   0  0  0  0  0  0  0  0  0  0  0  0
  -83.2650   31.8980    0.3299 C   0  0  0  0  0  0  0  0  0  0  0  0
  -84.3988   31.0964    0.3825 C   0  0  0  0  0  0  0  0  0  0  0  0
  -85.5345   31.5246   -0.2687 C   0  0  0  0  0  0  0  0  0  0  0  0
  -84.3803   29.8542    1.0959 N   0  0  0  0  0  0  0  0  0  0  0  0
  -85.4101   28.8848    1.1960 C   0  0  0  0  0  0  0  0  0  0  0  0
  -86.4442   28.8083    0.4599 O   0  0  0  0  0  0  0  0  0  0  0  0
  -85.1358   27.9375    2.2939 C   0  0  0  0  0  0  0  0  0  0  0  0
  -83.7353   28.2294    2.6974 C   0  0  0  0  0  0  0  0  0  0  0  0
  -83.2666   29.3644    1.8592 C   0  0  0  0  0  0  0  0  0  0  0  0
  -94.6821   27.5165   -3.5190 C   0  0  0  0  0  0  0  0  0  0  0  0
  -95.9889   27.6260   -3.0460 C   0  0  0  0  0  0  0  0  0  0  0  0
  -96.8295   26.5533   -2.9794 C   0  0  0  0  0  0  0  0  0  0  0  0
  -96.4236   25.3089   -3.3782 C   0  0  0  0  0  0  0  0  0  0  0  0
  -95.1357   25.1796   -3.8490 C   0  0  0  0  0  0  0  0  0  0  0  0
  -94.2633   26.2671   -3.9231 C   0  0  0  0  0  0  0  0  0  0  0  0
  -97.3050   24.1523   -3.3131 C   0  0  0  0  0  0  0  0  0  0  0  0
  -97.3628   23.4638   -2.0839 C   0  0  0  0  0  0  0  0  0  0  0  0
  -98.1850   22.3712   -1.9788 C   0  0  0  0  0  0  0  0  0  0  0  0
  -98.9583   21.9296   -3.0503 C   0  0  0  0  0  0  0  0  0  0  0  0
  -98.8949   22.6008   -4.2318 C   0  0  0  0  0  0  0  0  0  0  0  0
  -98.0632   23.7228   -4.3721 C   0  0  0  0  0  0  0  0  0  0  0  0
  -98.0202   24.4162   -5.6590 C   0  0  0  0  0  0  0  0  0  0  0  0
  -96.7836   24.4821   -6.2480 F   0  0  0  0  0  0  0  0  0  0  0  0
  -98.4314   25.7376   -5.4915 F   0  0  0  0  0  0  0  0  0  0  0  0
  -98.8830   23.8503   -6.5900 F   0  0  0  0  0  0  0  0  0  0  0  0
 11 12  1  0  0  0
 12 13  2  0  0  0
 13 14  1  0  0  0
 14  1  1  0  0  0
  1  2  1  0  0  0
  2  3  2  0  0  0
  2  4  1  0  0  0
  4  5  1  0  0  0
  5  6  1  0  0  0
  6  7  1  0  0  0
  7  8  1  0  0  0
  8  9  1  0  0  0
  7 30  1  0  0  0
 30 31  2  0  0  0
 31 32  1  0  0  0
 32 33  2  0  0  0
 33 34  1  0  0  0
 34 35  2  0  0  0
 33 36  1  0  0  0
 36 37  2  0  0  0
 37 38  1  0  0  0
 38 39  2  0  0  0
 39 40  1  0  0  0
 40 41  2  0  0  0
 41 42  1  0  0  0
 42 43  1  0  0  0
 42 44  1  0  0  0
 42 45  1  0  0  0
 14 15  2  0  0  0
 15 16  1  0  0  0
 16 17  2  0  0  0
 16 18  1  0  0  0
 18 19  2  0  0  0
 19 20  1  0  0  0
 20 21  2  0  0  0
 21 22  1  0  0  0
 22 23  2  0  0  0
 22 24  1  0  0  0
 24 25  1  0  0  0
 25 26  2  0  0  0
 25 27  1  0  0  0
 27 28  1  0  0  0
 28 29  1  0  0  0
 17 12  1  0  0  0
 23 18  1  0  0  0
 29 24  1  0  0  0
  9  4  1  0  0  0
 35 30  1  0  0  0
 41 36  1  0  0  0
  1 10  1  0  0  0
M  END
> <minimizedAffinity>
-8.84587

> <CNNscore>
0.1626626849

> <CNNaffinity>
6.1868066788

> <CNN_VS>
1.0063625574

> <CNNaffinity_variance>
0.1862213612

$$$$
[H]c1c([H])c([H])c(C(F)(F)F)c(-c2c([H])c([H])c(N3C([H])([H])C([H])([H])N(C(=O)N([H])c4c([H])c(F)c([H])c(-c5c([H])c([H])c([H])c(N6C(=O)C([H])([H])C([H])([H])C6([H])[H])c5[H])c4[H])C([H])([H])C3([H])[H])c([H])c2[H])c1[H]


 45 50  0  0  0  0  0  0  0  0999 V2000
  -93.1926   24.7056   -3.5499 N   0  0  0  0  0  0  0  0  0  0  0  0
  -93.1893   25.6876   -2.5758 C   0  0  0  0  0  0  0  0  0  0  0  0
  -94.1185   25.7194   -1.6988 O   0  0  0  0  0  0  0  0  0  0  0  0
  -92.1843   26.6827   -2.5005 N   0  0  0  0  0  0  0  0  0  0  0  0
  -92.2586   27.6984   -1.4477 C   0  0  0  0  0  0  0  0  0  0  0  0
  -91.1267   28.6731   -1.5678 C   0  0  0  0  0  0  0  0  0  0  0  0
  -89.8490   28.0238   -1.7707 N   0  0  0  0  0  0  0  0  0  0  0  0
  -89.8222   26.7632   -2.4896 C   0  0  0  0  0  0  0  0  0  0  0  0
  -91.0770   26.7552   -3.3954 C   0  0  0  0  0  0  0  0  0  0  0  0
  -92.3847   24.7516   -4.2510 H   0  0  0  0  0  0  0  0  0  0  0  0
  -97.2944   23.2662   -5.5841 F   0  0  0  0  0  0  0  0  0  0  0  0
  -96.1972   23.0063   -4.8263 C   0  0  0  0  0  0  0  0  0  0  0  0
  -95.2372   23.9401   -4.5505 C   0  0  0  0  0  0  0  0  0  0  0  0
  -94.1122   23.6483   -3.7644 C   0  0  0  0  0  0  0  0  0  0  0  0
  -94.0220   22.3767   -3.2841 C   0  0  0  0  0  0  0  0  0  0  0  0
  -94.9664   21.3873   -3.5319 C   0  0  0  0  0  0  0  0  0  0  0  0
  -96.0484   21.7227   -4.3064 C   0  0  0  0  0  0  0  0  0  0  0  0
  -94.8757   20.0285   -3.0250 C   0  0  0  0  0  0  0  0  0  0  0  0
  -95.4077   18.9686   -3.7299 C   0  0  0  0  0  0  0  0  0  0  0  0
  -95.3440   17.6701   -3.2738 C   0  0  0  0  0  0  0  0  0  0  0  0
  -94.7294   17.4109   -2.0722 C   0  0  0  0  0  0  0  0  0  0  0  0
  -94.1783   18.4451   -1.3253 C   0  0  0  0  0  0  0  0  0  0  0  0
  -94.2644   19.7279   -1.8193 C   0  0  0  0  0  0  0  0  0  0  0  0
  -93.5397   18.1777   -0.0710 N   0  0  0  0  0  0  0  0  0  0  0  0
  -94.1081   18.2117    1.2274 C   0  0  0  0  0  0  0  0  0  0  0  0
  -95.3491   18.2266    1.5043 O   0  0  0  0  0  0  0  0  0  0  0  0
  -93.0556   18.2286    2.2619 C   0  0  0  0  0  0  0  0  0  0  0  0
  -91.8000   17.9374    1.5216 C   0  0  0  0  0  0  0  0  0  0  0  0
  -92.1589   17.8142    0.0841 C   0  0  0  0  0  0  0  0  0  0  0  0
  -88.6639   28.6219   -1.2806 C   0  0  0  0  0  0  0  0  0  0  0  0
  -88.7354   29.6840   -0.3806 C   0  0  0  0  0  0  0  0  0  0  0  0
  -87.6191   30.2856    0.1232 C   0  0  0  0  0  0  0  0  0  0  0  0
  -86.3662   29.8689   -0.2358 C   0  0  0  0  0  0  0  0  0  0  0  0
  -86.2739   28.8203   -1.1242 C   0  0  0  0  0  0  0  0  0  0  0  0
  -87.4063   28.1946   -1.6489 C   0  0  0  0  0  0  0  0  0  0  0  0
  -85.1637   30.4989    0.2894 C   0  0  0  0  0  0  0  0  0  0  0  0
  -84.7022   31.6497   -0.3822 C   0  0  0  0  0  0  0  0  0  0  0  0
  -83.5750   32.2767    0.0836 C   0  0  0  0  0  0  0  0  0  0  0  0
  -82.8809   31.8063    1.1964 C   0  0  0  0  0  0  0  0  0  0  0  0
  -83.3345   30.6952    1.8369 C   0  0  0  0  0  0  0  0  0  0  0  0
  -84.4852   30.0302    1.3852 C   0  0  0  0  0  0  0  0  0  0  0  0
  -84.9399   28.8373    2.0986 C   0  0  0  0  0  0  0  0  0  0  0  0
  -85.1530   27.7319    1.3156 F   0  0  0  0  0  0  0  0  0  0  0  0
  -86.1588   29.1018    2.7213 F   0  0  0  0  0  0  0  0  0  0  0  0
  -84.0584   28.4581    3.1038 F   0  0  0  0  0  0  0  0  0  0  0  0
 11 12  1  0  0  0
 12 13  2  0  0  0
 13 14  1  0  0  0
 14  1  1  0  0  0
  1  2  1  0  0  0
  2  3  2  0  0  0
  2  4  1  0  0  0
  4  5  1  0  0  0
  5  6  1  0  0  0
  6  7  1  0  0  0
  7  8  1  0  0  0
  8  9  1  0  0  0
  7 30  1  0  0  0
 30 31  2  0  0  0
 31 32  1  0  0  0
 32 33  2  0  0  0
 33 34  1  0  0  0
 34 35  2  0  0  0
 33 36  1  0  0  0
 36 37  2  0  0  0
 37 38  1  0  0  0
 38 39  2  0  0  0
 39 40  1  0  0  0
 40 41  2  0  0  0
 41 42  1  0  0  0
 42 43  1  0  0  0
 42 44  1  0  0  0
 42 45  1  0  0  0
 14 15  2  0  0  0
 15 16  1  0  0  0
 16 17  2  0  0  0
 16 18  1  0  0  0
 18 19  2  0  0  0
 19 20  1  0  0  0
 20 21  2  0  0  0
 21 22  1  0  0  0
 22 23  2  0  0  0
 22 24  1  0  0  0
 24 25  1  0  0  0
 25 26  2  0  0  0
 25 27  1  0  0  0
 27 28  1  0  0  0
 28 29  1  0  0  0
 17 12  1  0  0  0
 23 18  1  0  0  0
 29 24  1  0  0  0
  9  4  1  0  0  0
 35 30  1  0  0  0
 41 36  1  0  0  0
  1 10  1  0  0  0
M  END
> <minimizedAffinity>
-8.73939

> <CNNscore>
0.1402084380

> <CNNaffinity>
6.2839546204

> <CNN_VS>
0.8810634613

> <CNNaffinity_variance>
0.5384656787

$$$$
[H]c1c([H])c([H])c(C(F)(F)F)c(-c2c([H])c([H])c(N3C([H])([H])C([H])([H])N(C(=O)N([H])c4c([H])c(F)c([H])c(-c5c([H])c([H])c([H])c(N6C(=O)C([H])([H])C([H])([H])C6([H])[H])c5[H])c4[H])C([H])([H])C3([H])[H])c([H])c2[H])c1[H]


 45 50  0  0  0  0  0  0  0  0999 V2000
  -93.8630   26.3668   -3.7077 N   0  0  0  0  0  0  0  0  0  0  0  0
  -92.8649   25.6983   -3.0219 C   0  0  0  0  0  0  0  0  0  0  0  0
  -92.7327   24.4346   -3.1594 O   0  0  0  0  0  0  0  0  0  0  0  0
  -91.9616   26.3601   -2.1549 N   0  0  0  0  0  0  0  0  0  0  0  0
  -90.9404   25.5798   -1.4522 C   0  0  0  0  0  0  0  0  0  0  0  0
  -90.1171   26.4601   -0.5617 C   0  0  0  0  0  0  0  0  0  0  0  0
  -89.6841   27.6737   -1.2211 N   0  0  0  0  0  0  0  0  0  0  0  0
  -90.5396   28.2459   -2.2445 C   0  0  0  0  0  0  0  0  0  0  0  0
  -91.9761   27.7669   -1.9247 C   0  0  0  0  0  0  0  0  0  0  0  0
  -93.9122   27.4220   -3.5336 H   0  0  0  0  0  0  0  0  0  0  0  0
  -97.7828   27.2486   -6.3331 F   0  0  0  0  0  0  0  0  0  0  0  0
  -96.8194   26.3945   -5.8994 C   0  0  0  0  0  0  0  0  0  0  0  0
  -95.8228   26.7620   -5.0382 C   0  0  0  0  0  0  0  0  0  0  0  0
  -94.8385   25.8615   -4.6036 C   0  0  0  0  0  0  0  0  0  0  0  0
  -94.9248   24.5904   -5.0859 C   0  0  0  0  0  0  0  0  0  0  0  0
  -95.9144   24.1610   -5.9625 C   0  0  0  0  0  0  0  0  0  0  0  0
  -96.8540   25.0797   -6.3579 C   0  0  0  0  0  0  0  0  0  0  0  0
  -96.0115   22.8077   -6.4827 C   0  0  0  0  0  0  0  0  0  0  0  0
  -96.6563   22.5475   -7.6743 C   0  0  0  0  0  0  0  0  0  0  0  0
  -96.7710   21.2754   -8.1911 C   0  0  0  0  0  0  0  0  0  0  0  0
  -96.2260   20.2195   -7.5007 C   0  0  0  0  0  0  0  0  0  0  0  0
  -95.5666   20.4307   -6.2959 C   0  0  0  0  0  0  0  0  0  0  0  0
  -95.4751   21.7186   -5.8163 C   0  0  0  0  0  0  0  0  0  0  0  0
  -95.0001   19.3312   -5.5730 N   0  0  0  0  0  0  0  0  0  0  0  0
  -95.6751   18.3217   -4.8413 C   0  0  0  0  0  0  0  0  0  0  0  0
  -96.9153   18.0484   -4.9064 O   0  0  0  0  0  0  0  0  0  0  0  0
  -94.7394   17.5952   -3.9612 C   0  0  0  0  0  0  0  0  0  0  0  0
  -93.3917   18.0502   -4.3928 C   0  0  0  0  0  0  0  0  0  0  0  0
  -93.5940   19.0581   -5.4670 C   0  0  0  0  0  0  0  0  0  0  0  0
  -88.4574   28.2788   -0.8583 C   0  0  0  0  0  0  0  0  0  0  0  0
  -88.4058   29.1726    0.2102 C   0  0  0  0  0  0  0  0  0  0  0  0
  -87.2441   29.7733    0.5992 C   0  0  0  0  0  0  0  0  0  0  0  0
  -86.0652   29.5227   -0.0484 C   0  0  0  0  0  0  0  0  0  0  0  0
  -86.0947   28.6420   -1.1071 C   0  0  0  0  0  0  0  0  0  0  0  0
  -87.2751   28.0196   -1.5176 C   0  0  0  0  0  0  0  0  0  0  0  0
  -84.8162   30.1549    0.3507 C   0  0  0  0  0  0  0  0  0  0  0  0
  -84.4078   31.2827   -0.3906 C   0  0  0  0  0  0  0  0  0  0  0  0
  -83.2392   31.9111   -0.0440 C   0  0  0  0  0  0  0  0  0  0  0  0
  -82.4525   31.4640    1.0155 C   0  0  0  0  0  0  0  0  0  0  0  0
  -82.8555   30.3750    1.7240 C   0  0  0  0  0  0  0  0  0  0  0  0
  -84.0465   29.7092    1.3946 C   0  0  0  0  0  0  0  0  0  0  0  0
  -84.4447   28.5404    2.1781 C   0  0  0  0  0  0  0  0  0  0  0  0
  -85.0748   27.5483    1.4715 F   0  0  0  0  0  0  0  0  0  0  0  0
  -85.3430   28.9278    3.1713 F   0  0  0  0  0  0  0  0  0  0  0  0
  -83.3671   27.9523    2.8294 F   0  0  0  0  0  0  0  0  0  0  0  0
 11 12  1  0  0  0
 12 13  2  0  0  0
 13 14  1  0  0  0
 14  1  1  0  0  0
  1  2  1  0  0  0
  2  3  2  0  0  0
  2  4  1  0  0  0
  4  5  1  0  0  0
  5  6  1  0  0  0
  6  7  1  0  0  0
  7  8  1  0  0  0
  8  9  1  0  0  0
  7 30  1  0  0  0
 30 31  2  0  0  0
 31 32  1  0  0  0
 32 33  2  0  0  0
 33 34  1  0  0  0
 34 35  2  0  0  0
 33 36  1  0  0  0
 36 37  2  0  0  0
 37 38  1  0  0  0
 38 39  2  0  0  0
 39 40  1  0  0  0
 40 41  2  0  0  0
 41 42  1  0  0  0
 42 43  1  0  0  0
 42 44  1  0  0  0
 42 45  1  0  0  0
 14 15  2  0  0  0
 15 16  1  0  0  0
 16 17  2  0  0  0
 16 18  1  0  0  0
 18 19  2  0  0  0
 19 20  1  0  0  0
 20 21  2  0  0  0
 21 22  1  0  0  0
 22 23  2  0  0  0
 22 24  1  0  0  0
 24 25  1  0  0  0
 25 26  2  0  0  0
 25 27  1  0  0  0
 27 28  1  0  0  0
 28 29  1  0  0  0
 17 12  1  0  0  0
 23 18  1  0  0  0
 29 24  1  0  0  0
  9  4  1  0  0  0
 35 30  1  0  0  0
 41 36  1  0  0  0
  1 10  1  0  0  0
M  END
> <minimizedAffinity>
-9.06905

> <CNNscore>
0.1211738214

> <CNNaffinity>
6.0637941360

> <CNN_VS>
0.7347730994

> <CNNaffinity_variance>
0.5483323336

$$$$
[H]c1c([H])c([H])c(C(F)(F)F)c(-c2c([H])c([H])c(N3C([H])([H])C([H])([H])N(C(=O)N([H])c4c([H])c(F)c([H])c(-c5c([H])c([H])c([H])c(N6C(=O)C([H])([H])C([H])([H])C6([H])[H])c5[H])c4[H])C([H])([H])C3([H])[H])c([H])c2[H])c1[H]


 45 50  0  0  0  0  0  0  0  0999 V2000
  -90.0837   31.7314   -2.9105 N   0  0  0  0  0  0  0  0  0  0  0  0
  -90.8283   31.6955   -4.0756 C   0  0  0  0  0  0  0  0  0  0  0  0
  -90.5329   32.4736   -5.0456 O   0  0  0  0  0  0  0  0  0  0  0  0
  -91.9271   30.8194   -4.2509 N   0  0  0  0  0  0  0  0  0  0  0  0
  -92.6758   30.8513   -5.5094 C   0  0  0  0  0  0  0  0  0  0  0  0
  -93.8154   29.8788   -5.4755 C   0  0  0  0  0  0  0  0  0  0  0  0
  -93.4263   28.5792   -4.9708 N   0  0  0  0  0  0  0  0  0  0  0  0
  -92.3638   28.5119   -3.9843 C   0  0  0  0  0  0  0  0  0  0  0  0
  -92.3541   29.8823   -3.2651 C   0  0  0  0  0  0  0  0  0  0  0  0
  -90.3987   31.0544   -2.1432 H   0  0  0  0  0  0  0  0  0  0  0  0
  -88.0106   36.0548   -3.1249 F   0  0  0  0  0  0  0  0  0  0  0  0
  -87.9921   34.7543   -2.7324 C   0  0  0  0  0  0  0  0  0  0  0  0
  -89.0089   33.8776   -2.9912 C   0  0  0  0  0  0  0  0  0  0  0  0
  -88.9670   32.5380   -2.5758 C   0  0  0  0  0  0  0  0  0  0  0  0
  -87.8525   32.1492   -1.8956 C   0  0  0  0  0  0  0  0  0  0  0  0
  -86.7893   32.9958   -1.6043 C   0  0  0  0  0  0  0  0  0  0  0  0
  -86.8783   34.2966   -2.0321 C   0  0  0  0  0  0  0  0  0  0  0  0
  -85.5987   32.5888   -0.8775 C   0  0  0  0  0  0  0  0  0  0  0  0
  -84.4230   33.3035   -0.9796 C   0  0  0  0  0  0  0  0  0  0  0  0
  -83.2756   32.9404   -0.3089 C   0  0  0  0  0  0  0  0  0  0  0  0
  -83.2931   31.8255    0.4945 C   0  0  0  0  0  0  0  0  0  0  0  0
  -84.4532   31.0727    0.6299 C   0  0  0  0  0  0  0  0  0  0  0  0
  -85.5772   31.4722   -0.0586 C   0  0  0  0  0  0  0  0  0  0  0  0
  -84.4730   29.9085    1.4645 N   0  0  0  0  0  0  0  0  0  0  0  0
  -83.3734   29.1427    1.9278 C   0  0  0  0  0  0  0  0  0  0  0  0
  -82.1517   29.4947    1.9096 O   0  0  0  0  0  0  0  0  0  0  0  0
  -83.8245   27.8398    2.4542 C   0  0  0  0  0  0  0  0  0  0  0  0
  -85.3044   27.9586    2.5264 C   0  0  0  0  0  0  0  0  0  0  0  0
  -85.6616   29.2998    1.9934 C   0  0  0  0  0  0  0  0  0  0  0  0
  -94.0824   27.4136   -5.4328 C   0  0  0  0  0  0  0  0  0  0  0  0
  -93.4126   26.5139   -6.2606 C   0  0  0  0  0  0  0  0  0  0  0  0
  -94.0034   25.3744   -6.7234 C   0  0  0  0  0  0  0  0  0  0  0  0
  -95.2931   25.0599   -6.3921 C   0  0  0  0  0  0  0  0  0  0  0  0
  -95.9725   25.9360   -5.5748 C   0  0  0  0  0  0  0  0  0  0  0  0
  -95.3824   27.1061   -5.0934 C   0  0  0  0  0  0  0  0  0  0  0  0
  -95.9411   23.8501   -6.8771 C   0  0  0  0  0  0  0  0  0  0  0  0
  -96.4453   23.8814   -8.1936 C   0  0  0  0  0  0  0  0  0  0  0  0
  -97.0588   22.7603   -8.6910 C   0  0  0  0  0  0  0  0  0  0  0  0
  -97.1942   21.6003   -7.9312 C   0  0  0  0  0  0  0  0  0  0  0  0
  -96.7045   21.5807   -6.6622 C   0  0  0  0  0  0  0  0  0  0  0  0
  -96.0713   22.7117   -6.1235 C   0  0  0  0  0  0  0  0  0  0  0  0
  -95.5604   22.6527   -4.7545 C   0  0  0  0  0  0  0  0  0  0  0  0
  -96.2069   23.4583   -3.8526 F   0  0  0  0  0  0  0  0  0  0  0  0
  -94.2263   23.0569   -4.7360 F   0  0  0  0  0  0  0  0  0  0  0  0
  -95.5881   21.3627   -4.2383 F   0  0  0  0  0  0  0  0  0  0  0  0
 11 12  1  0  0  0
 12 13  2  0  0  0
 13 14  1  0  0  0
 14  1  1  0  0  0
  1  2  1  0  0  0
  2  3  2  0  0  0
  2  4  1  0  0  0
  4  5  1  0  0  0
  5  6  1  0  0  0
  6  7  1  0  0  0
  7  8  1  0  0  0
  8  9  1  0  0  0
  7 30  1  0  0  0
 30 31  2  0  0  0
 31 32  1  0  0  0
 32 33  2  0  0  0
 33 34  1  0  0  0
 34 35  2  0  0  0
 33 36  1  0  0  0
 36 37  2  0  0  0
 37 38  1  0  0  0
 38 39  2  0  0  0
 39 40  1  0  0  0
 40 41  2  0  0  0
 41 42  1  0  0  0
 42 43  1  0  0  0
 42 44  1  0  0  0
 42 45  1  0  0  0
 14 15  2  0  0  0
 15 16  1  0  0  0
 16 17  2  0  0  0
 16 18  1  0  0  0
 18 19  2  0  0  0
 19 20  1  0  0  0
 20 21  2  0  0  0
 21 22  1  0  0  0
 22 23  2  0  0  0
 22 24  1  0  0  0
 24 25  1  0  0  0
 25 26  2  0  0  0
 25 27  1  0  0  0
 27 28  1  0  0  0
 28 29  1  0  0  0
 17 12  1  0  0  0
 23 18  1  0  0  0
 29 24  1  0  0  0
  9  4  1  0  0  0
 35 30  1  0  0  0
 41 36  1  0  0  0
  1 10  1  0  0  0
M  END
> <minimizedAffinity>
-9.85324

> <CNNscore>
0.1204099730

> <CNNaffinity>
6.1114997864

> <CNN_VS>
0.7358855009

> <CNNaffinity_variance>
0.1984066218

$$$$
[H]c1c([H])c([H])c(C(F)(F)F)c(-c2c([H])c([H])c(N3C([H])([H])C([H])([H])N(C(=O)N([H])c4c([H])c(F)c([H])c(-c5c([H])c([H])c([H])c(N6C(=O)C([H])([H])C([H])([H])C6([H])[H])c5[H])c4[H])C([H])([H])C3([H])[H])c([H])c2[H])c1[H]


 45 50  0  0  0  0  0  0  0  0999 V2000
  -94.0564   26.7892   -4.8409 N   0  0  0  0  0  0  0  0  0  0  0  0
  -93.1534   26.0205   -4.1290 C   0  0  0  0  0  0  0  0  0  0  0  0
  -93.0265   24.7765   -4.3936 O   0  0  0  0  0  0  0  0  0  0  0  0
  -92.3439   26.5558   -3.0974 N   0  0  0  0  0  0  0  0  0  0  0  0
  -91.4216   25.6734   -2.3790 C   0  0  0  0  0  0  0  0  0  0  0  0
  -90.6909   26.4254   -1.3084 C   0  0  0  0  0  0  0  0  0  0  0  0
  -90.1665   27.6919   -1.7735 N   0  0  0  0  0  0  0  0  0  0  0  0
  -90.8911   28.3984   -2.8139 C   0  0  0  0  0  0  0  0  0  0  0  0
  -92.3621   27.9281   -2.7120 C   0  0  0  0  0  0  0  0  0  0  0  0
  -94.1083   27.8196   -4.5545 H   0  0  0  0  0  0  0  0  0  0  0  0
  -97.1510   28.2084   -8.2238 F   0  0  0  0  0  0  0  0  0  0  0  0
  -96.4833   27.2198   -7.5739 C   0  0  0  0  0  0  0  0  0  0  0  0
  -95.6099   27.4527   -6.5480 C   0  0  0  0  0  0  0  0  0  0  0  0
  -94.9319   26.4147   -5.8911 C   0  0  0  0  0  0  0  0  0  0  0  0
  -95.1888   25.1506   -6.3292 C   0  0  0  0  0  0  0  0  0  0  0  0
  -96.0657   24.8546   -7.3663 C   0  0  0  0  0  0  0  0  0  0  0  0
  -96.7041   25.9048   -7.9767 C   0  0  0  0  0  0  0  0  0  0  0  0
  -96.3430   23.5093   -7.8404 C   0  0  0  0  0  0  0  0  0  0  0  0
  -97.6321   23.0191   -7.8779 C   0  0  0  0  0  0  0  0  0  0  0  0
  -97.9274   21.7465   -8.3156 C   0  0  0  0  0  0  0  0  0  0  0  0
  -96.9060   20.9270   -8.7326 C   0  0  0  0  0  0  0  0  0  0  0  0
  -95.5908   21.3752   -8.7136 C   0  0  0  0  0  0  0  0  0  0  0  0
  -95.3411   22.6545   -8.2686 C   0  0  0  0  0  0  0  0  0  0  0  0
  -94.5241   20.5217   -9.1451 N   0  0  0  0  0  0  0  0  0  0  0  0
  -93.7241   19.6528   -8.3607 C   0  0  0  0  0  0  0  0  0  0  0  0
  -93.9729   19.2684   -7.1744 O   0  0  0  0  0  0  0  0  0  0  0  0
  -92.5228   19.2282   -9.1056 C   0  0  0  0  0  0  0  0  0  0  0  0
  -92.7672   19.6844  -10.4990 C   0  0  0  0  0  0  0  0  0  0  0  0
  -94.0707   20.3995  -10.5025 C   0  0  0  0  0  0  0  0  0  0  0  0
  -88.9794   28.2176   -1.2105 C   0  0  0  0  0  0  0  0  0  0  0  0
  -87.7442   27.9396   -1.7938 C   0  0  0  0  0  0  0  0  0  0  0  0
  -86.5756   28.4311   -1.2893 C   0  0  0  0  0  0  0  0  0  0  0  0
  -86.5634   29.2276   -0.1768 C   0  0  0  0  0  0  0  0  0  0  0  0
  -87.7739   29.5143    0.4146 C   0  0  0  0  0  0  0  0  0  0  0  0
  -88.9780   29.0189   -0.0890 C   0  0  0  0  0  0  0  0  0  0  0  0
  -85.3271   29.7600    0.3773 C   0  0  0  0  0  0  0  0  0  0  0  0
  -84.8488   30.9660   -0.1752 C   0  0  0  0  0  0  0  0  0  0  0  0
  -83.6895   31.5042    0.3219 C   0  0  0  0  0  0  0  0  0  0  0  0
  -82.9793   30.8916    1.3522 C   0  0  0  0  0  0  0  0  0  0  0  0
  -83.4494   29.7284    1.8780 C   0  0  0  0  0  0  0  0  0  0  0  0
  -84.6329   29.1514    1.3914 C   0  0  0  0  0  0  0  0  0  0  0  0
  -85.1046   27.8987    1.9805 C   0  0  0  0  0  0  0  0  0  0  0  0
  -85.5547   26.9630    1.0849 F   0  0  0  0  0  0  0  0  0  0  0  0
  -86.1787   28.1577    2.8305 F   0  0  0  0  0  0  0  0  0  0  0  0
  -84.1292   27.2822    2.7551 F   0  0  0  0  0  0  0  0  0  0  0  0
 11 12  1  0  0  0
 12 13  2  0  0  0
 13 14  1  0  0  0
 14  1  1  0  0  0
  1  2  1  0  0  0
  2  3  2  0  0  0
  2  4  1  0  0  0
  4  5  1  0  0  0
  5  6  1  0  0  0
  6  7  1  0  0  0
  7  8  1  0  0  0
  8  9  1  0  0  0
  7 30  1  0  0  0
 30 31  2  0  0  0
 31 32  1  0  0  0
 32 33  2  0  0  0
 33 34  1  0  0  0
 34 35  2  0  0  0
 33 36  1  0  0  0
 36 37  2  0  0  0
 37 38  1  0  0  0
 38 39  2  0  0  0
 39 40  1  0  0  0
 40 41  2  0  0  0
 41 42  1  0  0  0
 42 43  1  0  0  0
 42 44  1  0  0  0
 42 45  1  0  0  0
 14 15  2  0  0  0
 15 16  1  0  0  0
 16 17  2  0  0  0
 16 18  1  0  0  0
 18 19  2  0  0  0
 19 20  1  0  0  0
 20 21  2  0  0  0
 21 22  1  0  0  0
 22 23  2  0  0  0
 22 24  1  0  0  0
 24 25  1  0  0  0
 25 26  2  0  0  0
 25 27  1  0  0  0
 27 28  1  0  0  0
 28 29  1  0  0  0
 17 12  1  0  0  0
 23 18  1  0  0  0
 29 24  1  0  0  0
  9  4  1  0  0  0
 35 30  1  0  0  0
 41 36  1  0  0  0
  1 10  1  0  0  0
M  END
> <minimizedAffinity>
-10.37881

> <CNNscore>
0.1189506948

> <CNNaffinity>
5.9098587036

> <CNN_VS>
0.7029817700

> <CNNaffinity_variance>
0.1899970919

$$$$
[H]c1c([H])c([H])c(C(F)(F)F)c(-c2c([H])c([H])c(N3C([H])([H])C([H])([H])N(C(=O)N([H])c4c([H])c(F)c([H])c(-c5c([H])c([H])c([H])c(N6C(=O)C([H])([H])C([H])([H])C6([H])[H])c5[H])c4[H])C([H])([H])C3([H])[H])c([H])c2[H])c1[H]


 45 50  0  0  0  0  0  0  0  0999 V2000
  -90.3588   30.7604   -2.1843 N   0  0  0  0  0  0  0  0  0  0  0  0
  -90.8063   30.0682   -3.2950 C   0  0  0  0  0  0  0  0  0  0  0  0
  -90.2513   30.2571   -4.4307 O   0  0  0  0  0  0  0  0  0  0  0  0
  -91.8736   29.1392   -3.2349 N   0  0  0  0  0  0  0  0  0  0  0  0
  -92.2996   28.4565   -4.4587 C   0  0  0  0  0  0  0  0  0  0  0  0
  -93.4609   27.5496   -4.1855 C   0  0  0  0  0  0  0  0  0  0  0  0
  -93.2669   26.7328   -3.0064 N   0  0  0  0  0  0  0  0  0  0  0  0
  -92.4736   27.2714   -1.9168 C   0  0  0  0  0  0  0  0  0  0  0  0
  -92.5679   28.8118   -2.0336 C   0  0  0  0  0  0  0  0  0  0  0  0
  -90.8798   30.5516   -1.2725 H   0  0  0  0  0  0  0  0  0  0  0  0
  -88.8211   35.2024   -3.1534 F   0  0  0  0  0  0  0  0  0  0  0  0
  -88.6182   33.9755   -2.6065 C   0  0  0  0  0  0  0  0  0  0  0  0
  -89.5479   32.9735   -2.6448 C   0  0  0  0  0  0  0  0  0  0  0  0
  -89.3154   31.7136   -2.0730 C   0  0  0  0  0  0  0  0  0  0  0  0
  -88.1060   31.5349   -1.4719 C   0  0  0  0  0  0  0  0  0  0  0  0
  -87.1240   32.5162   -1.4026 C   0  0  0  0  0  0  0  0  0  0  0  0
  -87.3999   33.7316   -1.9769 C   0  0  0  0  0  0  0  0  0  0  0  0
  -85.8329   32.3336   -0.7614 C   0  0  0  0  0  0  0  0  0  0  0  0
  -84.8714   33.3222   -0.8022 C   0  0  0  0  0  0  0  0  0  0  0  0
  -83.6358   33.1776   -0.2101 C   0  0  0  0  0  0  0  0  0  0  0  0
  -83.3406   32.0080    0.4483 C   0  0  0  0  0  0  0  0  0  0  0  0
  -84.2761   30.9827    0.5170 C   0  0  0  0  0  0  0  0  0  0  0  0
  -85.4987   31.1701   -0.0888 C   0  0  0  0  0  0  0  0  0  0  0  0
  -83.9695   29.7614    1.2003 N   0  0  0  0  0  0  0  0  0  0  0  0
  -84.8535   28.7147    1.5650 C   0  0  0  0  0  0  0  0  0  0  0  0
  -86.0333   28.5397    1.1240 O   0  0  0  0  0  0  0  0  0  0  0  0
  -84.2255   27.8161    2.5529 C   0  0  0  0  0  0  0  0  0  0  0  0
  -82.7975   28.2282    2.5774 C   0  0  0  0  0  0  0  0  0  0  0  0
  -82.6589   29.3792    1.6465 C   0  0  0  0  0  0  0  0  0  0  0  0
  -93.8507   25.4459   -2.9313 C   0  0  0  0  0  0  0  0  0  0  0  0
  -95.0665   25.2652   -2.2737 C   0  0  0  0  0  0  0  0  0  0  0  0
  -95.6691   24.0443   -2.1834 C   0  0  0  0  0  0  0  0  0  0  0  0
  -95.1014   22.9309   -2.7403 C   0  0  0  0  0  0  0  0  0  0  0  0
  -93.8997   23.0882   -3.3949 C   0  0  0  0  0  0  0  0  0  0  0  0
  -93.2703   24.3303   -3.4956 C   0  0  0  0  0  0  0  0  0  0  0  0
  -95.7278   21.6199   -2.6531 C   0  0  0  0  0  0  0  0  0  0  0  0
  -95.5541   20.9097   -1.4474 C   0  0  0  0  0  0  0  0  0  0  0  0
  -96.1324   19.6725   -1.3222 C   0  0  0  0  0  0  0  0  0  0  0  0
  -96.8817   19.1058   -2.3511 C   0  0  0  0  0  0  0  0  0  0  0  0
  -97.0430   19.7993   -3.5103 C   0  0  0  0  0  0  0  0  0  0  0  0
  -96.4639   21.0679   -3.6701 C   0  0  0  0  0  0  0  0  0  0  0  0
  -96.6575   21.7810   -4.9321 C   0  0  0  0  0  0  0  0  0  0  0  0
  -95.5062   22.1544   -5.5768 F   0  0  0  0  0  0  0  0  0  0  0  0
  -97.3612   22.9615   -4.6984 F   0  0  0  0  0  0  0  0  0  0  0  0
  -97.4107   21.0468   -5.8405 F   0  0  0  0  0  0  0  0  0  0  0  0
 11 12  1  0  0  0
 12 13  2  0  0  0
 13 14  1  0  0  0
 14  1  1  0  0  0
  1  2  1  0  0  0
  2  3  2  0  0  0
  2  4  1  0  0  0
  4  5  1  0  0  0
  5  6  1  0  0  0
  6  7  1  0  0  0
  7  8  1  0  0  0
  8  9  1  0  0  0
  7 30  1  0  0  0
 30 31  2  0  0  0
 31 32  1  0  0  0
 32 33  2  0  0  0
 33 34  1  0  0  0
 34 35  2  0  0  0
 33 36  1  0  0  0
 36 37  2  0  0  0
 37 38  1  0  0  0
 38 39  2  0  0  0
 39 40  1  0  0  0
 40 41  2  0  0  0
 41 42  1  0  0  0
 42 43  1  0  0  0
 42 44  1  0  0  0
 42 45  1  0  0  0
 14 15  2  0  0  0
 15 16  1  0  0  0
 16 17  2  0  0  0
 16 18  1  0  0  0
 18 19  2  0  0  0
 19 20  1  0  0  0
 20 21  2  0  0  0
 21 22  1  0  0  0
 22 23  2  0  0  0
 22 24  1  0  0  0
 24 25  1  0  0  0
 25 26  2  0  0  0
 25 27  1  0  0  0
 27 28  1  0  0  0
 28 29  1  0  0  0
 17 12  1  0  0  0
 23 18  1  0  0  0
 29 24  1  0  0  0
  9  4  1  0  0  0
 35 30  1  0  0  0
 41 36  1  0  0  0
  1 10  1  0  0  0
M  END
> <minimizedAffinity>
-9.17108

> <CNNscore>
0.1186187118

> <CNNaffinity>
6.3214316368

> <CNN_VS>
0.7498400807

> <CNNaffinity_variance>
0.3337790668

$$$$
[H]c1c([H])c([H])c(C(F)(F)F)c(-c2c([H])c([H])c(N3C([H])([H])C([H])([H])N(C(=O)N([H])c4c([H])c(F)c([H])c(-c5c([H])c([H])c([H])c(N6C(=O)C([H])([H])C([H])([H])C6([H])[H])c5[H])c4[H])C([H])([H])C3([H])[H])c([H])c2[H])c1[H]


 45 50  0  0  0  0  0  0  0  0999 V2000
  -88.1448   34.0427   -4.7509 N   0  0  0  0  0  0  0  0  0  0  0  0
  -87.9594   34.0043   -3.3807 C   0  0  0  0  0  0  0  0  0  0  0  0
  -87.8874   35.0935   -2.7159 O   0  0  0  0  0  0  0  0  0  0  0  0
  -87.8424   32.7899   -2.6614 N   0  0  0  0  0  0  0  0  0  0  0  0
  -87.6325   32.8322   -1.2125 C   0  0  0  0  0  0  0  0  0  0  0  0
  -87.4984   31.4483   -0.6535 C   0  0  0  0  0  0  0  0  0  0  0  0
  -88.5156   30.5449   -1.1477 N   0  0  0  0  0  0  0  0  0  0  0  0
  -89.0361   30.7575   -2.4859 C   0  0  0  0  0  0  0  0  0  0  0  0
  -87.9275   31.5025   -3.2677 C   0  0  0  0  0  0  0  0  0  0  0  0
  -88.1875   33.0889   -5.2353 H   0  0  0  0  0  0  0  0  0  0  0  0
  -90.9625   36.5228   -7.7416 F   0  0  0  0  0  0  0  0  0  0  0  0
  -89.7714   36.3508   -7.1112 C   0  0  0  0  0  0  0  0  0  0  0  0
  -89.5188   35.3166   -6.2532 C   0  0  0  0  0  0  0  0  0  0  0  0
  -88.2798   35.1593   -5.6138 C   0  0  0  0  0  0  0  0  0  0  0  0
  -87.3310   36.0962   -5.8924 C   0  0  0  0  0  0  0  0  0  0  0  0
  -87.5314   37.1675   -6.7552 C   0  0  0  0  0  0  0  0  0  0  0  0
  -88.7604   37.2773   -7.3556 C   0  0  0  0  0  0  0  0  0  0  0  0
  -86.5250   38.1718   -7.0554 C   0  0  0  0  0  0  0  0  0  0  0  0
  -86.6455   38.9934   -8.1571 C   0  0  0  0  0  0  0  0  0  0  0  0
  -85.7060   39.9505   -8.4727 C   0  0  0  0  0  0  0  0  0  0  0  0
  -84.6037   40.0997   -7.6656 C   0  0  0  0  0  0  0  0  0  0  0  0
  -84.4374   39.2958   -6.5444 C   0  0  0  0  0  0  0  0  0  0  0  0
  -85.4013   38.3521   -6.2663 C   0  0  0  0  0  0  0  0  0  0  0  0
  -83.2877   39.4476   -5.7032 N   0  0  0  0  0  0  0  0  0  0  0  0
  -83.0815   40.3858   -4.6605 C   0  0  0  0  0  0  0  0  0  0  0  0
  -83.9760   41.0946   -4.0997 O   0  0  0  0  0  0  0  0  0  0  0  0
  -81.6558   40.4493   -4.2845 C   0  0  0  0  0  0  0  0  0  0  0  0
  -81.0333   39.2958   -4.9853 C   0  0  0  0  0  0  0  0  0  0  0  0
  -82.1037   38.6381   -5.7804 C   0  0  0  0  0  0  0  0  0  0  0  0
  -88.9739   29.4805   -0.3356 C   0  0  0  0  0  0  0  0  0  0  0  0
  -88.0696   28.5547    0.1825 C   0  0  0  0  0  0  0  0  0  0  0  0
  -88.4661   27.5177    0.9757 C   0  0  0  0  0  0  0  0  0  0  0  0
  -89.7827   27.3380    1.3019 C   0  0  0  0  0  0  0  0  0  0  0  0
  -90.6924   28.2423    0.8001 C   0  0  0  0  0  0  0  0  0  0  0  0
  -90.3029   29.3083   -0.0130 C   0  0  0  0  0  0  0  0  0  0  0  0
  -90.2253   26.2372    2.1451 C   0  0  0  0  0  0  0  0  0  0  0  0
  -90.4808   25.0071    1.5048 C   0  0  0  0  0  0  0  0  0  0  0  0
  -90.8950   23.9427    2.2639 C   0  0  0  0  0  0  0  0  0  0  0  0
  -91.0675   24.0481    3.6425 C   0  0  0  0  0  0  0  0  0  0  0  0
  -90.8183   25.2393    4.2503 C   0  0  0  0  0  0  0  0  0  0  0  0
  -90.3933   26.3481    3.5017 C   0  0  0  0  0  0  0  0  0  0  0  0
  -90.1384   27.6125    4.1909 C   0  0  0  0  0  0  0  0  0  0  0  0
  -88.9005   28.1602    3.9714 F   0  0  0  0  0  0  0  0  0  0  0  0
  -90.2291   27.4200    5.5686 F   0  0  0  0  0  0  0  0  0  0  0  0
  -91.0756   28.5860    3.8667 F   0  0  0  0  0  0  0  0  0  0  0  0
 11 12  1  0  0  0
 12 13  2  0  0  0
 13 14  1  0  0  0
 14  1  1  0  0  0
  1  2  1  0  0  0
  2  3  2  0  0  0
  2  4  1  0  0  0
  4  5  1  0  0  0
  5  6  1  0  0  0
  6  7  1  0  0  0
  7  8  1  0  0  0
  8  9  1  0  0  0
  7 30  1  0  0  0
 30 31  2  0  0  0
 31 32  1  0  0  0
 32 33  2  0  0  0
 33 34  1  0  0  0
 34 35  2  0  0  0
 33 36  1  0  0  0
 36 37  2  0  0  0
 37 38  1  0  0  0
 38 39  2  0  0  0
 39 40  1  0  0  0
 40 41  2  0  0  0
 41 42  1  0  0  0
 42 43  1  0  0  0
 42 44  1  0  0  0
 42 45  1  0  0  0
 14 15  2  0  0  0
 15 16  1  0  0  0
 16 17  2  0  0  0
 16 18  1  0  0  0
 18 19  2  0  0  0
 19 20  1  0  0  0
 20 21  2  0  0  0
 21 22  1  0  0  0
 22 23  2  0  0  0
 22 24  1  0  0  0
 24 25  1  0  0  0
 25 26  2  0  0  0
 25 27  1  0  0  0
 27 28  1  0  0  0
 28 29  1  0  0  0
 17 12  1  0  0  0
 23 18  1  0  0  0
 29 24  1  0  0  0
  9  4  1  0  0  0
 35 30  1  0  0  0
 41 36  1  0  0  0
  1 10  1  0  0  0
M  END
> <minimizedAffinity>
-10.25451

> <CNNscore>
0.1149020866

> <CNNaffinity>
6.0905127525

> <CNN_VS>
0.6998126507

> <CNNaffinity_variance>
0.2083518803

$$$$
