[H]c1c([H])c([H])c(-c2c([H])c([H])c(C(=O)N([H])[C@]([H])(C(=O)N([H])[C@]([H])(C(=O)N([H])[C@]([H])(C(=O)N([H])[H])C([H])([H])c3c([H])c([H])c([H])c([H])c3[H])C([H])([H])[H])C([H])([H])C([H])(C([H])([H])[H])C([H])([H])[H])c([H])c2[H])c([H])c1[H]


 44 46  0  0  0  0  0  0  0  0999 V2000
  -86.8507   28.2272    1.9214 C   0  0  0  0  0  0  0  0  0  0  0  0
  -86.3670   28.1732    0.7445 O   0  0  0  0  0  0  0  0  0  0  0  0
  -86.0857   28.8541    2.9102 N   0  0  0  0  0  0  0  0  0  0  0  0
  -86.5089   28.9138    3.8929 H   0  0  0  0  0  0  0  0  0  0  0  0
  -84.7892   29.4293    2.7408 C   0  0  0  0  0  0  0  0  0  0  0  0
  -83.7666   28.4164    2.2222 C   0  0  0  0  0  0  0  0  0  0  0  0
  -84.7613   30.6485    1.9043 C   0  0  0  0  0  0  0  0  0  0  0  0
  -84.7848   31.7748    2.5009 O   0  0  0  0  0  0  0  0  0  0  0  0
  -84.7141   30.6248    0.5070 N   0  0  0  0  0  0  0  0  0  0  0  0
  -84.6828   29.7212   -0.0176 H   0  0  0  0  0  0  0  0  0  0  0  0
  -84.7098   31.8811   -0.2514 C   0  0  0  0  0  0  0  0  0  0  0  0
  -83.3679   32.5044   -0.1098 C   0  0  0  0  0  0  0  0  0  0  0  0
  -82.2576   31.8748    0.4767 N   0  0  0  0  0  0  0  0  0  0  0  0
  -83.1801   33.6975   -0.5396 O   0  0  0  0  0  0  0  0  0  0  0  0
  -82.4077   31.2934    1.3544 H   0  0  0  0  0  0  0  0  0  0  0  0
  -81.2799   31.9144    0.1291 H   0  0  0  0  0  0  0  0  0  0  0  0
  -85.8593   32.7206    0.1469 C   0  0  0  0  0  0  0  0  0  0  0  0
  -87.0427   32.4954   -0.6929 C   0  0  0  0  0  0  0  0  0  0  0  0
  -87.9236   31.4444   -0.4449 C   0  0  0  0  0  0  0  0  0  0  0  0
  -89.0471   31.2617   -1.2039 C   0  0  0  0  0  0  0  0  0  0  0  0
  -89.3726   32.0858   -2.2413 C   0  0  0  0  0  0  0  0  0  0  0  0
  -88.5147   33.1474   -2.5185 C   0  0  0  0  0  0  0  0  0  0  0  0
  -87.3906   33.3155   -1.7461 C   0  0  0  0  0  0  0  0  0  0  0  0
  -88.1927   27.6158    2.1315 C   0  0  0  0  0  0  0  0  0  0  0  0
  -88.7512   27.4305    0.7760 N   0  0  0  0  0  0  0  0  0  0  0  0
  -89.9844   28.0611    0.5071 C   0  0  0  0  0  0  0  0  0  0  0  0
  -90.5816   28.7530    1.4101 O   0  0  0  0  0  0  0  0  0  0  0  0
  -88.2645   26.8692    0.0650 H   0  0  0  0  0  0  0  0  0  0  0  0
  -90.6924   28.0056   -0.7646 C   0  0  0  0  0  0  0  0  0  0  0  0
  -90.2627   27.1421   -1.7653 C   0  0  0  0  0  0  0  0  0  0  0  0
  -90.9256   27.0844   -2.9799 C   0  0  0  0  0  0  0  0  0  0  0  0
  -92.0207   27.8681   -3.2561 C   0  0  0  0  0  0  0  0  0  0  0  0
  -92.4345   28.7188   -2.2524 C   0  0  0  0  0  0  0  0  0  0  0  0
  -91.7897   28.7885   -1.0421 C   0  0  0  0  0  0  0  0  0  0  0  0
  -92.7108   27.8064   -4.5452 C   0  0  0  0  0  0  0  0  0  0  0  0
  -92.8825   26.6414   -5.2529 C   0  0  0  0  0  0  0  0  0  0  0  0
  -93.5572   26.6298   -6.4687 C   0  0  0  0  0  0  0  0  0  0  0  0
  -94.0765   27.8099   -6.9961 C   0  0  0  0  0  0  0  0  0  0  0  0
  -93.9068   28.9656   -6.2966 C   0  0  0  0  0  0  0  0  0  0  0  0
  -93.2401   28.9587   -5.1039 C   0  0  0  0  0  0  0  0  0  0  0  0
  -88.0914   26.2128    2.6751 C   0  0  0  0  0  0  0  0  0  0  0  0
  -88.9115   24.6582    4.4894 C   0  0  0  0  0  0  0  0  0  0  0  0
  -89.2421   25.7128    3.4535 C   0  0  0  0  0  0  0  0  0  0  0  0
  -89.8061   26.9053    4.2400 C   0  0  0  0  0  0  0  0  0  0  0  0
 42 43  1  0  0  0
 43 44  1  0  0  0
 43 41  1  0  0  0
 41 24  1  0  0  0
 24 25  1  0  0  0
 25 26  1  0  0  0
 26 27  2  0  0  0
 26 29  1  0  0  0
 29 30  2  0  0  0
 30 31  1  0  0  0
 31 32  2  0  0  0
 32 33  1  0  0  0
 33 34  2  0  0  0
 32 35  1  0  0  0
 35 36  2  0  0  0
 36 37  1  0  0  0
 37 38  2  0  0  0
 38 39  1  0  0  0
 39 40  2  0  0  0
 24  1  1  0  0  0
  1  2  2  0  0  0
  1  3  1  0  0  0
  3  5  1  0  0  0
  5  6  1  0  0  0
  5  7  1  0  0  0
  7  8  2  0  0  0
  7  9  1  0  0  0
  9 11  1  0  0  0
 11 17  1  0  0  0
 17 18  1  0  0  0
 18 19  2  0  0  0
 19 20  1  0  0  0
 20 21  2  0  0  0
 21 22  1  0  0  0
 22 23  2  0  0  0
 11 12  1  0  0  0
 12 13  1  0  0  0
 12 14  2  0  0  0
 34 29  1  0  0  0
 40 35  1  0  0  0
 23 18  1  0  0  0
 25 28  1  0  0  0
  3  4  1  0  0  0
  9 10  1  0  0  0
 13 15  1  0  0  0
 13 16  1  0  0  0
M  END
> <minimizedAffinity>
-8.52861

> <CNNscore>
0.2569909990

> <CNNaffinity>
6.7768249512

> <CNN_VS>
1.7415829897

> <CNNaffinity_variance>
0.2056322992

$$$$
[H]c1c([H])c([H])c(-c2c([H])c([H])c(C(=O)N([H])[C@]([H])(C(=O)N([H])[C@]([H])(C(=O)N([H])[C@]([H])(C(=O)N([H])[H])C([H])([H])c3c([H])c([H])c([H])c([H])c3[H])C([H])([H])[H])C([H])([H])C([H])(C([H])([H])[H])C([H])([H])[H])c([H])c2[H])c([H])c1[H]


 44 46  0  0  0  0  0  0  0  0999 V2000
  -92.3617   27.4076   -2.7310 C   0  0  0  0  0  0  0  0  0  0  0  0
  -91.7545   26.5687   -3.4723 O   0  0  0  0  0  0  0  0  0  0  0  0
  -93.1471   26.9047   -1.6888 N   0  0  0  0  0  0  0  0  0  0  0  0
  -93.6378   27.6177   -1.0569 H   0  0  0  0  0  0  0  0  0  0  0  0
  -93.3607   25.5271   -1.3776 C   0  0  0  0  0  0  0  0  0  0  0  0
  -93.9456   24.7481   -2.5574 C   0  0  0  0  0  0  0  0  0  0  0  0
  -92.1722   24.8243   -0.8480 C   0  0  0  0  0  0  0  0  0  0  0  0
  -91.6832   23.8792   -1.5500 O   0  0  0  0  0  0  0  0  0  0  0  0
  -91.5685   25.1412    0.3728 N   0  0  0  0  0  0  0  0  0  0  0  0
  -91.9338   25.9165    0.9713 H   0  0  0  0  0  0  0  0  0  0  0  0
  -90.4026   24.3810    0.8375 C   0  0  0  0  0  0  0  0  0  0  0  0
  -90.8593   23.4165    1.8721 C   0  0  0  0  0  0  0  0  0  0  0  0
  -90.0864   22.3499    2.3602 N   0  0  0  0  0  0  0  0  0  0  0  0
  -92.0343   23.5380    2.3702 O   0  0  0  0  0  0  0  0  0  0  0  0
  -89.5008   21.7896    1.6715 H   0  0  0  0  0  0  0  0  0  0  0  0
  -90.0211   22.0474    3.3514 H   0  0  0  0  0  0  0  0  0  0  0  0
  -89.3218   25.3036    1.2440 C   0  0  0  0  0  0  0  0  0  0  0  0
  -89.6712   26.0977    2.4288 C   0  0  0  0  0  0  0  0  0  0  0  0
  -90.2795   27.3465    2.3162 C   0  0  0  0  0  0  0  0  0  0  0  0
  -90.6409   28.0658    3.4224 C   0  0  0  0  0  0  0  0  0  0  0  0
  -90.4301   27.6129    4.6920 C   0  0  0  0  0  0  0  0  0  0  0  0
  -89.8240   26.3681    4.8430 C   0  0  0  0  0  0  0  0  0  0  0  0
  -89.4672   25.6596    3.7208 C   0  0  0  0  0  0  0  0  0  0  0  0
  -92.1738   28.8513   -3.0463 C   0  0  0  0  0  0  0  0  0  0  0  0
  -90.7461   29.1240   -2.7799 N   0  0  0  0  0  0  0  0  0  0  0  0
  -90.3855   29.3564   -1.4357 C   0  0  0  0  0  0  0  0  0  0  0  0
  -91.2690   29.3349   -0.5032 O   0  0  0  0  0  0  0  0  0  0  0  0
  -90.0509   29.1435   -3.5374 H   0  0  0  0  0  0  0  0  0  0  0  0
  -89.0342   29.6346   -0.9684 C   0  0  0  0  0  0  0  0  0  0  0  0
  -88.6188   30.9468   -0.7758 C   0  0  0  0  0  0  0  0  0  0  0  0
  -87.3349   31.2230   -0.3362 C   0  0  0  0  0  0  0  0  0  0  0  0
  -86.4190   30.2313   -0.0768 C   0  0  0  0  0  0  0  0  0  0  0  0
  -86.8473   28.9349   -0.2721 C   0  0  0  0  0  0  0  0  0  0  0  0
  -88.1167   28.6428   -0.7068 C   0  0  0  0  0  0  0  0  0  0  0  0
  -85.0616   30.5322    0.3804 C   0  0  0  0  0  0  0  0  0  0  0  0
  -84.3276   29.6828    1.1723 C   0  0  0  0  0  0  0  0  0  0  0  0
  -83.0354   30.0062    1.5713 C   0  0  0  0  0  0  0  0  0  0  0  0
  -82.4560   31.2082    1.1715 C   0  0  0  0  0  0  0  0  0  0  0  0
  -83.1821   32.0517    0.3872 C   0  0  0  0  0  0  0  0  0  0  0  0
  -84.4509   31.7183    0.0054 C   0  0  0  0  0  0  0  0  0  0  0  0
  -92.3251   29.1281   -4.5210 C   0  0  0  0  0  0  0  0  0  0  0  0
  -94.2723   30.2231   -5.7001 C   0  0  0  0  0  0  0  0  0  0  0  0
  -93.6756   28.9687   -5.0959 C   0  0  0  0  0  0  0  0  0  0  0  0
  -93.5569   27.9660   -6.2532 C   0  0  0  0  0  0  0  0  0  0  0  0
 42 43  1  0  0  0
 43 44  1  0  0  0
 43 41  1  0  0  0
 41 24  1  0  0  0
 24 25  1  0  0  0
 25 26  1  0  0  0
 26 27  2  0  0  0
 26 29  1  0  0  0
 29 30  2  0  0  0
 30 31  1  0  0  0
 31 32  2  0  0  0
 32 33  1  0  0  0
 33 34  2  0  0  0
 32 35  1  0  0  0
 35 36  2  0  0  0
 36 37  1  0  0  0
 37 38  2  0  0  0
 38 39  1  0  0  0
 39 40  2  0  0  0
 24  1  1  0  0  0
  1  2  2  0  0  0
  1  3  1  0  0  0
  3  5  1  0  0  0
  5  6  1  0  0  0
  5  7  1  0  0  0
  7  8  2  0  0  0
  7  9  1  0  0  0
  9 11  1  0  0  0
 11 17  1  0  0  0
 17 18  1  0  0  0
 18 19  2  0  0  0
 19 20  1  0  0  0
 20 21  2  0  0  0
 21 22  1  0  0  0
 22 23  2  0  0  0
 11 12  1  0  0  0
 12 13  1  0  0  0
 12 14  2  0  0  0
 34 29  1  0  0  0
 40 35  1  0  0  0
 23 18  1  0  0  0
 25 28  1  0  0  0
  3  4  1  0  0  0
  9 10  1  0  0  0
 13 15  1  0  0  0
 13 16  1  0  0  0
M  END
> <minimizedAffinity>
-8.67431

> <CNNscore>
0.2455091625

> <CNNaffinity>
6.4529352188

> <CNN_VS>
1.5842547417

> <CNNaffinity_variance>
0.2999976277

$$$$
[H]c1c([H])c([H])c(-c2c([H])c([H])c(C(=O)N([H])[C@]([H])(C(=O)N([H])[C@]([H])(C(=O)N([H])[C@]([H])(C(=O)N([H])[H])C([H])([H])c3c([H])c([H])c([H])c([H])c3[H])C([H])([H])[H])C([H])([H])C([H])(C([H])([H])[H])C([H])([H])[H])c([H])c2[H])c([H])c1[H]


 44 46  0  0  0  0  0  0  0  0999 V2000
  -89.3873   30.4563   -3.2419 C   0  0  0  0  0  0  0  0  0  0  0  0
  -88.3825   30.1351   -3.9554 O   0  0  0  0  0  0  0  0  0  0  0  0
  -89.2781   31.5986   -2.4424 N   0  0  0  0  0  0  0  0  0  0  0  0
  -90.1352   31.8738   -1.8610 H   0  0  0  0  0  0  0  0  0  0  0  0
  -88.1321   32.4431   -2.3235 C   0  0  0  0  0  0  0  0  0  0  0  0
  -88.5099   33.9059   -2.0821 C   0  0  0  0  0  0  0  0  0  0  0  0
  -87.1455   32.0031   -1.3137 C   0  0  0  0  0  0  0  0  0  0  0  0
  -87.5608   31.2547   -0.3689 O   0  0  0  0  0  0  0  0  0  0  0  0
  -85.7956   32.3669   -1.3438 N   0  0  0  0  0  0  0  0  0  0  0  0
  -85.4153   32.9701   -2.1081 H   0  0  0  0  0  0  0  0  0  0  0  0
  -84.8843   31.9042   -0.2908 C   0  0  0  0  0  0  0  0  0  0  0  0
  -83.8332   32.9376   -0.0992 C   0  0  0  0  0  0  0  0  0  0  0  0
  -82.7713   32.8307    0.8141 N   0  0  0  0  0  0  0  0  0  0  0  0
  -83.8726   34.0117   -0.7978 O   0  0  0  0  0  0  0  0  0  0  0  0
  -82.9686   32.4272    1.7782 H   0  0  0  0  0  0  0  0  0  0  0  0
  -81.7858   33.1067    0.6387 H   0  0  0  0  0  0  0  0  0  0  0  0
  -84.4036   30.5403   -0.5962 C   0  0  0  0  0  0  0  0  0  0  0  0
  -84.3168   29.6901    0.5980 C   0  0  0  0  0  0  0  0  0  0  0  0
  -83.1393   29.5879    1.3364 C   0  0  0  0  0  0  0  0  0  0  0  0
  -83.0734   28.8271    2.4715 C   0  0  0  0  0  0  0  0  0  0  0  0
  -84.1430   28.1265    2.9472 C   0  0  0  0  0  0  0  0  0  0  0  0
  -85.3371   28.2050    2.2345 C   0  0  0  0  0  0  0  0  0  0  0  0
  -85.3850   28.9736    1.0963 C   0  0  0  0  0  0  0  0  0  0  0  0
  -90.5891   29.5805   -3.3300 C   0  0  0  0  0  0  0  0  0  0  0  0
  -90.4379   28.6027   -2.2324 N   0  0  0  0  0  0  0  0  0  0  0  0
  -90.8017   27.2695   -2.5171 C   0  0  0  0  0  0  0  0  0  0  0  0
  -91.2468   26.9410   -3.6766 O   0  0  0  0  0  0  0  0  0  0  0  0
  -90.0855   28.8814   -1.3075 H   0  0  0  0  0  0  0  0  0  0  0  0
  -90.7195   26.1610   -1.5758 C   0  0  0  0  0  0  0  0  0  0  0  0
  -89.8714   25.0900   -1.8313 C   0  0  0  0  0  0  0  0  0  0  0  0
  -89.7886   24.0286   -0.9455 C   0  0  0  0  0  0  0  0  0  0  0  0
  -90.5317   23.9776    0.2098 C   0  0  0  0  0  0  0  0  0  0  0  0
  -91.3676   25.0483    0.4489 C   0  0  0  0  0  0  0  0  0  0  0  0
  -91.4617   26.1091   -0.4180 C   0  0  0  0  0  0  0  0  0  0  0  0
  -90.4439   22.8485    1.1368 C   0  0  0  0  0  0  0  0  0  0  0  0
  -90.2743   21.5483    0.7267 C   0  0  0  0  0  0  0  0  0  0  0  0
  -90.1832   20.5090    1.6460 C   0  0  0  0  0  0  0  0  0  0  0  0
  -90.2624   20.7694    3.0121 C   0  0  0  0  0  0  0  0  0  0  0  0
  -90.4311   22.0572    3.4205 C   0  0  0  0  0  0  0  0  0  0  0  0
  -90.5198   23.0660    2.5033 C   0  0  0  0  0  0  0  0  0  0  0  0
  -91.8528   30.3248   -2.9788 C   0  0  0  0  0  0  0  0  0  0  0  0
  -92.1036   32.1563   -4.7004 C   0  0  0  0  0  0  0  0  0  0  0  0
  -92.6399   30.8724   -4.1015 C   0  0  0  0  0  0  0  0  0  0  0  0
  -92.5930   29.8348   -5.2329 C   0  0  0  0  0  0  0  0  0  0  0  0
 42 43  1  0  0  0
 43 44  1  0  0  0
 43 41  1  0  0  0
 41 24  1  0  0  0
 24 25  1  0  0  0
 25 26  1  0  0  0
 26 27  2  0  0  0
 26 29  1  0  0  0
 29 30  2  0  0  0
 30 31  1  0  0  0
 31 32  2  0  0  0
 32 33  1  0  0  0
 33 34  2  0  0  0
 32 35  1  0  0  0
 35 36  2  0  0  0
 36 37  1  0  0  0
 37 38  2  0  0  0
 38 39  1  0  0  0
 39 40  2  0  0  0
 24  1  1  0  0  0
  1  2  2  0  0  0
  1  3  1  0  0  0
  3  5  1  0  0  0
  5  6  1  0  0  0
  5  7  1  0  0  0
  7  8  2  0  0  0
  7  9  1  0  0  0
  9 11  1  0  0  0
 11 17  1  0  0  0
 17 18  1  0  0  0
 18 19  2  0  0  0
 19 20  1  0  0  0
 20 21  2  0  0  0
 21 22  1  0  0  0
 22 23  2  0  0  0
 11 12  1  0  0  0
 12 13  1  0  0  0
 12 14  2  0  0  0
 34 29  1  0  0  0
 40 35  1  0  0  0
 23 18  1  0  0  0
 25 28  1  0  0  0
  3  4  1  0  0  0
  9 10  1  0  0  0
 13 15  1  0  0  0
 13 16  1  0  0  0
M  END
> <minimizedAffinity>
-7.59239

> <CNNscore>
0.1827069521

> <CNNaffinity>
6.4438767433

> <CNN_VS>
1.1773411036

> <CNNaffinity_variance>
0.3695616126

$$$$
[H]c1c([H])c([H])c(-c2c([H])c([H])c(C(=O)N([H])[C@]([H])(C(=O)N([H])[C@]([H])(C(=O)N([H])[C@]([H])(C(=O)N([H])[H])C([H])([H])c3c([H])c([H])c([H])c([H])c3[H])C([H])([H])[H])C([H])([H])C([H])(C([H])([H])[H])C([H])([H])[H])c([H])c2[H])c([H])c1[H]


 44 46  0  0  0  0  0  0  0  0999 V2000
  -90.4744   27.8411   -2.1857 C   0  0  0  0  0  0  0  0  0  0  0  0
  -89.4242   27.6170   -2.8704 O   0  0  0  0  0  0  0  0  0  0  0  0
  -90.4917   27.3991   -0.8589 N   0  0  0  0  0  0  0  0  0  0  0  0
  -91.3708   27.6101   -0.2834 H   0  0  0  0  0  0  0  0  0  0  0  0
  -89.4476   26.6921   -0.1877 C   0  0  0  0  0  0  0  0  0  0  0  0
  -88.8158   25.6130   -1.0692 C   0  0  0  0  0  0  0  0  0  0  0  0
  -88.3935   27.5537    0.3897 C   0  0  0  0  0  0  0  0  0  0  0  0
  -88.5968   28.0378    1.5514 O   0  0  0  0  0  0  0  0  0  0  0  0
  -87.2002   27.8612   -0.2711 N   0  0  0  0  0  0  0  0  0  0  0  0
  -86.9925   27.4747   -1.2199 H   0  0  0  0  0  0  0  0  0  0  0  0
  -86.2125   28.7419    0.3633 C   0  0  0  0  0  0  0  0  0  0  0  0
  -85.8756   28.1774    1.6964 C   0  0  0  0  0  0  0  0  0  0  0  0
  -85.5838   26.8243    1.9353 N   0  0  0  0  0  0  0  0  0  0  0  0
  -85.8437   28.9518    2.7175 O   0  0  0  0  0  0  0  0  0  0  0  0
  -86.1635   26.0838    1.4385 H   0  0  0  0  0  0  0  0  0  0  0  0
  -84.8366   26.4622    2.5589 H   0  0  0  0  0  0  0  0  0  0  0  0
  -86.6955   30.1388    0.3546 C   0  0  0  0  0  0  0  0  0  0  0  0
  -85.6330   31.1031    0.0421 C   0  0  0  0  0  0  0  0  0  0  0  0
  -85.9246   32.3841   -0.4228 C   0  0  0  0  0  0  0  0  0  0  0  0
  -84.9342   33.2939   -0.6741 C   0  0  0  0  0  0  0  0  0  0  0  0
  -83.6129   33.0084   -0.4896 C   0  0  0  0  0  0  0  0  0  0  0  0
  -83.2839   31.7370   -0.0258 C   0  0  0  0  0  0  0  0  0  0  0  0
  -84.2917   30.8358    0.2210 C   0  0  0  0  0  0  0  0  0  0  0  0
  -91.5880   28.5582   -2.8674 C   0  0  0  0  0  0  0  0  0  0  0  0
  -90.9816   29.7931   -3.4068 N   0  0  0  0  0  0  0  0  0  0  0  0
  -90.6495   30.7965   -2.4721 C   0  0  0  0  0  0  0  0  0  0  0  0
  -90.8764   30.6306   -1.2184 O   0  0  0  0  0  0  0  0  0  0  0  0
  -90.8109   29.9141   -4.4136 H   0  0  0  0  0  0  0  0  0  0  0  0
  -90.0394   32.0775   -2.8015 C   0  0  0  0  0  0  0  0  0  0  0  0
  -90.3629   32.7191   -3.9911 C   0  0  0  0  0  0  0  0  0  0  0  0
  -89.7854   33.9351   -4.3166 C   0  0  0  0  0  0  0  0  0  0  0  0
  -88.8742   34.5574   -3.4967 C   0  0  0  0  0  0  0  0  0  0  0  0
  -88.5647   33.9080   -2.3199 C   0  0  0  0  0  0  0  0  0  0  0  0
  -89.1282   32.7025   -1.9810 C   0  0  0  0  0  0  0  0  0  0  0  0
  -88.2629   35.8388   -3.8518 C   0  0  0  0  0  0  0  0  0  0  0  0
  -88.7098   37.0457   -3.3711 C   0  0  0  0  0  0  0  0  0  0  0  0
  -88.0881   38.2376   -3.7267 C   0  0  0  0  0  0  0  0  0  0  0  0
  -86.9905   38.2297   -4.5843 C   0  0  0  0  0  0  0  0  0  0  0  0
  -86.5465   37.0347   -5.0623 C   0  0  0  0  0  0  0  0  0  0  0  0
  -87.1702   35.8732   -4.7032 C   0  0  0  0  0  0  0  0  0  0  0  0
  -92.0610   27.8220   -4.0956 C   0  0  0  0  0  0  0  0  0  0  0  0
  -94.3625   28.5458   -3.3472 C   0  0  0  0  0  0  0  0  0  0  0  0
  -93.5206   27.7031   -4.2830 C   0  0  0  0  0  0  0  0  0  0  0  0
  -93.8360   28.2118   -5.6974 C   0  0  0  0  0  0  0  0  0  0  0  0
 42 43  1  0  0  0
 43 44  1  0  0  0
 43 41  1  0  0  0
 41 24  1  0  0  0
 24 25  1  0  0  0
 25 26  1  0  0  0
 26 27  2  0  0  0
 26 29  1  0  0  0
 29 30  2  0  0  0
 30 31  1  0  0  0
 31 32  2  0  0  0
 32 33  1  0  0  0
 33 34  2  0  0  0
 32 35  1  0  0  0
 35 36  2  0  0  0
 36 37  1  0  0  0
 37 38  2  0  0  0
 38 39  1  0  0  0
 39 40  2  0  0  0
 24  1  1  0  0  0
  1  2  2  0  0  0
  1  3  1  0  0  0
  3  5  1  0  0  0
  5  6  1  0  0  0
  5  7  1  0  0  0
  7  8  2  0  0  0
  7  9  1  0  0  0
  9 11  1  0  0  0
 11 17  1  0  0  0
 17 18  1  0  0  0
 18 19  2  0  0  0
 19 20  1  0  0  0
 20 21  2  0  0  0
 21 22  1  0  0  0
 22 23  2  0  0  0
 11 12  1  0  0  0
 12 13  1  0  0  0
 12 14  2  0  0  0
 34 29  1  0  0  0
 40 35  1  0  0  0
 23 18  1  0  0  0
 25 28  1  0  0  0
  3  4  1  0  0  0
  9 10  1  0  0  0
 13 15  1  0  0  0
 13 16  1  0  0  0
M  END
> <minimizedAffinity>
-8.03971

> <CNNscore>
0.1656394452

> <CNNaffinity>
6.4816474915

> <CNN_VS>
1.0736165047

> <CNNaffinity_variance>
0.2358814180

$$$$
[H]c1c([H])c([H])c(-c2c([H])c([H])c(C(=O)N([H])[C@]([H])(C(=O)N([H])[C@]([H])(C(=O)N([H])[C@]([H])(C(=O)N([H])[H])C([H])([H])c3c([H])c([H])c([H])c([H])c3[H])C([H])([H])[H])C([H])([H])C([H])(C([H])([H])[H])C([H])([H])[H])c([H])c2[H])c([H])c1[H]


 44 46  0  0  0  0  0  0  0  0999 V2000
  -91.3401   31.7134   -4.0470 C   0  0  0  0  0  0  0  0  0  0  0  0
  -90.9473   31.7281   -5.2583 O   0  0  0  0  0  0  0  0  0  0  0  0
  -90.5074   32.2970   -3.0867 N   0  0  0  0  0  0  0  0  0  0  0  0
  -90.8548   32.2991   -2.0729 H   0  0  0  0  0  0  0  0  0  0  0  0
  -89.2328   32.8970   -3.3227 C   0  0  0  0  0  0  0  0  0  0  0  0
  -89.2077   34.3786   -2.9415 C   0  0  0  0  0  0  0  0  0  0  0  0
  -88.0952   32.1939   -2.6916 C   0  0  0  0  0  0  0  0  0  0  0  0
  -86.9196   32.5895   -2.9857 O   0  0  0  0  0  0  0  0  0  0  0  0
  -88.2458   31.1266   -1.8007 N   0  0  0  0  0  0  0  0  0  0  0  0
  -89.1934   30.7809   -1.5268 H   0  0  0  0  0  0  0  0  0  0  0  0
  -87.0635   30.4684   -1.2330 C   0  0  0  0  0  0  0  0  0  0  0  0
  -87.3184   29.0044   -1.1993 C   0  0  0  0  0  0  0  0  0  0  0  0
  -87.4673   28.1976   -2.3396 N   0  0  0  0  0  0  0  0  0  0  0  0
  -87.4171   28.4091   -0.0683 O   0  0  0  0  0  0  0  0  0  0  0  0
  -88.0269   28.5765   -3.1609 H   0  0  0  0  0  0  0  0  0  0  0  0
  -87.0718   27.2464   -2.4696 H   0  0  0  0  0  0  0  0  0  0  0  0
  -86.7029   31.0929    0.0571 C   0  0  0  0  0  0  0  0  0  0  0  0
  -85.2525   31.2526    0.2229 C   0  0  0  0  0  0  0  0  0  0  0  0
  -84.5721   32.3414   -0.3191 C   0  0  0  0  0  0  0  0  0  0  0  0
  -83.2278   32.5088   -0.1282 C   0  0  0  0  0  0  0  0  0  0  0  0
  -82.4753   31.6301    0.5950 C   0  0  0  0  0  0  0  0  0  0  0  0
  -83.1221   30.5294    1.1517 C   0  0  0  0  0  0  0  0  0  0  0  0
  -84.4728   30.3770    0.9495 C   0  0  0  0  0  0  0  0  0  0  0  0
  -92.6567   31.0745   -3.7689 C   0  0  0  0  0  0  0  0  0  0  0  0
  -92.5368   30.5162   -2.4060 N   0  0  0  0  0  0  0  0  0  0  0  0
  -91.5950   29.4811   -2.2260 C   0  0  0  0  0  0  0  0  0  0  0  0
  -90.8898   29.0530   -3.2109 O   0  0  0  0  0  0  0  0  0  0  0  0
  -93.1121   30.8651   -1.6284 H   0  0  0  0  0  0  0  0  0  0  0  0
  -91.3233   28.8078   -0.9632 C   0  0  0  0  0  0  0  0  0  0  0  0
  -90.8968   29.5384    0.1395 C   0  0  0  0  0  0  0  0  0  0  0  0
  -90.6313   28.9080    1.3437 C   0  0  0  0  0  0  0  0  0  0  0  0
  -90.7684   27.5500    1.5068 C   0  0  0  0  0  0  0  0  0  0  0  0
  -91.1932   26.8399    0.4034 C   0  0  0  0  0  0  0  0  0  0  0  0
  -91.4616   27.4486   -0.7979 C   0  0  0  0  0  0  0  0  0  0  0  0
  -90.4784   26.8907    2.7808 C   0  0  0  0  0  0  0  0  0  0  0  0
  -90.3175   25.5322    2.9066 C   0  0  0  0  0  0  0  0  0  0  0  0
  -90.0296   24.9517    4.1370 C   0  0  0  0  0  0  0  0  0  0  0  0
  -89.8976   25.7443    5.2748 C   0  0  0  0  0  0  0  0  0  0  0  0
  -90.0574   27.0908    5.1523 C   0  0  0  0  0  0  0  0  0  0  0  0
  -90.3411   27.6441    3.9357 C   0  0  0  0  0  0  0  0  0  0  0  0
  -93.7606   32.0946   -3.6452 C   0  0  0  0  0  0  0  0  0  0  0  0
  -95.5714   32.9361   -2.0980 C   0  0  0  0  0  0  0  0  0  0  0  0
  -94.8884   31.7544   -2.7552 C   0  0  0  0  0  0  0  0  0  0  0  0
  -95.9625   31.0849   -3.6252 C   0  0  0  0  0  0  0  0  0  0  0  0
 42 43  1  0  0  0
 43 44  1  0  0  0
 43 41  1  0  0  0
 41 24  1  0  0  0
 24 25  1  0  0  0
 25 26  1  0  0  0
 26 27  2  0  0  0
 26 29  1  0  0  0
 29 30  2  0  0  0
 30 31  1  0  0  0
 31 32  2  0  0  0
 32 33  1  0  0  0
 33 34  2  0  0  0
 32 35  1  0  0  0
 35 36  2  0  0  0
 36 37  1  0  0  0
 37 38  2  0  0  0
 38 39  1  0  0  0
 39 40  2  0  0  0
 24  1  1  0  0  0
  1  2  2  0  0  0
  1  3  1  0  0  0
  3  5  1  0  0  0
  5  6  1  0  0  0
  5  7  1  0  0  0
  7  8  2  0  0  0
  7  9  1  0  0  0
  9 11  1  0  0  0
 11 17  1  0  0  0
 17 18  1  0  0  0
 18 19  2  0  0  0
 19 20  1  0  0  0
 20 21  2  0  0  0
 21 22  1  0  0  0
 22 23  2  0  0  0
 11 12  1  0  0  0
 12 13  1  0  0  0
 12 14  2  0  0  0
 34 29  1  0  0  0
 40 35  1  0  0  0
 23 18  1  0  0  0
 25 28  1  0  0  0
  3  4  1  0  0  0
  9 10  1  0  0  0
 13 15  1  0  0  0
 13 16  1  0  0  0
M  END
> <minimizedAffinity>
-8.37465

> <CNNscore>
0.1553583443

> <CNNaffinity>
6.2869820595

> <CNN_VS>
0.9767351151

> <CNNaffinity_variance>
0.5148516297

$$$$
[H]c1c([H])c([H])c(-c2c([H])c([H])c(C(=O)N([H])[C@]([H])(C(=O)N([H])[C@]([H])(C(=O)N([H])[C@]([H])(C(=O)N([H])[H])C([H])([H])c3c([H])c([H])c([H])c([H])c3[H])C([H])([H])[H])C([H])([H])C([H])(C([H])([H])[H])C([H])([H])[H])c([H])c2[H])c([H])c1[H]


 44 46  0  0  0  0  0  0  0  0999 V2000
  -86.5951   30.3944   -0.0413 C   0  0  0  0  0  0  0  0  0  0  0  0
  -86.9542   30.2370   -1.2530 O   0  0  0  0  0  0  0  0  0  0  0  0
  -86.2697   31.6887    0.3771 N   0  0  0  0  0  0  0  0  0  0  0  0
  -85.9888   31.8158    1.4034 H   0  0  0  0  0  0  0  0  0  0  0  0
  -86.2764   32.8669   -0.4304 C   0  0  0  0  0  0  0  0  0  0  0  0
  -84.9254   33.1193   -1.1025 C   0  0  0  0  0  0  0  0  0  0  0  0
  -87.3585   32.9169   -1.4372 C   0  0  0  0  0  0  0  0  0  0  0  0
  -88.5369   33.1758   -1.0254 O   0  0  0  0  0  0  0  0  0  0  0  0
  -87.1536   32.6934   -2.8022 N   0  0  0  0  0  0  0  0  0  0  0  0
  -86.2003   32.4891   -3.1793 H   0  0  0  0  0  0  0  0  0  0  0  0
  -88.2857   32.7408   -3.7346 C   0  0  0  0  0  0  0  0  0  0  0  0
  -88.5786   31.3535   -4.1804 C   0  0  0  0  0  0  0  0  0  0  0  0
  -89.0575   30.3339   -3.3412 N   0  0  0  0  0  0  0  0  0  0  0  0
  -88.3888   31.0338   -5.4073 O   0  0  0  0  0  0  0  0  0  0  0  0
  -88.6533   30.2504   -2.3609 H   0  0  0  0  0  0  0  0  0  0  0  0
  -89.7895   29.6382   -3.5830 H   0  0  0  0  0  0  0  0  0  0  0  0
  -88.0220   33.7236   -4.8066 C   0  0  0  0  0  0  0  0  0  0  0  0
  -88.4053   35.0899   -4.4288 C   0  0  0  0  0  0  0  0  0  0  0  0
  -89.7298   35.5190   -4.4900 C   0  0  0  0  0  0  0  0  0  0  0  0
  -90.0895   36.7796   -4.0986 C   0  0  0  0  0  0  0  0  0  0  0  0
  -89.1853   37.6875   -3.6302 C   0  0  0  0  0  0  0  0  0  0  0  0
  -87.8516   37.2933   -3.5553 C   0  0  0  0  0  0  0  0  0  0  0  0
  -87.5082   36.0235   -3.9532 C   0  0  0  0  0  0  0  0  0  0  0  0
  -86.5584   29.1784    0.8183 C   0  0  0  0  0  0  0  0  0  0  0  0
  -87.2946   28.1452    0.0606 N   0  0  0  0  0  0  0  0  0  0  0  0
  -88.4416   27.6032    0.6783 C   0  0  0  0  0  0  0  0  0  0  0  0
  -88.8093   27.9955    1.8452 O   0  0  0  0  0  0  0  0  0  0  0  0
  -86.9852   27.8371   -0.8704 H   0  0  0  0  0  0  0  0  0  0  0  0
  -89.3032   26.5842    0.0946 C   0  0  0  0  0  0  0  0  0  0  0  0
  -90.5286   26.2878    0.6796 C   0  0  0  0  0  0  0  0  0  0  0  0
  -91.3538   25.3177    0.1357 C   0  0  0  0  0  0  0  0  0  0  0  0
  -91.0078   24.6062   -0.9884 C   0  0  0  0  0  0  0  0  0  0  0  0
  -89.7892   24.9128   -1.5570 C   0  0  0  0  0  0  0  0  0  0  0  0
  -88.9589   25.8721   -1.0316 C   0  0  0  0  0  0  0  0  0  0  0  0
  -91.8825   23.5772   -1.5523 C   0  0  0  0  0  0  0  0  0  0  0  0
  -92.0834   23.4159   -2.9018 C   0  0  0  0  0  0  0  0  0  0  0  0
  -92.9144   22.4145   -3.3918 C   0  0  0  0  0  0  0  0  0  0  0  0
  -93.5641   21.5483   -2.5155 C   0  0  0  0  0  0  0  0  0  0  0  0
  -93.3668   21.7070   -1.1777 C   0  0  0  0  0  0  0  0  0  0  0  0
  -92.5476   22.6972   -0.7137 C   0  0  0  0  0  0  0  0  0  0  0  0
  -85.1642   28.6156    0.9351 C   0  0  0  0  0  0  0  0  0  0  0  0
  -83.1518   28.3948    2.4459 C   0  0  0  0  0  0  0  0  0  0  0  0
  -84.6590   28.3591    2.2985 C   0  0  0  0  0  0  0  0  0  0  0  0
  -85.1909   29.4865    3.1955 C   0  0  0  0  0  0  0  0  0  0  0  0
 42 43  1  0  0  0
 43 44  1  0  0  0
 43 41  1  0  0  0
 41 24  1  0  0  0
 24 25  1  0  0  0
 25 26  1  0  0  0
 26 27  2  0  0  0
 26 29  1  0  0  0
 29 30  2  0  0  0
 30 31  1  0  0  0
 31 32  2  0  0  0
 32 33  1  0  0  0
 33 34  2  0  0  0
 32 35  1  0  0  0
 35 36  2  0  0  0
 36 37  1  0  0  0
 37 38  2  0  0  0
 38 39  1  0  0  0
 39 40  2  0  0  0
 24  1  1  0  0  0
  1  2  2  0  0  0
  1  3  1  0  0  0
  3  5  1  0  0  0
  5  6  1  0  0  0
  5  7  1  0  0  0
  7  8  2  0  0  0
  7  9  1  0  0  0
  9 11  1  0  0  0
 11 17  1  0  0  0
 17 18  1  0  0  0
 18 19  2  0  0  0
 19 20  1  0  0  0
 20 21  2  0  0  0
 21 22  1  0  0  0
 22 23  2  0  0  0
 11 12  1  0  0  0
 12 13  1  0  0  0
 12 14  2  0  0  0
 34 29  1  0  0  0
 40 35  1  0  0  0
 23 18  1  0  0  0
 25 28  1  0  0  0
  3  4  1  0  0  0
  9 10  1  0  0  0
 13 15  1  0  0  0
 13 16  1  0  0  0
M  END
> <minimizedAffinity>
-8.20201

> <CNNscore>
0.1178899929

> <CNNaffinity>
6.1387281418

> <CNN_VS>
0.7236946225

> <CNNaffinity_variance>
0.4083587527

$$$$
[H]c1c([H])c([H])c(-c2c([H])c([H])c(C(=O)N([H])[C@]([H])(C(=O)N([H])[C@]([H])(C(=O)N([H])[C@]([H])(C(=O)N([H])[H])C([H])([H])c3c([H])c([H])c([H])c([H])c3[H])C([H])([H])[H])C([H])([H])C([H])(C([H])([H])[H])C([H])([H])[H])c([H])c2[H])c([H])c1[H]


 44 46  0  0  0  0  0  0  0  0999 V2000
  -92.5477   26.4703   -2.2243 C   0  0  0  0  0  0  0  0  0  0  0  0
  -92.9781   26.0599   -3.3505 O   0  0  0  0  0  0  0  0  0  0  0  0
  -92.7622   27.8129   -1.8966 N   0  0  0  0  0  0  0  0  0  0  0  0
  -92.4156   28.1450   -0.9385 H   0  0  0  0  0  0  0  0  0  0  0  0
  -93.4033   28.7927   -2.7148 C   0  0  0  0  0  0  0  0  0  0  0  0
  -94.7679   29.2092   -2.1624 C   0  0  0  0  0  0  0  0  0  0  0  0
  -92.5845   29.9918   -2.9950 C   0  0  0  0  0  0  0  0  0  0  0  0
  -93.1755   31.0090   -3.4861 O   0  0  0  0  0  0  0  0  0  0  0  0
  -91.2091   30.0611   -2.7527 N   0  0  0  0  0  0  0  0  0  0  0  0
  -90.6914   29.2518   -2.3408 H   0  0  0  0  0  0  0  0  0  0  0  0
  -90.4643   31.2828   -3.0782 C   0  0  0  0  0  0  0  0  0  0  0  0
  -89.5385   30.9773   -4.2002 C   0  0  0  0  0  0  0  0  0  0  0  0
  -89.5271   31.6585   -5.4286 N   0  0  0  0  0  0  0  0  0  0  0  0
  -88.6828   30.0316   -4.0698 O   0  0  0  0  0  0  0  0  0  0  0  0
  -90.4571   31.9178   -5.8748 H   0  0  0  0  0  0  0  0  0  0  0  0
  -88.6819   31.9483   -5.9576 H   0  0  0  0  0  0  0  0  0  0  0  0
  -89.8424   31.8406   -1.8589 C   0  0  0  0  0  0  0  0  0  0  0  0
  -88.9048   32.9325   -2.1504 C   0  0  0  0  0  0  0  0  0  0  0  0
  -87.5440   32.8190   -1.8722 C   0  0  0  0  0  0  0  0  0  0  0  0
  -86.6668   33.8220   -2.1825 C   0  0  0  0  0  0  0  0  0  0  0  0
  -87.0634   34.9849   -2.7757 C   0  0  0  0  0  0  0  0  0  0  0  0
  -88.4169   35.1334   -3.0684 C   0  0  0  0  0  0  0  0  0  0  0  0
  -89.2838   34.1159   -2.7493 C   0  0  0  0  0  0  0  0  0  0  0  0
  -91.8557   25.4744   -1.3592 C   0  0  0  0  0  0  0  0  0  0  0  0
  -90.8099   26.2386   -0.6480 N   0  0  0  0  0  0  0  0  0  0  0  0
  -89.7713   26.7768   -1.4371 C   0  0  0  0  0  0  0  0  0  0  0  0
  -89.7484   26.5958   -2.7089 O   0  0  0  0  0  0  0  0  0  0  0  0
  -90.8384   26.3706    0.3714 H   0  0  0  0  0  0  0  0  0  0  0  0
  -88.6561   27.5635   -0.9283 C   0  0  0  0  0  0  0  0  0  0  0  0
  -87.5586   27.8247   -1.7400 C   0  0  0  0  0  0  0  0  0  0  0  0
  -86.4908   28.5678   -1.2650 C   0  0  0  0  0  0  0  0  0  0  0  0
  -86.4590   29.0725    0.0132 C   0  0  0  0  0  0  0  0  0  0  0  0
  -87.5559   28.8050    0.8054 C   0  0  0  0  0  0  0  0  0  0  0  0
  -88.6235   28.0708    0.3506 C   0  0  0  0  0  0  0  0  0  0  0  0
  -85.3231   29.8505    0.5097 C   0  0  0  0  0  0  0  0  0  0  0  0
  -84.2897   29.3002    1.2285 C   0  0  0  0  0  0  0  0  0  0  0  0
  -83.2241   30.0777    1.6686 C   0  0  0  0  0  0  0  0  0  0  0  0
  -83.1843   31.4411    1.3857 C   0  0  0  0  0  0  0  0  0  0  0  0
  -84.2078   31.9884    0.6740 C   0  0  0  0  0  0  0  0  0  0  0  0
  -85.2476   31.2096    0.2505 C   0  0  0  0  0  0  0  0  0  0  0  0
  -92.7508   24.9729   -0.2540 C   0  0  0  0  0  0  0  0  0  0  0  0
  -92.2262   22.6897   -1.1987 C   0  0  0  0  0  0  0  0  0  0  0  0
  -92.8569   23.5093   -0.0919 C   0  0  0  0  0  0  0  0  0  0  0  0
  -92.0898   23.1409    1.1867 C   0  0  0  0  0  0  0  0  0  0  0  0
 42 43  1  0  0  0
 43 44  1  0  0  0
 43 41  1  0  0  0
 41 24  1  0  0  0
 24 25  1  0  0  0
 25 26  1  0  0  0
 26 27  2  0  0  0
 26 29  1  0  0  0
 29 30  2  0  0  0
 30 31  1  0  0  0
 31 32  2  0  0  0
 32 33  1  0  0  0
 33 34  2  0  0  0
 32 35  1  0  0  0
 35 36  2  0  0  0
 36 37  1  0  0  0
 37 38  2  0  0  0
 38 39  1  0  0  0
 39 40  2  0  0  0
 24  1  1  0  0  0
  1  2  2  0  0  0
  1  3  1  0  0  0
  3  5  1  0  0  0
  5  6  1  0  0  0
  5  7  1  0  0  0
  7  8  2  0  0  0
  7  9  1  0  0  0
  9 11  1  0  0  0
 11 17  1  0  0  0
 17 18  1  0  0  0
 18 19  2  0  0  0
 19 20  1  0  0  0
 20 21  2  0  0  0
 21 22  1  0  0  0
 22 23  2  0  0  0
 11 12  1  0  0  0
 12 13  1  0  0  0
 12 14  2  0  0  0
 34 29  1  0  0  0
 40 35  1  0  0  0
 23 18  1  0  0  0
 25 28  1  0  0  0
  3  4  1  0  0  0
  9 10  1  0  0  0
 13 15  1  0  0  0
 13 16  1  0  0  0
M  END
> <minimizedAffinity>
-8.14340

> <CNNscore>
0.1039714590

> <CNNaffinity>
6.1593127251

> <CNN_VS>
0.6403927207

> <CNNaffinity_variance>
0.5403849483

$$$$
[H]c1c([H])c([H])c(-c2c([H])c([H])c(C(=O)N([H])[C@]([H])(C(=O)N([H])[C@]([H])(C(=O)N([H])[C@]([H])(C(=O)N([H])[H])C([H])([H])c3c([H])c([H])c([H])c([H])c3[H])C([H])([H])[H])C([H])([H])C([H])(C([H])([H])[H])C([H])([H])[H])c([H])c2[H])c([H])c1[H]


 44 46  0  0  0  0  0  0  0  0999 V2000
  -86.6228   27.6097    1.8557 C   0  0  0  0  0  0  0  0  0  0  0  0
  -85.9387   26.5819    2.1680 O   0  0  0  0  0  0  0  0  0  0  0  0
  -88.0137   27.5257    1.9757 N   0  0  0  0  0  0  0  0  0  0  0  0
  -88.5805   28.4016    1.7310 H   0  0  0  0  0  0  0  0  0  0  0  0
  -88.7602   26.3830    2.3969 C   0  0  0  0  0  0  0  0  0  0  0  0
  -89.6313   26.6758    3.6202 C   0  0  0  0  0  0  0  0  0  0  0  0
  -89.5755   25.7549    1.3351 C   0  0  0  0  0  0  0  0  0  0  0  0
  -90.7673   26.1788    1.1767 O   0  0  0  0  0  0  0  0  0  0  0  0
  -89.1080   24.7285    0.5085 N   0  0  0  0  0  0  0  0  0  0  0  0
  -88.1335   24.3618    0.6006 H   0  0  0  0  0  0  0  0  0  0  0  0
  -89.9884   24.1437   -0.5095 C   0  0  0  0  0  0  0  0  0  0  0  0
  -89.9783   22.6671   -0.3394 C   0  0  0  0  0  0  0  0  0  0  0  0
  -88.8773   21.9285    0.1247 N   0  0  0  0  0  0  0  0  0  0  0  0
  -91.0294   21.9933   -0.6303 O   0  0  0  0  0  0  0  0  0  0  0  0
  -87.9062   22.1933   -0.2188 H   0  0  0  0  0  0  0  0  0  0  0  0
  -88.9136   21.1332    0.7913 H   0  0  0  0  0  0  0  0  0  0  0  0
  -89.6193   24.6437   -1.8505 C   0  0  0  0  0  0  0  0  0  0  0  0
  -90.5321   25.6861   -2.3370 C   0  0  0  0  0  0  0  0  0  0  0  0
  -90.1714   27.0322   -2.3308 C   0  0  0  0  0  0  0  0  0  0  0  0
  -91.0079   27.9967   -2.8225 C   0  0  0  0  0  0  0  0  0  0  0  0
  -92.2352   27.7064   -3.3428 C   0  0  0  0  0  0  0  0  0  0  0  0
  -92.6294   26.3708   -3.3652 C   0  0  0  0  0  0  0  0  0  0  0  0
  -91.7766   25.4154   -2.8667 C   0  0  0  0  0  0  0  0  0  0  0  0
  -85.8709   28.8094    1.3924 C   0  0  0  0  0  0  0  0  0  0  0  0
  -86.8522   29.6133    0.6344 N   0  0  0  0  0  0  0  0  0  0  0  0
  -86.9606   29.3436   -0.7464 C   0  0  0  0  0  0  0  0  0  0  0  0
  -86.2298   28.4447   -1.3017 O   0  0  0  0  0  0  0  0  0  0  0  0
  -87.4265   30.3334    1.0915 H   0  0  0  0  0  0  0  0  0  0  0  0
  -87.8702   30.0194   -1.6615 C   0  0  0  0  0  0  0  0  0  0  0  0
  -88.9246   30.7767   -1.1650 C   0  0  0  0  0  0  0  0  0  0  0  0
  -89.7981   31.4198   -2.0260 C   0  0  0  0  0  0  0  0  0  0  0  0
  -89.6732   31.3399   -3.3926 C   0  0  0  0  0  0  0  0  0  0  0  0
  -88.6216   30.5853   -3.8689 C   0  0  0  0  0  0  0  0  0  0  0  0
  -87.7456   29.9416   -3.0299 C   0  0  0  0  0  0  0  0  0  0  0  0
  -90.6054   32.0164   -4.2955 C   0  0  0  0  0  0  0  0  0  0  0  0
  -90.2461   33.0744   -5.0949 C   0  0  0  0  0  0  0  0  0  0  0  0
  -91.1643   33.6776   -5.9474 C   0  0  0  0  0  0  0  0  0  0  0  0
  -92.4771   33.2158   -6.0073 C   0  0  0  0  0  0  0  0  0  0  0  0
  -92.8353   32.1678   -5.2153 C   0  0  0  0  0  0  0  0  0  0  0  0
  -91.9202   31.5878   -4.3827 C   0  0  0  0  0  0  0  0  0  0  0  0
  -85.4806   29.7053    2.5410 C   0  0  0  0  0  0  0  0  0  0  0  0
  -83.0688   29.4048    1.8524 C   0  0  0  0  0  0  0  0  0  0  0  0
  -84.1190   30.2752    2.5113 C   0  0  0  0  0  0  0  0  0  0  0  0
  -84.1854   31.5568    1.6675 C   0  0  0  0  0  0  0  0  0  0  0  0
 42 43  1  0  0  0
 43 44  1  0  0  0
 43 41  1  0  0  0
 41 24  1  0  0  0
 24 25  1  0  0  0
 25 26  1  0  0  0
 26 27  2  0  0  0
 26 29  1  0  0  0
 29 30  2  0  0  0
 30 31  1  0  0  0
 31 32  2  0  0  0
 32 33  1  0  0  0
 33 34  2  0  0  0
 32 35  1  0  0  0
 35 36  2  0  0  0
 36 37  1  0  0  0
 37 38  2  0  0  0
 38 39  1  0  0  0
 39 40  2  0  0  0
 24  1  1  0  0  0
  1  2  2  0  0  0
  1  3  1  0  0  0
  3  5  1  0  0  0
  5  6  1  0  0  0
  5  7  1  0  0  0
  7  8  2  0  0  0
  7  9  1  0  0  0
  9 11  1  0  0  0
 11 17  1  0  0  0
 17 18  1  0  0  0
 18 19  2  0  0  0
 19 20  1  0  0  0
 20 21  2  0  0  0
 21 22  1  0  0  0
 22 23  2  0  0  0
 11 12  1  0  0  0
 12 13  1  0  0  0
 12 14  2  0  0  0
 34 29  1  0  0  0
 40 35  1  0  0  0
 23 18  1  0  0  0
 25 28  1  0  0  0
  3  4  1  0  0  0
  9 10  1  0  0  0
 13 15  1  0  0  0
 13 16  1  0  0  0
M  END
> <minimizedAffinity>
-8.53010

> <CNNscore>
0.1001984105

> <CNNaffinity>
5.9725918770

> <CNN_VS>
0.5984442234

> <CNNaffinity_variance>
1.0944105387

$$$$
[H]c1c([H])c([H])c(-c2c([H])c([H])c(C(=O)N([H])[C@]([H])(C(=O)N([H])[C@]([H])(C(=O)N([H])[C@]([H])(C(=O)N([H])[H])C([H])([H])c3c([H])c([H])c([H])c([H])c3[H])C([H])([H])[H])C([H])([H])C([H])(C([H])([H])[H])C([H])([H])[H])c([H])c2[H])c([H])c1[H]


 44 46  0  0  0  0  0  0  0  0999 V2000
  -87.1570   28.1011    1.3630 C   0  0  0  0  0  0  0  0  0  0  0  0
  -86.5074   28.1417    0.2683 O   0  0  0  0  0  0  0  0  0  0  0  0
  -86.5347   28.6103    2.5073 N   0  0  0  0  0  0  0  0  0  0  0  0
  -87.0961   28.5915    3.4200 H   0  0  0  0  0  0  0  0  0  0  0  0
  -85.2181   29.1592    2.5825 C   0  0  0  0  0  0  0  0  0  0  0  0
  -84.1425   28.1484    2.1797 C   0  0  0  0  0  0  0  0  0  0  0  0
  -85.0331   30.4197    1.8316 C   0  0  0  0  0  0  0  0  0  0  0  0
  -84.9916   31.5046    2.4997 O   0  0  0  0  0  0  0  0  0  0  0  0
  -84.9059   30.4777    0.4402 N   0  0  0  0  0  0  0  0  0  0  0  0
  -84.9240   29.6090   -0.1408 H   0  0  0  0  0  0  0  0  0  0  0  0
  -84.7456   31.7724   -0.2316 C   0  0  0  0  0  0  0  0  0  0  0  0
  -83.3575   32.2490    0.0038 C   0  0  0  0  0  0  0  0  0  0  0  0
  -82.3651   31.5082    0.6668 N   0  0  0  0  0  0  0  0  0  0  0  0
  -83.0128   33.4116   -0.4119 O   0  0  0  0  0  0  0  0  0  0  0  0
  -82.6378   30.9530    1.5319 H   0  0  0  0  0  0  0  0  0  0  0  0
  -81.3670   31.4398    0.3887 H   0  0  0  0  0  0  0  0  0  0  0  0
  -85.8253   32.6955    0.1768 C   0  0  0  0  0  0  0  0  0  0  0  0
  -86.7139   33.0548   -0.9358 C   0  0  0  0  0  0  0  0  0  0  0  0
  -88.0929   32.8696   -0.8568 C   0  0  0  0  0  0  0  0  0  0  0  0
  -88.9221   33.2431   -1.8789 C   0  0  0  0  0  0  0  0  0  0  0  0
  -88.4576   33.8128   -3.0283 C   0  0  0  0  0  0  0  0  0  0  0  0
  -87.0841   34.0131   -3.1424 C   0  0  0  0  0  0  0  0  0  0  0  0
  -86.2661   33.6314   -2.1061 C   0  0  0  0  0  0  0  0  0  0  0  0
  -88.5253   27.5138    1.3179 C   0  0  0  0  0  0  0  0  0  0  0  0
  -89.0723   27.9052    0.0021 N   0  0  0  0  0  0  0  0  0  0  0  0
  -90.1400   28.8277    0.0089 C   0  0  0  0  0  0  0  0  0  0  0  0
  -90.6054   29.2890    1.1140 O   0  0  0  0  0  0  0  0  0  0  0  0
  -88.6932   27.5233   -0.8741 H   0  0  0  0  0  0  0  0  0  0  0  0
  -90.8087   29.3417   -1.1787 C   0  0  0  0  0  0  0  0  0  0  0  0
  -90.0621   29.8531   -2.2335 C   0  0  0  0  0  0  0  0  0  0  0  0
  -90.6875   30.3486   -3.3655 C   0  0  0  0  0  0  0  0  0  0  0  0
  -92.0554   30.3648   -3.5002 C   0  0  0  0  0  0  0  0  0  0  0  0
  -92.7815   29.8531   -2.4451 C   0  0  0  0  0  0  0  0  0  0  0  0
  -92.1780   29.3572   -1.3157 C   0  0  0  0  0  0  0  0  0  0  0  0
  -92.7086   30.8972   -4.6968 C   0  0  0  0  0  0  0  0  0  0  0  0
  -93.7651   30.2764   -5.3179 C   0  0  0  0  0  0  0  0  0  0  0  0
  -94.3625   30.8275   -6.4461 C   0  0  0  0  0  0  0  0  0  0  0  0
  -93.8968   32.0304   -6.9719 C   0  0  0  0  0  0  0  0  0  0  0  0
  -92.8495   32.6469   -6.3581 C   0  0  0  0  0  0  0  0  0  0  0  0
  -92.2737   32.0905   -5.2510 C   0  0  0  0  0  0  0  0  0  0  0  0
  -88.4878   26.0073    1.2595 C   0  0  0  0  0  0  0  0  0  0  0  0
  -89.5332   24.1971   -0.1587 C   0  0  0  0  0  0  0  0  0  0  0  0
  -89.7258   25.3238    0.8354 C   0  0  0  0  0  0  0  0  0  0  0  0
  -90.3330   24.6739    2.0875 C   0  0  0  0  0  0  0  0  0  0  0  0
 42 43  1  0  0  0
 43 44  1  0  0  0
 43 41  1  0  0  0
 41 24  1  0  0  0
 24 25  1  0  0  0
 25 26  1  0  0  0
 26 27  2  0  0  0
 26 29  1  0  0  0
 29 30  2  0  0  0
 30 31  1  0  0  0
 31 32  2  0  0  0
 32 33  1  0  0  0
 33 34  2  0  0  0
 32 35  1  0  0  0
 35 36  2  0  0  0
 36 37  1  0  0  0
 37 38  2  0  0  0
 38 39  1  0  0  0
 39 40  2  0  0  0
 24  1  1  0  0  0
  1  2  2  0  0  0
  1  3  1  0  0  0
  3  5  1  0  0  0
  5  6  1  0  0  0
  5  7  1  0  0  0
  7  8  2  0  0  0
  7  9  1  0  0  0
  9 11  1  0  0  0
 11 17  1  0  0  0
 17 18  1  0  0  0
 18 19  2  0  0  0
 19 20  1  0  0  0
 20 21  2  0  0  0
 21 22  1  0  0  0
 22 23  2  0  0  0
 11 12  1  0  0  0
 12 13  1  0  0  0
 12 14  2  0  0  0
 34 29  1  0  0  0
 40 35  1  0  0  0
 23 18  1  0  0  0
 25 28  1  0  0  0
  3  4  1  0  0  0
  9 10  1  0  0  0
 13 15  1  0  0  0
 13 16  1  0  0  0
M  END
> <minimizedAffinity>
-7.79445

> <CNNscore>
0.0894814581

> <CNNaffinity>
6.2565584183

> <CNN_VS>
0.5598459840

> <CNNaffinity_variance>
0.4367817044

$$$$
[H]c1c([H])c([H])c(C([H])([H])OC(=O)N([H])[C@]([H])(C(=O)N([H])[C@]([H])(C(=O)N([H])[C@]([H])(C(=O)N([H])[H])C([H])([H])C([H])(C([H])([H])[H])C([H])([H])[H])C([H])([H])c2c([H])c([H])c([H])c([H])c2[H])C([H])([H])c2c([H])c([H])c([H])c([H])c2[H])c([H])c1[H]


 46 48  0  0  0  0  0  0  0  0999 V2000
  -88.4983   30.9797   -2.7854 N   0  0  0  0  0  0  0  0  0  0  0  0
  -87.9350   31.7907   -3.7786 C   0  0  0  0  0  0  0  0  0  0  0  0
  -87.6676   31.2661   -4.9201 O   0  0  0  0  0  0  0  0  0  0  0  0
  -88.7043   31.4337   -1.8345 H   0  0  0  0  0  0  0  0  0  0  0  0
  -88.7955   29.5890   -2.9201 C   0  0  0  0  0  0  0  0  0  0  0  0
  -90.8476   28.1186   -2.9302 N   0  0  0  0  0  0  0  0  0  0  0  0
  -90.1354   29.2323   -2.4498 C   0  0  0  0  0  0  0  0  0  0  0  0
  -90.7232   29.9255   -1.5823 O   0  0  0  0  0  0  0  0  0  0  0  0
  -90.4779   27.4753   -3.6409 H   0  0  0  0  0  0  0  0  0  0  0  0
  -92.2157   27.8078   -2.4176 C   0  0  0  0  0  0  0  0  0  0  0  0
  -92.0521   26.5883   -1.6296 C   0  0  0  0  0  0  0  0  0  0  0  0
  -93.0696   26.1571   -0.7546 N   0  0  0  0  0  0  0  0  0  0  0  0
  -91.0037   25.9136   -1.7208 O   0  0  0  0  0  0  0  0  0  0  0  0
  -92.9144   25.3538   -0.1170 H   0  0  0  0  0  0  0  0  0  0  0  0
  -93.9944   26.6302   -0.7271 H   0  0  0  0  0  0  0  0  0  0  0  0
  -93.0380   27.7130   -3.6532 C   0  0  0  0  0  0  0  0  0  0  0  0
  -93.5408   25.4635   -4.6659 C   0  0  0  0  0  0  0  0  0  0  0  0
  -92.7206   26.6979   -4.6681 C   0  0  0  0  0  0  0  0  0  0  0  0
  -92.6903   27.2678   -6.0845 C   0  0  0  0  0  0  0  0  0  0  0  0
  -87.6827   28.6494   -2.7096 C   0  0  0  0  0  0  0  0  0  0  0  0
  -87.3710   28.1008   -1.4092 C   0  0  0  0  0  0  0  0  0  0  0  0
  -87.7417   26.7914   -1.1177 C   0  0  0  0  0  0  0  0  0  0  0  0
  -87.5019   26.2186    0.1037 C   0  0  0  0  0  0  0  0  0  0  0  0
  -86.8787   26.9363    1.0864 C   0  0  0  0  0  0  0  0  0  0  0  0
  -86.5101   28.2302    0.8054 C   0  0  0  0  0  0  0  0  0  0  0  0
  -86.7478   28.8073   -0.4132 C   0  0  0  0  0  0  0  0  0  0  0  0
  -87.6295   33.2202   -3.5614 C   0  0  0  0  0  0  0  0  0  0  0  0
  -86.1607   33.2760   -3.2900 N   0  0  0  0  0  0  0  0  0  0  0  0
  -85.8036   33.2300   -1.9108 C   0  0  0  0  0  0  0  0  0  0  0  0
  -86.6283   33.1532   -0.9756 O   0  0  0  0  0  0  0  0  0  0  0  0
  -85.5051   33.3403   -4.0668 H   0  0  0  0  0  0  0  0  0  0  0  0
  -84.4505   33.2696   -1.5167 O   0  0  0  0  0  0  0  0  0  0  0  0
  -84.0116   33.3977   -0.2042 C   0  0  0  0  0  0  0  0  0  0  0  0
  -83.8128   32.1609    0.5437 C   0  0  0  0  0  0  0  0  0  0  0  0
  -82.7302   31.3615    0.2756 C   0  0  0  0  0  0  0  0  0  0  0  0
  -82.5247   30.1738    0.9830 C   0  0  0  0  0  0  0  0  0  0  0  0
  -83.3999   29.7681    1.9681 C   0  0  0  0  0  0  0  0  0  0  0  0
  -84.4865   30.5688    2.2370 C   0  0  0  0  0  0  0  0  0  0  0  0
  -84.6887   31.7471    1.5352 C   0  0  0  0  0  0  0  0  0  0  0  0
  -87.9316   34.1079   -4.7028 C   0  0  0  0  0  0  0  0  0  0  0  0
  -87.7803   35.5456   -4.5820 C   0  0  0  0  0  0  0  0  0  0  0  0
  -88.2744   36.1773   -3.4275 C   0  0  0  0  0  0  0  0  0  0  0  0
  -88.1253   37.5231   -3.2009 C   0  0  0  0  0  0  0  0  0  0  0  0
  -87.4729   38.3174   -4.1146 C   0  0  0  0  0  0  0  0  0  0  0  0
  -86.9806   37.7384   -5.2455 C   0  0  0  0  0  0  0  0  0  0  0  0
  -87.1351   36.3783   -5.4674 C   0  0  0  0  0  0  0  0  0  0  0  0
 17 18  1  0  0  0
 18 19  1  0  0  0
 18 16  1  0  0  0
 16 10  1  0  0  0
 10  6  1  0  0  0
  6  7  1  0  0  0
  7  8  2  0  0  0
  7  5  1  0  0  0
  5 20  1  0  0  0
 20 21  1  0  0  0
 21 22  2  0  0  0
 22 23  1  0  0  0
 23 24  2  0  0  0
 24 25  1  0  0  0
 25 26  2  0  0  0
  5  1  1  0  0  0
  1  2  1  0  0  0
  2  3  2  0  0  0
  2 27  1  0  0  0
 27 40  1  0  0  0
 40 41  1  0  0  0
 41 42  2  0  0  0
 42 43  1  0  0  0
 43 44  2  0  0  0
 44 45  1  0  0  0
 45 46  2  0  0  0
 27 28  1  0  0  0
 28 29  1  0  0  0
 29 30  2  0  0  0
 29 32  1  0  0  0
 32 33  1  0  0  0
 33 34  1  0  0  0
 34 35  2  0  0  0
 35 36  1  0  0  0
 36 37  2  0  0  0
 37 38  1  0  0  0
 38 39  2  0  0  0
 10 11  1  0  0  0
 11 12  1  0  0  0
 11 13  2  0  0  0
 26 21  1  0  0  0
 46 41  1  0  0  0
 39 34  1  0  0  0
  6  9  1  0  0  0
  1  4  1  0  0  0
 28 31  1  0  0  0
 12 14  1  0  0  0
 12 15  1  0  0  0
M  END
> <minimizedAffinity>
-8.85423

> <CNNscore>
0.3685739040

> <CNNaffinity>
7.0686631203

> <CNN_VS>
2.6053247452

> <CNNaffinity_variance>
0.1330662519

$$$$
[H]c1c([H])c([H])c(C([H])([H])OC(=O)N([H])[C@]([H])(C(=O)N([H])[C@]([H])(C(=O)N([H])[C@]([H])(C(=O)N([H])[H])C([H])([H])C([H])(C([H])([H])[H])C([H])([H])[H])C([H])([H])c2c([H])c([H])c([H])c([H])c2[H])C([H])([H])c2c([H])c([H])c([H])c([H])c2[H])c([H])c1[H]


 46 48  0  0  0  0  0  0  0  0999 V2000
  -87.9189   30.8323   -2.6545 N   0  0  0  0  0  0  0  0  0  0  0  0
  -87.7171   31.7426   -3.6996 C   0  0  0  0  0  0  0  0  0  0  0  0
  -87.7445   31.3059   -4.9072 O   0  0  0  0  0  0  0  0  0  0  0  0
  -87.8814   31.2145   -1.6519 H   0  0  0  0  0  0  0  0  0  0  0  0
  -88.1417   29.4296   -2.8079 C   0  0  0  0  0  0  0  0  0  0  0  0
  -90.5417   29.8500   -2.1475 N   0  0  0  0  0  0  0  0  0  0  0  0
  -89.5569   29.0570   -2.7634 C   0  0  0  0  0  0  0  0  0  0  0  0
  -89.9608   27.9848   -3.2791 O   0  0  0  0  0  0  0  0  0  0  0  0
  -90.3396   30.7470   -1.6892 H   0  0  0  0  0  0  0  0  0  0  0  0
  -91.9704   29.4147   -2.1274 C   0  0  0  0  0  0  0  0  0  0  0  0
  -92.7145   30.5471   -2.6743 C   0  0  0  0  0  0  0  0  0  0  0  0
  -92.0380   31.6907   -3.1446 N   0  0  0  0  0  0  0  0  0  0  0  0
  -93.9629   30.5151   -2.7285 O   0  0  0  0  0  0  0  0  0  0  0  0
  -92.5649   32.5361   -3.4339 H   0  0  0  0  0  0  0  0  0  0  0  0
  -91.0013   31.7148   -3.2131 H   0  0  0  0  0  0  0  0  0  0  0  0
  -92.2100   29.0699   -0.7006 C   0  0  0  0  0  0  0  0  0  0  0  0
  -90.9917   28.7664    1.4817 C   0  0  0  0  0  0  0  0  0  0  0  0
  -91.1728   28.3649    0.0666 C   0  0  0  0  0  0  0  0  0  0  0  0
  -91.3176   26.8462   -0.0009 C   0  0  0  0  0  0  0  0  0  0  0  0
  -87.1393   28.5301   -2.2147 C   0  0  0  0  0  0  0  0  0  0  0  0
  -87.2865   27.9789   -0.8867 C   0  0  0  0  0  0  0  0  0  0  0  0
  -87.5914   26.6288   -0.7415 C   0  0  0  0  0  0  0  0  0  0  0  0
  -87.7717   26.0483    0.4865 C   0  0  0  0  0  0  0  0  0  0  0  0
  -87.6534   26.7988    1.6231 C   0  0  0  0  0  0  0  0  0  0  0  0
  -87.3527   28.1329    1.4869 C   0  0  0  0  0  0  0  0  0  0  0  0
  -87.1719   28.7180    0.2623 C   0  0  0  0  0  0  0  0  0  0  0  0
  -87.4661   33.1802   -3.4665 C   0  0  0  0  0  0  0  0  0  0  0  0
  -86.0061   33.2847   -3.1640 N   0  0  0  0  0  0  0  0  0  0  0  0
  -85.6774   33.2559   -1.7773 C   0  0  0  0  0  0  0  0  0  0  0  0
  -86.5191   33.1560   -0.8596 O   0  0  0  0  0  0  0  0  0  0  0  0
  -85.3363   33.3673   -3.9269 H   0  0  0  0  0  0  0  0  0  0  0  0
  -84.3351   33.3410   -1.3546 O   0  0  0  0  0  0  0  0  0  0  0  0
  -83.9248   33.3944   -0.0278 C   0  0  0  0  0  0  0  0  0  0  0  0
  -83.7868   32.1189    0.6671 C   0  0  0  0  0  0  0  0  0  0  0  0
  -84.7433   31.7182    1.5658 C   0  0  0  0  0  0  0  0  0  0  0  0
  -84.6267   30.4994    2.2395 C   0  0  0  0  0  0  0  0  0  0  0  0
  -83.5509   29.6642    2.0248 C   0  0  0  0  0  0  0  0  0  0  0  0
  -82.5906   30.0657    1.1243 C   0  0  0  0  0  0  0  0  0  0  0  0
  -82.7079   31.2745    0.4561 C   0  0  0  0  0  0  0  0  0  0  0  0
  -87.7752   34.0653   -4.6080 C   0  0  0  0  0  0  0  0  0  0  0  0
  -87.6603   35.5057   -4.4794 C   0  0  0  0  0  0  0  0  0  0  0  0
  -88.2502   36.1288   -3.3660 C   0  0  0  0  0  0  0  0  0  0  0  0
  -88.1436   37.4774   -3.1318 C   0  0  0  0  0  0  0  0  0  0  0  0
  -87.4404   38.2831   -3.9965 C   0  0  0  0  0  0  0  0  0  0  0  0
  -86.8549   37.7127   -5.0867 C   0  0  0  0  0  0  0  0  0  0  0  0
  -86.9671   36.3498   -5.3164 C   0  0  0  0  0  0  0  0  0  0  0  0
 17 18  1  0  0  0
 18 19  1  0  0  0
 18 16  1  0  0  0
 16 10  1  0  0  0
 10  6  1  0  0  0
  6  7  1  0  0  0
  7  8  2  0  0  0
  7  5  1  0  0  0
  5 20  1  0  0  0
 20 21  1  0  0  0
 21 22  2  0  0  0
 22 23  1  0  0  0
 23 24  2  0  0  0
 24 25  1  0  0  0
 25 26  2  0  0  0
  5  1  1  0  0  0
  1  2  1  0  0  0
  2  3  2  0  0  0
  2 27  1  0  0  0
 27 40  1  0  0  0
 40 41  1  0  0  0
 41 42  2  0  0  0
 42 43  1  0  0  0
 43 44  2  0  0  0
 44 45  1  0  0  0
 45 46  2  0  0  0
 27 28  1  0  0  0
 28 29  1  0  0  0
 29 30  2  0  0  0
 29 32  1  0  0  0
 32 33  1  0  0  0
 33 34  1  0  0  0
 34 35  2  0  0  0
 35 36  1  0  0  0
 36 37  2  0  0  0
 37 38  1  0  0  0
 38 39  2  0  0  0
 10 11  1  0  0  0
 11 12  1  0  0  0
 11 13  2  0  0  0
 26 21  1  0  0  0
 46 41  1  0  0  0
 39 34  1  0  0  0
  6  9  1  0  0  0
  1  4  1  0  0  0
 28 31  1  0  0  0
 12 14  1  0  0  0
 12 15  1  0  0  0
M  END
> <minimizedAffinity>
-8.83849

> <CNNscore>
0.3465827405

> <CNNaffinity>
6.9557256699

> <CNN_VS>
2.4107344151

> <CNNaffinity_variance>
0.4520434737

$$$$
[H]c1c([H])c([H])c(C([H])([H])OC(=O)N([H])[C@]([H])(C(=O)N([H])[C@]([H])(C(=O)N([H])[C@]([H])(C(=O)N([H])[H])C([H])([H])C([H])(C([H])([H])[H])C([H])([H])[H])C([H])([H])c2c([H])c([H])c([H])c([H])c2[H])C([H])([H])c2c([H])c([H])c([H])c([H])c2[H])c([H])c1[H]


 46 48  0  0  0  0  0  0  0  0999 V2000
  -88.1184   27.2010   -0.4612 N   0  0  0  0  0  0  0  0  0  0  0  0
  -88.2904   28.5823   -0.3059 C   0  0  0  0  0  0  0  0  0  0  0  0
  -89.3831   29.0093    0.2168 O   0  0  0  0  0  0  0  0  0  0  0  0
  -87.2031   26.8642   -0.9101 H   0  0  0  0  0  0  0  0  0  0  0  0
  -89.0718   26.2007   -0.0994 C   0  0  0  0  0  0  0  0  0  0  0  0
  -90.0471   25.1557    1.9815 N   0  0  0  0  0  0  0  0  0  0  0  0
  -88.9988   25.8099    1.3098 C   0  0  0  0  0  0  0  0  0  0  0  0
  -87.9760   26.0540    1.9973 O   0  0  0  0  0  0  0  0  0  0  0  0
  -90.9354   24.9026    1.5315 H   0  0  0  0  0  0  0  0  0  0  0  0
  -89.9181   24.7873    3.4232 C   0  0  0  0  0  0  0  0  0  0  0  0
  -90.4834   23.4433    3.5182 C   0  0  0  0  0  0  0  0  0  0  0  0
  -89.6433   22.3121    3.5543 N   0  0  0  0  0  0  0  0  0  0  0  0
  -91.7220   23.2812    3.5654 O   0  0  0  0  0  0  0  0  0  0  0  0
  -90.0415   21.3552    3.5143 H   0  0  0  0  0  0  0  0  0  0  0  0
  -88.6107   22.4083    3.6218 H   0  0  0  0  0  0  0  0  0  0  0  0
  -90.6405   25.8794    4.1284 C   0  0  0  0  0  0  0  0  0  0  0  0
  -90.3170   28.3690    4.3186 C   0  0  0  0  0  0  0  0  0  0  0  0
  -89.8875   27.0037    4.7032 C   0  0  0  0  0  0  0  0  0  0  0  0
  -89.7841   26.9291    6.2250 C   0  0  0  0  0  0  0  0  0  0  0  0
  -89.3834   25.1829   -1.1156 C   0  0  0  0  0  0  0  0  0  0  0  0
  -90.4956   25.3187   -2.0286 C   0  0  0  0  0  0  0  0  0  0  0  0
  -90.6155   26.4808   -2.7850 C   0  0  0  0  0  0  0  0  0  0  0  0
  -91.6594   26.6862   -3.6485 C   0  0  0  0  0  0  0  0  0  0  0  0
  -92.6290   25.7329   -3.7903 C   0  0  0  0  0  0  0  0  0  0  0  0
  -92.5169   24.5830   -3.0460 C   0  0  0  0  0  0  0  0  0  0  0  0
  -91.4762   24.3729   -2.1815 C   0  0  0  0  0  0  0  0  0  0  0  0
  -87.2695   29.5644   -0.7270 C   0  0  0  0  0  0  0  0  0  0  0  0
  -87.9352   30.4094   -1.7647 N   0  0  0  0  0  0  0  0  0  0  0  0
  -88.1215   29.7734   -3.0267 C   0  0  0  0  0  0  0  0  0  0  0  0
  -87.7646   28.6036   -3.2814 O   0  0  0  0  0  0  0  0  0  0  0  0
  -88.2167   31.3615   -1.5372 H   0  0  0  0  0  0  0  0  0  0  0  0
  -88.7420   30.4574   -4.0920 O   0  0  0  0  0  0  0  0  0  0  0  0
  -88.1542   31.4822   -4.8242 C   0  0  0  0  0  0  0  0  0  0  0  0
  -88.2979   32.8331   -4.2923 C   0  0  0  0  0  0  0  0  0  0  0  0
  -87.2611   33.4171   -3.6088 C   0  0  0  0  0  0  0  0  0  0  0  0
  -87.3821   34.7104   -3.0932 C   0  0  0  0  0  0  0  0  0  0  0  0
  -88.5424   35.4379   -3.2530 C   0  0  0  0  0  0  0  0  0  0  0  0
  -89.5830   34.8527   -3.9376 C   0  0  0  0  0  0  0  0  0  0  0  0
  -89.4614   33.5701   -4.4493 C   0  0  0  0  0  0  0  0  0  0  0  0
  -86.7654   30.4459    0.3458 C   0  0  0  0  0  0  0  0  0  0  0  0
  -85.3406   30.6492    0.5277 C   0  0  0  0  0  0  0  0  0  0  0  0
  -84.7674   31.8419    0.0537 C   0  0  0  0  0  0  0  0  0  0  0  0
  -83.4404   32.1454    0.2321 C   0  0  0  0  0  0  0  0  0  0  0  0
  -82.6077   31.2749    0.8956 C   0  0  0  0  0  0  0  0  0  0  0  0
  -83.1296   30.1087    1.3691 C   0  0  0  0  0  0  0  0  0  0  0  0
  -84.4711   29.8092    1.1849 C   0  0  0  0  0  0  0  0  0  0  0  0
 17 18  1  0  0  0
 18 19  1  0  0  0
 18 16  1  0  0  0
 16 10  1  0  0  0
 10  6  1  0  0  0
  6  7  1  0  0  0
  7  8  2  0  0  0
  7  5  1  0  0  0
  5 20  1  0  0  0
 20 21  1  0  0  0
 21 22  2  0  0  0
 22 23  1  0  0  0
 23 24  2  0  0  0
 24 25  1  0  0  0
 25 26  2  0  0  0
  5  1  1  0  0  0
  1  2  1  0  0  0
  2  3  2  0  0  0
  2 27  1  0  0  0
 27 40  1  0  0  0
 40 41  1  0  0  0
 41 42  2  0  0  0
 42 43  1  0  0  0
 43 44  2  0  0  0
 44 45  1  0  0  0
 45 46  2  0  0  0
 27 28  1  0  0  0
 28 29  1  0  0  0
 29 30  2  0  0  0
 29 32  1  0  0  0
 32 33  1  0  0  0
 33 34  1  0  0  0
 34 35  2  0  0  0
 35 36  1  0  0  0
 36 37  2  0  0  0
 37 38  1  0  0  0
 38 39  2  0  0  0
 10 11  1  0  0  0
 11 12  1  0  0  0
 11 13  2  0  0  0
 26 21  1  0  0  0
 46 41  1  0  0  0
 39 34  1  0  0  0
  6  9  1  0  0  0
  1  4  1  0  0  0
 28 31  1  0  0  0
 12 14  1  0  0  0
 12 15  1  0  0  0
M  END
> <minimizedAffinity>
-9.57163

> <CNNscore>
0.2728738487

> <CNNaffinity>
6.8708739281

> <CNN_VS>
1.8748818636

> <CNNaffinity_variance>
0.4868064523

$$$$
[H]c1c([H])c([H])c(C([H])([H])OC(=O)N([H])[C@]([H])(C(=O)N([H])[C@]([H])(C(=O)N([H])[C@]([H])(C(=O)N([H])[H])C([H])([H])C([H])(C([H])([H])[H])C([H])([H])[H])C([H])([H])c2c([H])c([H])c([H])c([H])c2[H])C([H])([H])c2c([H])c([H])c([H])c([H])c2[H])c([H])c1[H]


 46 48  0  0  0  0  0  0  0  0999 V2000
  -88.7586   31.9893   -2.6326 N   0  0  0  0  0  0  0  0  0  0  0  0
  -87.7343   32.5891   -3.3761 C   0  0  0  0  0  0  0  0  0  0  0  0
  -87.4056   32.0647   -4.5015 O   0  0  0  0  0  0  0  0  0  0  0  0
  -89.0115   32.4358   -1.6895 H   0  0  0  0  0  0  0  0  0  0  0  0
  -89.4775   30.8138   -3.0091 C   0  0  0  0  0  0  0  0  0  0  0  0
  -88.8226   28.9270   -1.4650 N   0  0  0  0  0  0  0  0  0  0  0  0
  -88.7594   29.5727   -2.7128 C   0  0  0  0  0  0  0  0  0  0  0  0
  -88.0335   29.0222   -3.5781 O   0  0  0  0  0  0  0  0  0  0  0  0
  -89.3788   29.2772   -0.6753 H   0  0  0  0  0  0  0  0  0  0  0  0
  -88.0619   27.6655   -1.2183 C   0  0  0  0  0  0  0  0  0  0  0  0
  -89.0842   26.6271   -1.1098 C   0  0  0  0  0  0  0  0  0  0  0  0
  -90.4103   26.9585   -0.7658 N   0  0  0  0  0  0  0  0  0  0  0  0
  -88.7923   25.4296   -1.3184 O   0  0  0  0  0  0  0  0  0  0  0  0
  -91.1115   26.2160   -0.5842 H   0  0  0  0  0  0  0  0  0  0  0  0
  -90.7162   27.9484   -0.6864 H   0  0  0  0  0  0  0  0  0  0  0  0
  -87.2695   27.9689    0.0031 C   0  0  0  0  0  0  0  0  0  0  0  0
  -86.1365   26.6243    1.8050 C   0  0  0  0  0  0  0  0  0  0  0  0
  -87.3943   27.1095    1.1894 C   0  0  0  0  0  0  0  0  0  0  0  0
  -88.2700   27.7274    2.2771 C   0  0  0  0  0  0  0  0  0  0  0  0
  -90.2979   30.8997   -4.2279 C   0  0  0  0  0  0  0  0  0  0  0  0
  -91.4776   31.7311   -4.3073 C   0  0  0  0  0  0  0  0  0  0  0  0
  -92.6401   31.3244   -3.6593 C   0  0  0  0  0  0  0  0  0  0  0  0
  -93.8008   32.0504   -3.7165 C   0  0  0  0  0  0  0  0  0  0  0  0
  -93.8447   33.2173   -4.4274 C   0  0  0  0  0  0  0  0  0  0  0  0
  -92.7002   33.6246   -5.0702 C   0  0  0  0  0  0  0  0  0  0  0  0
  -91.5380   32.9028   -5.0165 C   0  0  0  0  0  0  0  0  0  0  0  0
  -87.0139   33.7933   -2.9125 C   0  0  0  0  0  0  0  0  0  0  0  0
  -85.6085   33.3465   -2.6693 N   0  0  0  0  0  0  0  0  0  0  0  0
  -85.1996   33.3697   -1.3040 C   0  0  0  0  0  0  0  0  0  0  0  0
  -85.9319   33.7332   -0.3593 O   0  0  0  0  0  0  0  0  0  0  0  0
  -85.0274   33.0558   -3.4537 H   0  0  0  0  0  0  0  0  0  0  0  0
  -83.8995   32.9677   -0.9358 O   0  0  0  0  0  0  0  0  0  0  0  0
  -83.4286   32.9106    0.3707 C   0  0  0  0  0  0  0  0  0  0  0  0
  -83.6329   31.6557    1.0863 C   0  0  0  0  0  0  0  0  0  0  0  0
  -82.6635   30.6847    1.0627 C   0  0  0  0  0  0  0  0  0  0  0  0
  -82.8431   29.4773    1.7431 C   0  0  0  0  0  0  0  0  0  0  0  0
  -83.9955   29.2232    2.4561 C   0  0  0  0  0  0  0  0  0  0  0  0
  -84.9687   30.1960    2.4795 C   0  0  0  0  0  0  0  0  0  0  0  0
  -84.7890   31.3936    1.8049 C   0  0  0  0  0  0  0  0  0  0  0  0
  -86.9914   34.9190   -3.8686 C   0  0  0  0  0  0  0  0  0  0  0  0
  -88.2205   35.4082   -4.4643 C   0  0  0  0  0  0  0  0  0  0  0  0
  -89.1881   35.9876   -3.6254 C   0  0  0  0  0  0  0  0  0  0  0  0
  -90.3545   36.5285   -4.1069 C   0  0  0  0  0  0  0  0  0  0  0  0
  -90.6225   36.5229   -5.4558 C   0  0  0  0  0  0  0  0  0  0  0  0
  -89.7063   35.9694   -6.2989 C   0  0  0  0  0  0  0  0  0  0  0  0
  -88.5304   35.4250   -5.8049 C   0  0  0  0  0  0  0  0  0  0  0  0
 17 18  1  0  0  0
 18 19  1  0  0  0
 18 16  1  0  0  0
 16 10  1  0  0  0
 10  6  1  0  0  0
  6  7  1  0  0  0
  7  8  2  0  0  0
  7  5  1  0  0  0
  5 20  1  0  0  0
 20 21  1  0  0  0
 21 22  2  0  0  0
 22 23  1  0  0  0
 23 24  2  0  0  0
 24 25  1  0  0  0
 25 26  2  0  0  0
  5  1  1  0  0  0
  1  2  1  0  0  0
  2  3  2  0  0  0
  2 27  1  0  0  0
 27 40  1  0  0  0
 40 41  1  0  0  0
 41 42  2  0  0  0
 42 43  1  0  0  0
 43 44  2  0  0  0
 44 45  1  0  0  0
 45 46  2  0  0  0
 27 28  1  0  0  0
 28 29  1  0  0  0
 29 30  2  0  0  0
 29 32  1  0  0  0
 32 33  1  0  0  0
 33 34  1  0  0  0
 34 35  2  0  0  0
 35 36  1  0  0  0
 36 37  2  0  0  0
 37 38  1  0  0  0
 38 39  2  0  0  0
 10 11  1  0  0  0
 11 12  1  0  0  0
 11 13  2  0  0  0
 26 21  1  0  0  0
 46 41  1  0  0  0
 39 34  1  0  0  0
  6  9  1  0  0  0
  1  4  1  0  0  0
 28 31  1  0  0  0
 12 14  1  0  0  0
 12 15  1  0  0  0
M  END
> <minimizedAffinity>
-8.37904

> <CNNscore>
0.2713490427

> <CNNaffinity>
6.8421278000

> <CNN_VS>
1.8566048145

> <CNNaffinity_variance>
0.4184263647

$$$$
[H]c1c([H])c([H])c(C([H])([H])OC(=O)N([H])[C@]([H])(C(=O)N([H])[C@]([H])(C(=O)N([H])[C@]([H])(C(=O)N([H])[H])C([H])([H])C([H])(C([H])([H])[H])C([H])([H])[H])C([H])([H])c2c([H])c([H])c([H])c([H])c2[H])C([H])([H])c2c([H])c([H])c([H])c([H])c2[H])c([H])c1[H]


 46 48  0  0  0  0  0  0  0  0999 V2000
  -89.2994   28.8588   -0.8891 N   0  0  0  0  0  0  0  0  0  0  0  0
  -88.9505   27.6071   -0.3664 C   0  0  0  0  0  0  0  0  0  0  0  0
  -88.9838   26.5864   -1.1452 O   0  0  0  0  0  0  0  0  0  0  0  0
  -89.2761   29.6980   -0.2198 H   0  0  0  0  0  0  0  0  0  0  0  0
  -89.7133   29.1102   -2.2330 C   0  0  0  0  0  0  0  0  0  0  0  0
  -88.8676   31.3191   -3.1154 N   0  0  0  0  0  0  0  0  0  0  0  0
  -88.7609   29.9220   -2.9929 C   0  0  0  0  0  0  0  0  0  0  0  0
  -87.7889   29.3929   -3.5877 O   0  0  0  0  0  0  0  0  0  0  0  0
  -89.6176   31.8688   -2.6785 H   0  0  0  0  0  0  0  0  0  0  0  0
  -87.8687   32.0946   -3.9104 C   0  0  0  0  0  0  0  0  0  0  0  0
  -87.3005   33.0527   -2.9649 C   0  0  0  0  0  0  0  0  0  0  0  0
  -86.1898   33.8429   -3.3239 N   0  0  0  0  0  0  0  0  0  0  0  0
  -87.7925   33.1804   -1.8229 O   0  0  0  0  0  0  0  0  0  0  0  0
  -85.7193   34.4449   -2.6223 H   0  0  0  0  0  0  0  0  0  0  0  0
  -85.8176   33.8421   -4.2941 H   0  0  0  0  0  0  0  0  0  0  0  0
  -88.6700   32.6447   -5.0361 C   0  0  0  0  0  0  0  0  0  0  0  0
  -89.1707   35.0830   -5.4142 C   0  0  0  0  0  0  0  0  0  0  0  0
  -89.5642   33.7891   -4.8080 C   0  0  0  0  0  0  0  0  0  0  0  0
  -91.0142   33.4896   -5.1817 C   0  0  0  0  0  0  0  0  0  0  0  0
  -91.1563   29.2885   -2.4602 C   0  0  0  0  0  0  0  0  0  0  0  0
  -91.8193   28.7869   -3.6426 C   0  0  0  0  0  0  0  0  0  0  0  0
  -92.2454   29.6861   -4.6156 C   0  0  0  0  0  0  0  0  0  0  0  0
  -92.9042   29.2810   -5.7467 C   0  0  0  0  0  0  0  0  0  0  0  0
  -93.1640   27.9543   -5.9502 C   0  0  0  0  0  0  0  0  0  0  0  0
  -92.7463   27.0609   -4.9931 C   0  0  0  0  0  0  0  0  0  0  0  0
  -92.0880   27.4603   -3.8610 C   0  0  0  0  0  0  0  0  0  0  0  0
  -88.5551   27.4152    1.0446 C   0  0  0  0  0  0  0  0  0  0  0  0
  -87.4123   28.3522    1.2679 N   0  0  0  0  0  0  0  0  0  0  0  0
  -86.2638   27.7637    1.8734 C   0  0  0  0  0  0  0  0  0  0  0  0
  -86.1859   26.5625    2.2078 O   0  0  0  0  0  0  0  0  0  0  0  0
  -87.4969   29.3284    0.9897 H   0  0  0  0  0  0  0  0  0  0  0  0
  -85.1136   28.5359    2.1349 O   0  0  0  0  0  0  0  0  0  0  0  0
  -85.1229   29.8913    2.4422 C   0  0  0  0  0  0  0  0  0  0  0  0
  -84.4553   30.7815    1.4985 C   0  0  0  0  0  0  0  0  0  0  0  0
  -85.1943   31.6276    0.7104 C   0  0  0  0  0  0  0  0  0  0  0  0
  -84.5706   32.4869   -0.1983 C   0  0  0  0  0  0  0  0  0  0  0  0
  -83.1986   32.5115   -0.3325 C   0  0  0  0  0  0  0  0  0  0  0  0
  -82.4567   31.6626    0.4569 C   0  0  0  0  0  0  0  0  0  0  0  0
  -83.0765   30.8114    1.3584 C   0  0  0  0  0  0  0  0  0  0  0  0
  -89.6076   27.7108    2.0379 C   0  0  0  0  0  0  0  0  0  0  0  0
  -89.6221   27.0375    3.3229 C   0  0  0  0  0  0  0  0  0  0  0  0
  -89.2131   25.6939    3.3806 C   0  0  0  0  0  0  0  0  0  0  0  0
  -89.1397   24.9943    4.5596 C   0  0  0  0  0  0  0  0  0  0  0  0
  -89.4701   25.5966    5.7511 C   0  0  0  0  0  0  0  0  0  0  0  0
  -89.8707   26.8988    5.7327 C   0  0  0  0  0  0  0  0  0  0  0  0
  -89.9424   27.5988    4.5377 C   0  0  0  0  0  0  0  0  0  0  0  0
 17 18  1  0  0  0
 18 19  1  0  0  0
 18 16  1  0  0  0
 16 10  1  0  0  0
 10  6  1  0  0  0
  6  7  1  0  0  0
  7  8  2  0  0  0
  7  5  1  0  0  0
  5 20  1  0  0  0
 20 21  1  0  0  0
 21 22  2  0  0  0
 22 23  1  0  0  0
 23 24  2  0  0  0
 24 25  1  0  0  0
 25 26  2  0  0  0
  5  1  1  0  0  0
  1  2  1  0  0  0
  2  3  2  0  0  0
  2 27  1  0  0  0
 27 40  1  0  0  0
 40 41  1  0  0  0
 41 42  2  0  0  0
 42 43  1  0  0  0
 43 44  2  0  0  0
 44 45  1  0  0  0
 45 46  2  0  0  0
 27 28  1  0  0  0
 28 29  1  0  0  0
 29 30  2  0  0  0
 29 32  1  0  0  0
 32 33  1  0  0  0
 33 34  1  0  0  0
 34 35  2  0  0  0
 35 36  1  0  0  0
 36 37  2  0  0  0
 37 38  1  0  0  0
 38 39  2  0  0  0
 10 11  1  0  0  0
 11 12  1  0  0  0
 11 13  2  0  0  0
 26 21  1  0  0  0
 46 41  1  0  0  0
 39 34  1  0  0  0
  6  9  1  0  0  0
  1  4  1  0  0  0
 28 31  1  0  0  0
 12 14  1  0  0  0
 12 15  1  0  0  0
M  END
> <minimizedAffinity>
-8.71498

> <CNNscore>
0.2237270623

> <CNNaffinity>
6.7895073891

> <CNN_VS>
1.5189965963

> <CNNaffinity_variance>
0.5715098381

$$$$
[H]c1c([H])c([H])c(C([H])([H])OC(=O)N([H])[C@]([H])(C(=O)N([H])[C@]([H])(C(=O)N([H])[C@]([H])(C(=O)N([H])[H])C([H])([H])C([H])(C([H])([H])[H])C([H])([H])[H])C([H])([H])c2c([H])c([H])c([H])c([H])c2[H])C([H])([H])c2c([H])c([H])c([H])c([H])c2[H])c([H])c1[H]


 46 48  0  0  0  0  0  0  0  0999 V2000
  -87.5885   29.1200    0.5107 N   0  0  0  0  0  0  0  0  0  0  0  0
  -87.9038   28.9269   -0.8402 C   0  0  0  0  0  0  0  0  0  0  0  0
  -87.4588   27.8763   -1.4298 O   0  0  0  0  0  0  0  0  0  0  0  0
  -87.9604   30.0095    0.9830 H   0  0  0  0  0  0  0  0  0  0  0  0
  -86.7873   28.2467    1.3083 C   0  0  0  0  0  0  0  0  0  0  0  0
  -88.8424   26.7858    1.4323 N   0  0  0  0  0  0  0  0  0  0  0  0
  -87.5143   27.0728    1.7954 C   0  0  0  0  0  0  0  0  0  0  0  0
  -86.9731   26.2565    2.5823 O   0  0  0  0  0  0  0  0  0  0  0  0
  -89.3948   27.3758    0.7980 H   0  0  0  0  0  0  0  0  0  0  0  0
  -89.5359   25.5757    1.9670 C   0  0  0  0  0  0  0  0  0  0  0  0
  -89.9397   24.8216    0.7823 C   0  0  0  0  0  0  0  0  0  0  0  0
  -88.9901   24.0954    0.0355 N   0  0  0  0  0  0  0  0  0  0  0  0
  -91.1346   24.8148    0.4154 O   0  0  0  0  0  0  0  0  0  0  0  0
  -89.2527   23.6479   -0.8626 H   0  0  0  0  0  0  0  0  0  0  0  0
  -88.0098   23.9910    0.3644 H   0  0  0  0  0  0  0  0  0  0  0  0
  -90.6195   26.1405    2.8147 C   0  0  0  0  0  0  0  0  0  0  0  0
  -89.4715   25.3026    4.8929 C   0  0  0  0  0  0  0  0  0  0  0  0
  -90.4337   26.2418    4.2696 C   0  0  0  0  0  0  0  0  0  0  0  0
  -90.1039   27.6614    4.7256 C   0  0  0  0  0  0  0  0  0  0  0  0
  -85.7747   28.8776    2.1699 C   0  0  0  0  0  0  0  0  0  0  0  0
  -84.8021   29.8162    1.6581 C   0  0  0  0  0  0  0  0  0  0  0  0
  -83.4492   29.4964    1.7240 C   0  0  0  0  0  0  0  0  0  0  0  0
  -82.4737   30.3515    1.2828 C   0  0  0  0  0  0  0  0  0  0  0  0
  -82.8145   31.5659    0.7555 C   0  0  0  0  0  0  0  0  0  0  0  0
  -84.1488   31.8884    0.6876 C   0  0  0  0  0  0  0  0  0  0  0  0
  -85.1274   31.0378    1.1274 C   0  0  0  0  0  0  0  0  0  0  0  0
  -88.7193   29.8872   -1.6129 C   0  0  0  0  0  0  0  0  0  0  0  0
  -90.0691   29.2564   -1.7322 N   0  0  0  0  0  0  0  0  0  0  0  0
  -90.6927   29.4107   -3.0046 C   0  0  0  0  0  0  0  0  0  0  0  0
  -90.1812   30.0226   -3.9661 O   0  0  0  0  0  0  0  0  0  0  0  0
  -90.4691   28.7636   -0.9356 H   0  0  0  0  0  0  0  0  0  0  0  0
  -91.9662   28.8591   -3.2528 O   0  0  0  0  0  0  0  0  0  0  0  0
  -92.5334   28.7120   -4.5131 C   0  0  0  0  0  0  0  0  0  0  0  0
  -93.0588   27.3920   -4.8450 C   0  0  0  0  0  0  0  0  0  0  0  0
  -93.0855   26.4032   -3.8938 C   0  0  0  0  0  0  0  0  0  0  0  0
  -93.5858   25.1336   -4.1950 C   0  0  0  0  0  0  0  0  0  0  0  0
  -94.0658   24.8343   -5.4524 C   0  0  0  0  0  0  0  0  0  0  0  0
  -94.0386   25.8251   -6.4072 C   0  0  0  0  0  0  0  0  0  0  0  0
  -93.5428   27.0843   -6.1070 C   0  0  0  0  0  0  0  0  0  0  0  0
  -88.8750   31.2196   -0.9946 C   0  0  0  0  0  0  0  0  0  0  0  0
  -88.3181   32.3992   -1.6295 C   0  0  0  0  0  0  0  0  0  0  0  0
  -89.1861   33.2609   -2.3222 C   0  0  0  0  0  0  0  0  0  0  0  0
  -88.7584   34.4286   -2.9041 C   0  0  0  0  0  0  0  0  0  0  0  0
  -87.4377   34.8045   -2.8275 C   0  0  0  0  0  0  0  0  0  0  0  0
  -86.5678   33.9930   -2.1631 C   0  0  0  0  0  0  0  0  0  0  0  0
  -87.0074   32.8151   -1.5780 C   0  0  0  0  0  0  0  0  0  0  0  0
 17 18  1  0  0  0
 18 19  1  0  0  0
 18 16  1  0  0  0
 16 10  1  0  0  0
 10  6  1  0  0  0
  6  7  1  0  0  0
  7  8  2  0  0  0
  7  5  1  0  0  0
  5 20  1  0  0  0
 20 21  1  0  0  0
 21 22  2  0  0  0
 22 23  1  0  0  0
 23 24  2  0  0  0
 24 25  1  0  0  0
 25 26  2  0  0  0
  5  1  1  0  0  0
  1  2  1  0  0  0
  2  3  2  0  0  0
  2 27  1  0  0  0
 27 40  1  0  0  0
 40 41  1  0  0  0
 41 42  2  0  0  0
 42 43  1  0  0  0
 43 44  2  0  0  0
 44 45  1  0  0  0
 45 46  2  0  0  0
 27 28  1  0  0  0
 28 29  1  0  0  0
 29 30  2  0  0  0
 29 32  1  0  0  0
 32 33  1  0  0  0
 33 34  1  0  0  0
 34 35  2  0  0  0
 35 36  1  0  0  0
 36 37  2  0  0  0
 37 38  1  0  0  0
 38 39  2  0  0  0
 10 11  1  0  0  0
 11 12  1  0  0  0
 11 13  2  0  0  0
 26 21  1  0  0  0
 46 41  1  0  0  0
 39 34  1  0  0  0
  6  9  1  0  0  0
  1  4  1  0  0  0
 28 31  1  0  0  0
 12 14  1  0  0  0
 12 15  1  0  0  0
M  END
> <minimizedAffinity>
-8.88442

> <CNNscore>
0.2167722434

> <CNNaffinity>
6.8926301003

> <CNN_VS>
1.4941308498

> <CNNaffinity_variance>
0.2393621504

$$$$
[H]c1c([H])c([H])c(C([H])([H])OC(=O)N([H])[C@]([H])(C(=O)N([H])[C@]([H])(C(=O)N([H])[C@]([H])(C(=O)N([H])[H])C([H])([H])C([H])(C([H])([H])[H])C([H])([H])[H])C([H])([H])c2c([H])c([H])c([H])c([H])c2[H])C([H])([H])c2c([H])c([H])c([H])c([H])c2[H])c([H])c1[H]


 46 48  0  0  0  0  0  0  0  0999 V2000
  -89.4043   27.4066   -0.6196 N   0  0  0  0  0  0  0  0  0  0  0  0
  -88.1085   27.3908   -0.0884 C   0  0  0  0  0  0  0  0  0  0  0  0
  -87.1171   27.5715   -0.8845 O   0  0  0  0  0  0  0  0  0  0  0  0
  -90.2193   27.2428    0.0599 H   0  0  0  0  0  0  0  0  0  0  0  0
  -89.7337   27.5932   -1.9970 C   0  0  0  0  0  0  0  0  0  0  0  0
  -88.6406   29.7396   -2.7526 N   0  0  0  0  0  0  0  0  0  0  0  0
  -89.7834   29.0005   -2.3979 C   0  0  0  0  0  0  0  0  0  0  0  0
  -90.8730   29.6248   -2.4365 O   0  0  0  0  0  0  0  0  0  0  0  0
  -87.6921   29.3448   -2.7593 H   0  0  0  0  0  0  0  0  0  0  0  0
  -88.7519   31.1760   -3.1469 C   0  0  0  0  0  0  0  0  0  0  0  0
  -88.5091   31.1886   -4.5877 C   0  0  0  0  0  0  0  0  0  0  0  0
  -89.4368   31.7830   -5.4668 N   0  0  0  0  0  0  0  0  0  0  0  0
  -87.4744   30.6682   -5.0581 O   0  0  0  0  0  0  0  0  0  0  0  0
  -89.3205   31.7004   -6.4943 H   0  0  0  0  0  0  0  0  0  0  0  0
  -90.2546   32.3153   -5.1096 H   0  0  0  0  0  0  0  0  0  0  0  0
  -87.7489   31.8538   -2.2830 C   0  0  0  0  0  0  0  0  0  0  0  0
  -86.7517   34.1344   -2.6614 C   0  0  0  0  0  0  0  0  0  0  0  0
  -87.8285   33.3062   -2.0691 C   0  0  0  0  0  0  0  0  0  0  0  0
  -89.1800   33.8899   -2.4749 C   0  0  0  0  0  0  0  0  0  0  0  0
  -90.6888   26.6408   -2.5856 C   0  0  0  0  0  0  0  0  0  0  0  0
  -90.9242   25.3329   -2.0173 C   0  0  0  0  0  0  0  0  0  0  0  0
  -89.8544   24.4560   -1.8646 C   0  0  0  0  0  0  0  0  0  0  0  0
  -90.0117   23.1922   -1.3589 C   0  0  0  0  0  0  0  0  0  0  0  0
  -91.2511   22.7537   -0.9840 C   0  0  0  0  0  0  0  0  0  0  0  0
  -92.3122   23.6145   -1.1324 C   0  0  0  0  0  0  0  0  0  0  0  0
  -92.1606   24.8780   -1.6375 C   0  0  0  0  0  0  0  0  0  0  0  0
  -87.8389   27.1664    1.3473 C   0  0  0  0  0  0  0  0  0  0  0  0
  -86.9921   28.3204    1.7777 N   0  0  0  0  0  0  0  0  0  0  0  0
  -85.6835   27.9711    2.2220 C   0  0  0  0  0  0  0  0  0  0  0  0
  -85.2470   26.8014    2.2651 O   0  0  0  0  0  0  0  0  0  0  0  0
  -87.3677   29.2663    1.7365 H   0  0  0  0  0  0  0  0  0  0  0  0
  -84.7806   28.9653    2.6508 O   0  0  0  0  0  0  0  0  0  0  0  0
  -83.6584   29.3752    1.9406 C   0  0  0  0  0  0  0  0  0  0  0  0
  -83.7927   30.5939    1.1498 C   0  0  0  0  0  0  0  0  0  0  0  0
  -82.6979   31.1277    0.5176 C   0  0  0  0  0  0  0  0  0  0  0  0
  -82.8093   32.2942   -0.2441 C   0  0  0  0  0  0  0  0  0  0  0  0
  -84.0173   32.9441   -0.3835 C   0  0  0  0  0  0  0  0  0  0  0  0
  -85.1155   32.4099    0.2509 C   0  0  0  0  0  0  0  0  0  0  0  0
  -85.0039   31.2523    1.0054 C   0  0  0  0  0  0  0  0  0  0  0  0
  -89.0363   27.1129    2.2107 C   0  0  0  0  0  0  0  0  0  0  0  0
  -89.6098   25.8391    2.6019 C   0  0  0  0  0  0  0  0  0  0  0  0
  -89.1891   25.2570    3.8102 C   0  0  0  0  0  0  0  0  0  0  0  0
  -89.7181   24.0837    4.2883 C   0  0  0  0  0  0  0  0  0  0  0  0
  -90.6994   23.4230    3.5870 C   0  0  0  0  0  0  0  0  0  0  0  0
  -91.1317   23.9587    2.4112 C   0  0  0  0  0  0  0  0  0  0  0  0
  -90.5925   25.1442    1.9348 C   0  0  0  0  0  0  0  0  0  0  0  0
 17 18  1  0  0  0
 18 19  1  0  0  0
 18 16  1  0  0  0
 16 10  1  0  0  0
 10  6  1  0  0  0
  6  7  1  0  0  0
  7  8  2  0  0  0
  7  5  1  0  0  0
  5 20  1  0  0  0
 20 21  1  0  0  0
 21 22  2  0  0  0
 22 23  1  0  0  0
 23 24  2  0  0  0
 24 25  1  0  0  0
 25 26  2  0  0  0
  5  1  1  0  0  0
  1  2  1  0  0  0
  2  3  2  0  0  0
  2 27  1  0  0  0
 27 40  1  0  0  0
 40 41  1  0  0  0
 41 42  2  0  0  0
 42 43  1  0  0  0
 43 44  2  0  0  0
 44 45  1  0  0  0
 45 46  2  0  0  0
 27 28  1  0  0  0
 28 29  1  0  0  0
 29 30  2  0  0  0
 29 32  1  0  0  0
 32 33  1  0  0  0
 33 34  1  0  0  0
 34 35  2  0  0  0
 35 36  1  0  0  0
 36 37  2  0  0  0
 37 38  1  0  0  0
 38 39  2  0  0  0
 10 11  1  0  0  0
 11 12  1  0  0  0
 11 13  2  0  0  0
 26 21  1  0  0  0
 46 41  1  0  0  0
 39 34  1  0  0  0
  6  9  1  0  0  0
  1  4  1  0  0  0
 28 31  1  0  0  0
 12 14  1  0  0  0
 12 15  1  0  0  0
M  END
> <minimizedAffinity>
-8.90461

> <CNNscore>
0.2069742978

> <CNNaffinity>
6.9166898727

> <CNN_VS>
1.4315770864

> <CNNaffinity_variance>
0.3935349584

$$$$
[H]c1c([H])c([H])c(C([H])([H])OC(=O)N([H])[C@]([H])(C(=O)N([H])[C@]([H])(C(=O)N([H])[C@]([H])(C(=O)N([H])[H])C([H])([H])C([H])(C([H])([H])[H])C([H])([H])[H])C([H])([H])c2c([H])c([H])c([H])c([H])c2[H])C([H])([H])c2c([H])c([H])c([H])c([H])c2[H])c([H])c1[H]


 46 48  0  0  0  0  0  0  0  0999 V2000
  -88.0561   30.8534   -1.2627 N   0  0  0  0  0  0  0  0  0  0  0  0
  -88.2055   32.2080   -0.9398 C   0  0  0  0  0  0  0  0  0  0  0  0
  -89.3161   32.5970   -0.4251 O   0  0  0  0  0  0  0  0  0  0  0  0
  -87.1248   30.5497   -1.7022 H   0  0  0  0  0  0  0  0  0  0  0  0
  -89.0507   29.8437   -1.0840 C   0  0  0  0  0  0  0  0  0  0  0  0
  -89.7612   28.0938    0.5911 N   0  0  0  0  0  0  0  0  0  0  0  0
  -88.7992   28.9770    0.0690 C   0  0  0  0  0  0  0  0  0  0  0  0
  -87.6903   28.9902    0.6595 O   0  0  0  0  0  0  0  0  0  0  0  0
  -90.7055   27.9912    0.1996 H   0  0  0  0  0  0  0  0  0  0  0  0
  -89.4496   27.2379    1.7750 C   0  0  0  0  0  0  0  0  0  0  0  0
  -88.9584   25.9828    1.2106 C   0  0  0  0  0  0  0  0  0  0  0  0
  -87.5900   25.8144    0.9175 N   0  0  0  0  0  0  0  0  0  0  0  0
  -89.7492   25.0430    0.9781 O   0  0  0  0  0  0  0  0  0  0  0  0
  -87.2553   24.9680    0.4201 H   0  0  0  0  0  0  0  0  0  0  0  0
  -86.8873   26.5294    1.1910 H   0  0  0  0  0  0  0  0  0  0  0  0
  -90.7361   27.1905    2.5196 C   0  0  0  0  0  0  0  0  0  0  0  0
  -90.3055   25.7530    4.5413 C   0  0  0  0  0  0  0  0  0  0  0  0
  -90.7304   27.0588    3.9839 C   0  0  0  0  0  0  0  0  0  0  0  0
  -89.9423   28.1700    4.6740 C   0  0  0  0  0  0  0  0  0  0  0  0
  -89.6395   29.2692   -2.3042 C   0  0  0  0  0  0  0  0  0  0  0  0
  -90.9211   29.6964   -2.8180 C   0  0  0  0  0  0  0  0  0  0  0  0
  -91.6646   28.8202   -3.6030 C   0  0  0  0  0  0  0  0  0  0  0  0
  -92.8736   29.1704   -4.1444 C   0  0  0  0  0  0  0  0  0  0  0  0
  -93.3893   30.4167   -3.9207 C   0  0  0  0  0  0  0  0  0  0  0  0
  -92.6600   31.2872   -3.1465 C   0  0  0  0  0  0  0  0  0  0  0  0
  -91.4513   30.9424   -2.6035 C   0  0  0  0  0  0  0  0  0  0  0  0
  -87.1408   33.2053   -1.1760 C   0  0  0  0  0  0  0  0  0  0  0  0
  -85.8660   32.4256   -1.2076 N   0  0  0  0  0  0  0  0  0  0  0  0
  -84.7822   33.0193   -0.4971 C   0  0  0  0  0  0  0  0  0  0  0  0
  -84.8560   34.1074    0.1122 O   0  0  0  0  0  0  0  0  0  0  0  0
  -85.8264   31.5415   -1.7118 H   0  0  0  0  0  0  0  0  0  0  0  0
  -83.5244   32.3847   -0.4429 O   0  0  0  0  0  0  0  0  0  0  0  0
  -82.8586   32.0456    0.7290 C   0  0  0  0  0  0  0  0  0  0  0  0
  -83.4194   30.9456    1.5063 C   0  0  0  0  0  0  0  0  0  0  0  0
  -82.7702   29.7376    1.5563 C   0  0  0  0  0  0  0  0  0  0  0  0
  -83.2935   28.6739    2.2963 C   0  0  0  0  0  0  0  0  0  0  0  0
  -84.4744   28.8027    2.9962 C   0  0  0  0  0  0  0  0  0  0  0  0
  -85.1267   30.0136    2.9459 C   0  0  0  0  0  0  0  0  0  0  0  0
  -84.6061   31.0682    2.2122 C   0  0  0  0  0  0  0  0  0  0  0  0
  -87.2597   33.9648   -2.4373 C   0  0  0  0  0  0  0  0  0  0  0  0
  -88.2754   33.6213   -3.4146 C   0  0  0  0  0  0  0  0  0  0  0  0
  -89.4251   34.4257   -3.4980 C   0  0  0  0  0  0  0  0  0  0  0  0
  -90.4105   34.2112   -4.4296 C   0  0  0  0  0  0  0  0  0  0  0  0
  -90.3047   33.1802   -5.3336 C   0  0  0  0  0  0  0  0  0  0  0  0
  -89.2030   32.3801   -5.2820 C   0  0  0  0  0  0  0  0  0  0  0  0
  -88.2119   32.6031   -4.3380 C   0  0  0  0  0  0  0  0  0  0  0  0
 17 18  1  0  0  0
 18 19  1  0  0  0
 18 16  1  0  0  0
 16 10  1  0  0  0
 10  6  1  0  0  0
  6  7  1  0  0  0
  7  8  2  0  0  0
  7  5  1  0  0  0
  5 20  1  0  0  0
 20 21  1  0  0  0
 21 22  2  0  0  0
 22 23  1  0  0  0
 23 24  2  0  0  0
 24 25  1  0  0  0
 25 26  2  0  0  0
  5  1  1  0  0  0
  1  2  1  0  0  0
  2  3  2  0  0  0
  2 27  1  0  0  0
 27 40  1  0  0  0
 40 41  1  0  0  0
 41 42  2  0  0  0
 42 43  1  0  0  0
 43 44  2  0  0  0
 44 45  1  0  0  0
 45 46  2  0  0  0
 27 28  1  0  0  0
 28 29  1  0  0  0
 29 30  2  0  0  0
 29 32  1  0  0  0
 32 33  1  0  0  0
 33 34  1  0  0  0
 34 35  2  0  0  0
 35 36  1  0  0  0
 36 37  2  0  0  0
 37 38  1  0  0  0
 38 39  2  0  0  0
 10 11  1  0  0  0
 11 12  1  0  0  0
 11 13  2  0  0  0
 26 21  1  0  0  0
 46 41  1  0  0  0
 39 34  1  0  0  0
  6  9  1  0  0  0
  1  4  1  0  0  0
 28 31  1  0  0  0
 12 14  1  0  0  0
 12 15  1  0  0  0
M  END
> <minimizedAffinity>
-8.48549

> <CNNscore>
0.1499807537

> <CNNaffinity>
6.6388673782

> <CNN_VS>
0.9957023263

> <CNNaffinity_variance>
0.5625451803

$$$$
[H]c1c([H])c([H])c(C([H])([H])OC(=O)N([H])[C@]([H])(C(=O)N([H])[C@]([H])(C(=O)N([H])[C@]([H])(C(=O)N([H])[H])C([H])([H])C([H])(C([H])([H])[H])C([H])([H])[H])C([H])([H])c2c([H])c([H])c([H])c([H])c2[H])C([H])([H])c2c([H])c([H])c([H])c([H])c2[H])c([H])c1[H]


 46 48  0  0  0  0  0  0  0  0999 V2000
  -90.9896   29.1085   -1.6082 N   0  0  0  0  0  0  0  0  0  0  0  0
  -90.1922   27.9717   -1.4250 C   0  0  0  0  0  0  0  0  0  0  0  0
  -89.6926   27.3997   -2.4608 O   0  0  0  0  0  0  0  0  0  0  0  0
  -91.4071   29.5660   -0.7312 H   0  0  0  0  0  0  0  0  0  0  0  0
  -91.3200   29.6955   -2.8678 C   0  0  0  0  0  0  0  0  0  0  0  0
  -89.4317   31.3633   -2.7078 N   0  0  0  0  0  0  0  0  0  0  0  0
  -90.7547   31.0335   -3.0524 C   0  0  0  0  0  0  0  0  0  0  0  0
  -91.4451   31.9678   -3.5310 O   0  0  0  0  0  0  0  0  0  0  0  0
  -88.7678   30.6897   -2.3063 H   0  0  0  0  0  0  0  0  0  0  0  0
  -88.9117   32.7485   -2.9127 C   0  0  0  0  0  0  0  0  0  0  0  0
  -87.9624   32.6323   -4.0174 C   0  0  0  0  0  0  0  0  0  0  0  0
  -87.3838   33.7828   -4.5905 N   0  0  0  0  0  0  0  0  0  0  0  0
  -87.6544   31.5084   -4.4695 O   0  0  0  0  0  0  0  0  0  0  0  0
  -86.7939   33.7113   -5.4407 H   0  0  0  0  0  0  0  0  0  0  0  0
  -87.5327   34.7248   -4.1779 H   0  0  0  0  0  0  0  0  0  0  0  0
  -88.3620   33.1155   -1.5804 C   0  0  0  0  0  0  0  0  0  0  0  0
  -86.0973   33.5164   -0.5561 C   0  0  0  0  0  0  0  0  0  0  0  0
  -87.0701   32.5657   -1.1444 C   0  0  0  0  0  0  0  0  0  0  0  0
  -87.2231   31.3714   -0.2050 C   0  0  0  0  0  0  0  0  0  0  0  0
  -92.6546   29.3946   -3.4102 C   0  0  0  0  0  0  0  0  0  0  0  0
  -92.8802   28.3254   -4.3563 C   0  0  0  0  0  0  0  0  0  0  0  0
  -92.9229   28.6192   -5.7160 C   0  0  0  0  0  0  0  0  0  0  0  0
  -93.1600   27.6589   -6.6641 C   0  0  0  0  0  0  0  0  0  0  0  0
  -93.3646   26.3606   -6.2880 C   0  0  0  0  0  0  0  0  0  0  0  0
  -93.3242   26.0634   -4.9467 C   0  0  0  0  0  0  0  0  0  0  0  0
  -93.0880   27.0193   -3.9953 C   0  0  0  0  0  0  0  0  0  0  0  0
  -89.9115   27.4022   -0.0905 C   0  0  0  0  0  0  0  0  0  0  0  0
  -88.6050   27.9954    0.3279 N   0  0  0  0  0  0  0  0  0  0  0  0
  -87.5610   27.0505    0.5496 C   0  0  0  0  0  0  0  0  0  0  0  0
  -87.6940   25.8154    0.4175 O   0  0  0  0  0  0  0  0  0  0  0  0
  -88.5181   29.0049    0.4316 H   0  0  0  0  0  0  0  0  0  0  0  0
  -86.2763   27.4775    0.9431 O   0  0  0  0  0  0  0  0  0  0  0  0
  -86.0060   28.2307    2.0795 C   0  0  0  0  0  0  0  0  0  0  0  0
  -85.1803   29.4196    1.8963 C   0  0  0  0  0  0  0  0  0  0  0  0
  -85.2278   30.4381    2.8147 C   0  0  0  0  0  0  0  0  0  0  0  0
  -84.4433   31.5835    2.6545 C   0  0  0  0  0  0  0  0  0  0  0  0
  -83.6006   31.7271    1.5726 C   0  0  0  0  0  0  0  0  0  0  0  0
  -83.5531   30.7064    0.6506 C   0  0  0  0  0  0  0  0  0  0  0  0
  -84.3311   29.5705    0.8112 C   0  0  0  0  0  0  0  0  0  0  0  0
  -90.9195   27.7041    0.9462 C   0  0  0  0  0  0  0  0  0  0  0  0
  -90.6899   27.3359    2.3305 C   0  0  0  0  0  0  0  0  0  0  0  0
  -90.5377   25.9745    2.6459 C   0  0  0  0  0  0  0  0  0  0  0  0
  -90.2607   25.5376    3.9177 C   0  0  0  0  0  0  0  0  0  0  0  0
  -90.1187   26.4358    4.9495 C   0  0  0  0  0  0  0  0  0  0  0  0
  -90.2595   27.7639    4.6799 C   0  0  0  0  0  0  0  0  0  0  0  0
  -90.5393   28.1975    3.3928 C   0  0  0  0  0  0  0  0  0  0  0  0
 17 18  1  0  0  0
 18 19  1  0  0  0
 18 16  1  0  0  0
 16 10  1  0  0  0
 10  6  1  0  0  0
  6  7  1  0  0  0
  7  8  2  0  0  0
  7  5  1  0  0  0
  5 20  1  0  0  0
 20 21  1  0  0  0
 21 22  2  0  0  0
 22 23  1  0  0  0
 23 24  2  0  0  0
 24 25  1  0  0  0
 25 26  2  0  0  0
  5  1  1  0  0  0
  1  2  1  0  0  0
  2  3  2  0  0  0
  2 27  1  0  0  0
 27 40  1  0  0  0
 40 41  1  0  0  0
 41 42  2  0  0  0
 42 43  1  0  0  0
 43 44  2  0  0  0
 44 45  1  0  0  0
 45 46  2  0  0  0
 27 28  1  0  0  0
 28 29  1  0  0  0
 29 30  2  0  0  0
 29 32  1  0  0  0
 32 33  1  0  0  0
 33 34  1  0  0  0
 34 35  2  0  0  0
 35 36  1  0  0  0
 36 37  2  0  0  0
 37 38  1  0  0  0
 38 39  2  0  0  0
 10 11  1  0  0  0
 11 12  1  0  0  0
 11 13  2  0  0  0
 26 21  1  0  0  0
 46 41  1  0  0  0
 39 34  1  0  0  0
  6  9  1  0  0  0
  1  4  1  0  0  0
 28 31  1  0  0  0
 12 14  1  0  0  0
 12 15  1  0  0  0
M  END
> <minimizedAffinity>
-8.51186

> <CNNscore>
0.1388643682

> <CNNaffinity>
6.2844858170

> <CNN_VS>
0.8726911545

> <CNNaffinity_variance>
0.8088165522

$$$$
[H]c1c([H])c([H])c(C(=O)N([H])[C@]([H])(C(=O)N([H])[C@]([H])(C(=O)N([H])[C@]([H])(C(=O)N([H])[H])C([H])([H])C([H])(C([H])([H])[H])C([H])([H])[H])C([H])([H])c2c([H])c([H])c([H])c([H])c2[H])C([H])([H])c2c([H])c([H])c([H])c([H])c2[H])c([H])c1[H]


 44 46  0  0  0  0  0  0  0  0999 V2000
  -87.6570   29.5113   -0.8479 C   0  0  0  0  0  0  0  0  0  0  0  0
  -87.7828   31.8541   -1.8104 N   0  0  0  0  0  0  0  0  0  0  0  0
  -87.7432   30.4568   -1.9854 C   0  0  0  0  0  0  0  0  0  0  0  0
  -87.7828   29.9788   -3.1563 O   0  0  0  0  0  0  0  0  0  0  0  0
  -87.7539   32.2857   -0.8799 H   0  0  0  0  0  0  0  0  0  0  0  0
  -87.8711   32.7756   -2.9712 C   0  0  0  0  0  0  0  0  0  0  0  0
  -86.8538   33.8287   -2.8120 C   0  0  0  0  0  0  0  0  0  0  0  0
  -86.5810   34.7352   -3.8413 N   0  0  0  0  0  0  0  0  0  0  0  0
  -86.2125   33.9218   -1.7419 O   0  0  0  0  0  0  0  0  0  0  0  0
  -86.5073   34.4089   -4.8178 H   0  0  0  0  0  0  0  0  0  0  0  0
  -86.4511   35.7371   -3.6322 H   0  0  0  0  0  0  0  0  0  0  0  0
  -89.2471   33.3644   -2.8812 C   0  0  0  0  0  0  0  0  0  0  0  0
  -90.9315   31.7032   -3.4015 C   0  0  0  0  0  0  0  0  0  0  0  0
  -90.2082   32.9647   -3.9369 C   0  0  0  0  0  0  0  0  0  0  0  0
  -89.4923   32.5850   -5.2352 C   0  0  0  0  0  0  0  0  0  0  0  0
  -88.8028   28.6274   -0.9131 N   0  0  0  0  0  0  0  0  0  0  0  0
  -90.1150   29.0638   -0.5596 C   0  0  0  0  0  0  0  0  0  0  0  0
  -90.2374   30.2518   -0.1842 O   0  0  0  0  0  0  0  0  0  0  0  0
  -88.6647   27.6528   -1.2248 H   0  0  0  0  0  0  0  0  0  0  0  0
  -91.2478   28.1044   -0.6543 C   0  0  0  0  0  0  0  0  0  0  0  0
  -91.5444   27.7417   -2.0027 N   0  0  0  0  0  0  0  0  0  0  0  0
  -92.6608   28.2241   -2.7106 C   0  0  0  0  0  0  0  0  0  0  0  0
  -93.4261   29.0321   -2.0782 O   0  0  0  0  0  0  0  0  0  0  0  0
  -90.8925   27.0867   -2.4754 H   0  0  0  0  0  0  0  0  0  0  0  0
  -92.9580   27.8559   -4.0660 C   0  0  0  0  0  0  0  0  0  0  0  0
  -92.8068   28.7807   -5.0749 C   0  0  0  0  0  0  0  0  0  0  0  0
  -93.1071   28.4115   -6.3792 C   0  0  0  0  0  0  0  0  0  0  0  0
  -93.5463   27.1454   -6.6515 C   0  0  0  0  0  0  0  0  0  0  0  0
  -93.6932   26.2220   -5.6162 C   0  0  0  0  0  0  0  0  0  0  0  0
  -93.4042   26.5584   -4.3177 C   0  0  0  0  0  0  0  0  0  0  0  0
  -91.0641   26.9424    0.2667 C   0  0  0  0  0  0  0  0  0  0  0  0
  -90.6490   27.3077    1.6220 C   0  0  0  0  0  0  0  0  0  0  0  0
  -89.5600   26.6430    2.1678 C   0  0  0  0  0  0  0  0  0  0  0  0
  -89.0811   26.8955    3.4292 C   0  0  0  0  0  0  0  0  0  0  0  0
  -89.6997   27.8472    4.1945 C   0  0  0  0  0  0  0  0  0  0  0  0
  -90.7853   28.5272    3.6827 C   0  0  0  0  0  0  0  0  0  0  0  0
  -91.2537   28.2612    2.4139 C   0  0  0  0  0  0  0  0  0  0  0  0
  -86.3368   28.8124   -0.9001 C   0  0  0  0  0  0  0  0  0  0  0  0
  -85.4755   29.0185    0.2785 C   0  0  0  0  0  0  0  0  0  0  0  0
  -85.6601   28.2552    1.4073 C   0  0  0  0  0  0  0  0  0  0  0  0
  -84.8530   28.4335    2.5387 C   0  0  0  0  0  0  0  0  0  0  0  0
  -83.8580   29.3937    2.5089 C   0  0  0  0  0  0  0  0  0  0  0  0
  -83.6719   30.1544    1.3875 C   0  0  0  0  0  0  0  0  0  0  0  0
  -84.4764   29.9613    0.2912 C   0  0  0  0  0  0  0  0  0  0  0  0
 13 14  1  0  0  0
 14 15  1  0  0  0
 14 12  1  0  0  0
 12  6  1  0  0  0
  6  2  1  0  0  0
  2  3  1  0  0  0
  3  4  2  0  0  0
  3  1  1  0  0  0
  1 38  1  0  0  0
 38 39  1  0  0  0
 39 40  2  0  0  0
 40 41  1  0  0  0
 41 42  2  0  0  0
 42 43  1  0  0  0
 43 44  2  0  0  0
  1 16  1  0  0  0
 16 17  1  0  0  0
 17 18  2  0  0  0
 17 20  1  0  0  0
 20 31  1  0  0  0
 31 32  1  0  0  0
 32 33  2  0  0  0
 33 34  1  0  0  0
 34 35  2  0  0  0
 35 36  1  0  0  0
 36 37  2  0  0  0
 20 21  1  0  0  0
 21 22  1  0  0  0
 22 23  2  0  0  0
 22 25  1  0  0  0
 25 26  2  0  0  0
 26 27  1  0  0  0
 27 28  2  0  0  0
 28 29  1  0  0  0
 29 30  2  0  0  0
  6  7  1  0  0  0
  7  8  1  0  0  0
  7  9  2  0  0  0
 44 39  1  0  0  0
 37 32  1  0  0  0
 30 25  1  0  0  0
  2  5  1  0  0  0
 16 19  1  0  0  0
 21 24  1  0  0  0
  8 10  1  0  0  0
  8 11  1  0  0  0
M  END
> <minimizedAffinity>
-7.95983

> <CNNscore>
0.2335302383

> <CNNaffinity>
6.5435018539

> <CNN_VS>
1.5281054974

> <CNNaffinity_variance>
0.4313697815

$$$$
[H]c1c([H])c([H])c(C(=O)N([H])[C@]([H])(C(=O)N([H])[C@]([H])(C(=O)N([H])[C@]([H])(C(=O)N([H])[H])C([H])([H])C([H])(C([H])([H])[H])C([H])([H])[H])C([H])([H])c2c([H])c([H])c([H])c([H])c2[H])C([H])([H])c2c([H])c([H])c([H])c([H])c2[H])c([H])c1[H]


 44 46  0  0  0  0  0  0  0  0999 V2000
  -86.7881   29.1247    0.3600 C   0  0  0  0  0  0  0  0  0  0  0  0
  -88.5205   27.3771    0.9727 N   0  0  0  0  0  0  0  0  0  0  0  0
  -87.1879   27.8339    0.9676 C   0  0  0  0  0  0  0  0  0  0  0  0
  -86.2879   27.1217    1.5006 O   0  0  0  0  0  0  0  0  0  0  0  0
  -89.2826   27.9214    0.5532 H   0  0  0  0  0  0  0  0  0  0  0  0
  -88.8896   26.0789    1.5916 C   0  0  0  0  0  0  0  0  0  0  0  0
  -89.5487   25.2445    0.5725 C   0  0  0  0  0  0  0  0  0  0  0  0
  -88.8310   24.2968   -0.1640 N   0  0  0  0  0  0  0  0  0  0  0  0
  -90.7724   25.3795    0.3498 O   0  0  0  0  0  0  0  0  0  0  0  0
  -87.8971   24.5260   -0.5394 H   0  0  0  0  0  0  0  0  0  0  0  0
  -89.2297   23.3614   -0.3379 H   0  0  0  0  0  0  0  0  0  0  0  0
  -89.8611   26.4405    2.6749 C   0  0  0  0  0  0  0  0  0  0  0  0
  -90.5386   24.4808    3.9272 C   0  0  0  0  0  0  0  0  0  0  0  0
  -89.6752   25.7664    3.9823 C   0  0  0  0  0  0  0  0  0  0  0  0
  -90.1848   26.6300    5.1384 C   0  0  0  0  0  0  0  0  0  0  0  0
  -87.9601   29.7104   -0.2577 N   0  0  0  0  0  0  0  0  0  0  0  0
  -88.2095   29.6027   -1.6589 C   0  0  0  0  0  0  0  0  0  0  0  0
  -87.3651   28.9785   -2.3405 O   0  0  0  0  0  0  0  0  0  0  0  0
  -88.6346   30.2207    0.3346 H   0  0  0  0  0  0  0  0  0  0  0  0
  -89.4358   30.2244   -2.2266 C   0  0  0  0  0  0  0  0  0  0  0  0
  -89.1740   31.4865   -2.8401 N   0  0  0  0  0  0  0  0  0  0  0  0
  -89.1535   32.7046   -2.1358 C   0  0  0  0  0  0  0  0  0  0  0  0
  -89.3836   32.6354   -0.8785 O   0  0  0  0  0  0  0  0  0  0  0  0
  -88.9890   31.4917   -3.8614 H   0  0  0  0  0  0  0  0  0  0  0  0
  -88.8920   33.9728   -2.7556 C   0  0  0  0  0  0  0  0  0  0  0  0
  -87.6290   34.5176   -2.6925 C   0  0  0  0  0  0  0  0  0  0  0  0
  -87.3947   35.7491   -3.2892 C   0  0  0  0  0  0  0  0  0  0  0  0
  -88.4085   36.4068   -3.9294 C   0  0  0  0  0  0  0  0  0  0  0  0
  -89.6817   35.8390   -3.9832 C   0  0  0  0  0  0  0  0  0  0  0  0
  -89.9427   34.6235   -3.4026 C   0  0  0  0  0  0  0  0  0  0  0  0
  -90.1890   29.2670   -3.0918 C   0  0  0  0  0  0  0  0  0  0  0  0
  -91.6328   29.2459   -2.8520 C   0  0  0  0  0  0  0  0  0  0  0  0
  -92.2981   30.4623   -2.7932 C   0  0  0  0  0  0  0  0  0  0  0  0
  -93.6482   30.5698   -2.5702 C   0  0  0  0  0  0  0  0  0  0  0  0
  -94.3839   29.4285   -2.3962 C   0  0  0  0  0  0  0  0  0  0  0  0
  -93.7543   28.2023   -2.4486 C   0  0  0  0  0  0  0  0  0  0  0  0
  -92.3973   28.1120   -2.6734 C   0  0  0  0  0  0  0  0  0  0  0  0
  -86.1553   29.9778    1.4116 C   0  0  0  0  0  0  0  0  0  0  0  0
  -84.8947   30.6287    1.0108 C   0  0  0  0  0  0  0  0  0  0  0  0
  -83.6920   30.1293    1.4523 C   0  0  0  0  0  0  0  0  0  0  0  0
  -82.4817   30.7315    1.0835 C   0  0  0  0  0  0  0  0  0  0  0  0
  -82.5083   31.8438    0.2621 C   0  0  0  0  0  0  0  0  0  0  0  0
  -83.7031   32.3428   -0.1789 C   0  0  0  0  0  0  0  0  0  0  0  0
  -84.8762   31.7353    0.1969 C   0  0  0  0  0  0  0  0  0  0  0  0
 13 14  1  0  0  0
 14 15  1  0  0  0
 14 12  1  0  0  0
 12  6  1  0  0  0
  6  2  1  0  0  0
  2  3  1  0  0  0
  3  4  2  0  0  0
  3  1  1  0  0  0
  1 38  1  0  0  0
 38 39  1  0  0  0
 39 40  2  0  0  0
 40 41  1  0  0  0
 41 42  2  0  0  0
 42 43  1  0  0  0
 43 44  2  0  0  0
  1 16  1  0  0  0
 16 17  1  0  0  0
 17 18  2  0  0  0
 17 20  1  0  0  0
 20 31  1  0  0  0
 31 32  1  0  0  0
 32 33  2  0  0  0
 33 34  1  0  0  0
 34 35  2  0  0  0
 35 36  1  0  0  0
 36 37  2  0  0  0
 20 21  1  0  0  0
 21 22  1  0  0  0
 22 23  2  0  0  0
 22 25  1  0  0  0
 25 26  2  0  0  0
 26 27  1  0  0  0
 27 28  2  0  0  0
 28 29  1  0  0  0
 29 30  2  0  0  0
  6  7  1  0  0  0
  7  8  1  0  0  0
  7  9  2  0  0  0
 44 39  1  0  0  0
 37 32  1  0  0  0
 30 25  1  0  0  0
  2  5  1  0  0  0
 16 19  1  0  0  0
 21 24  1  0  0  0
  8 10  1  0  0  0
  8 11  1  0  0  0
M  END
> <minimizedAffinity>
-8.28968

> <CNNscore>
0.2227713168

> <CNNaffinity>
6.9321670532

> <CNN_VS>
1.5442880392

> <CNNaffinity_variance>
0.1219373345

$$$$
[H]c1c([H])c([H])c(C(=O)N([H])[C@]([H])(C(=O)N([H])[C@]([H])(C(=O)N([H])[C@]([H])(C(=O)N([H])[H])C([H])([H])C([H])(C([H])([H])[H])C([H])([H])[H])C([H])([H])c2c([H])c([H])c([H])c([H])c2[H])C([H])([H])c2c([H])c([H])c([H])c([H])c2[H])c([H])c1[H]


 44 46  0  0  0  0  0  0  0  0999 V2000
  -86.2636   27.7676    1.1212 C   0  0  0  0  0  0  0  0  0  0  0  0
  -88.5228   26.6217    1.0057 N   0  0  0  0  0  0  0  0  0  0  0  0
  -87.2843   26.8294    1.6439 C   0  0  0  0  0  0  0  0  0  0  0  0
  -87.0222   26.1950    2.7070 O   0  0  0  0  0  0  0  0  0  0  0  0
  -88.7783   27.1146    0.1427 H   0  0  0  0  0  0  0  0  0  0  0  0
  -89.5260   25.6753    1.5559 C   0  0  0  0  0  0  0  0  0  0  0  0
  -89.8682   24.6954    0.5109 C   0  0  0  0  0  0  0  0  0  0  0  0
  -88.8753   23.9777   -0.1635 N   0  0  0  0  0  0  0  0  0  0  0  0
  -91.0658   24.4954    0.2093 O   0  0  0  0  0  0  0  0  0  0  0  0
  -88.0154   24.4510   -0.4829 H   0  0  0  0  0  0  0  0  0  0  0  0
  -88.9950   22.9696   -0.3469 H   0  0  0  0  0  0  0  0  0  0  0  0
  -90.7153   26.5306    1.8757 C   0  0  0  0  0  0  0  0  0  0  0  0
  -90.9531   28.3253    3.4851 C   0  0  0  0  0  0  0  0  0  0  0  0
  -90.4584   27.9794    2.0579 C   0  0  0  0  0  0  0  0  0  0  0  0
  -91.2582   28.8225    1.0621 C   0  0  0  0  0  0  0  0  0  0  0  0
  -86.9540   28.8740    0.4908 N   0  0  0  0  0  0  0  0  0  0  0  0
  -87.1861   28.9166   -0.9168 C   0  0  0  0  0  0  0  0  0  0  0  0
  -86.7623   27.9517   -1.5925 O   0  0  0  0  0  0  0  0  0  0  0  0
  -87.2878   29.6545    1.0787 H   0  0  0  0  0  0  0  0  0  0  0  0
  -87.9062   30.0815   -1.4976 C   0  0  0  0  0  0  0  0  0  0  0  0
  -89.3092   29.8493   -1.6214 N   0  0  0  0  0  0  0  0  0  0  0  0
  -89.9895   29.8332   -2.8531 C   0  0  0  0  0  0  0  0  0  0  0  0
  -89.2766   30.0387   -3.8962 O   0  0  0  0  0  0  0  0  0  0  0  0
  -89.8446   29.6837   -0.7477 H   0  0  0  0  0  0  0  0  0  0  0  0
  -91.4011   29.6017   -2.9746 C   0  0  0  0  0  0  0  0  0  0  0  0
  -91.8604   28.3613   -3.3575 C   0  0  0  0  0  0  0  0  0  0  0  0
  -93.2281   28.1562   -3.4791 C   0  0  0  0  0  0  0  0  0  0  0  0
  -94.1018   29.1760   -3.2205 C   0  0  0  0  0  0  0  0  0  0  0  0
  -93.6178   30.4259   -2.8336 C   0  0  0  0  0  0  0  0  0  0  0  0
  -92.2716   30.6578   -2.7051 C   0  0  0  0  0  0  0  0  0  0  0  0
  -87.5549   31.3524   -0.7950 C   0  0  0  0  0  0  0  0  0  0  0  0
  -87.7345   32.5582   -1.6052 C   0  0  0  0  0  0  0  0  0  0  0  0
  -86.6014   33.1549   -2.1398 C   0  0  0  0  0  0  0  0  0  0  0  0
  -86.6431   34.2895   -2.9111 C   0  0  0  0  0  0  0  0  0  0  0  0
  -87.8557   34.8688   -3.1724 C   0  0  0  0  0  0  0  0  0  0  0  0
  -89.0024   34.3016   -2.6567 C   0  0  0  0  0  0  0  0  0  0  0  0
  -88.9428   33.1619   -1.8836 C   0  0  0  0  0  0  0  0  0  0  0  0
  -85.3558   28.1656    2.2399 C   0  0  0  0  0  0  0  0  0  0  0  0
  -84.6504   29.4454    2.0449 C   0  0  0  0  0  0  0  0  0  0  0  0
  -85.0985   30.5812    2.6773 C   0  0  0  0  0  0  0  0  0  0  0  0
  -84.4433   31.8080    2.5069 C   0  0  0  0  0  0  0  0  0  0  0  0
  -83.3297   31.8663    1.6888 C   0  0  0  0  0  0  0  0  0  0  0  0
  -82.8815   30.7382    1.0585 C   0  0  0  0  0  0  0  0  0  0  0  0
  -83.5411   29.5474    1.2409 C   0  0  0  0  0  0  0  0  0  0  0  0
 13 14  1  0  0  0
 14 15  1  0  0  0
 14 12  1  0  0  0
 12  6  1  0  0  0
  6  2  1  0  0  0
  2  3  1  0  0  0
  3  4  2  0  0  0
  3  1  1  0  0  0
  1 38  1  0  0  0
 38 39  1  0  0  0
 39 40  2  0  0  0
 40 41  1  0  0  0
 41 42  2  0  0  0
 42 43  1  0  0  0
 43 44  2  0  0  0
  1 16  1  0  0  0
 16 17  1  0  0  0
 17 18  2  0  0  0
 17 20  1  0  0  0
 20 31  1  0  0  0
 31 32  1  0  0  0
 32 33  2  0  0  0
 33 34  1  0  0  0
 34 35  2  0  0  0
 35 36  1  0  0  0
 36 37  2  0  0  0
 20 21  1  0  0  0
 21 22  1  0  0  0
 22 23  2  0  0  0
 22 25  1  0  0  0
 25 26  2  0  0  0
 26 27  1  0  0  0
 27 28  2  0  0  0
 28 29  1  0  0  0
 29 30  2  0  0  0
  6  7  1  0  0  0
  7  8  1  0  0  0
  7  9  2  0  0  0
 44 39  1  0  0  0
 37 32  1  0  0  0
 30 25  1  0  0  0
  2  5  1  0  0  0
 16 19  1  0  0  0
 21 24  1  0  0  0
  8 10  1  0  0  0
  8 11  1  0  0  0
M  END
> <minimizedAffinity>
-8.76625

> <CNNscore>
0.2222895175

> <CNNaffinity>
6.8825120926

> <CNN_VS>
1.5299103260

> <CNNaffinity_variance>
0.3557685018

$$$$
[H]c1c([H])c([H])c(C(=O)N([H])[C@]([H])(C(=O)N([H])[C@]([H])(C(=O)N([H])[C@]([H])(C(=O)N([H])[H])C([H])([H])C([H])(C([H])([H])[H])C([H])([H])[H])C([H])([H])c2c([H])c([H])c([H])c([H])c2[H])C([H])([H])c2c([H])c([H])c([H])c([H])c2[H])c([H])c1[H]


 44 46  0  0  0  0  0  0  0  0999 V2000
  -86.7783   28.2541    1.1315 C   0  0  0  0  0  0  0  0  0  0  0  0
  -88.7533   26.6931    1.4375 N   0  0  0  0  0  0  0  0  0  0  0  0
  -87.4124   27.0396    1.6955 C   0  0  0  0  0  0  0  0  0  0  0  0
  -86.7121   26.2913    2.4377 O   0  0  0  0  0  0  0  0  0  0  0  0
  -89.3583   27.2703    0.8427 H   0  0  0  0  0  0  0  0  0  0  0  0
  -89.3604   25.4695    2.0195 C   0  0  0  0  0  0  0  0  0  0  0  0
  -89.9499   24.6746    0.9287 C   0  0  0  0  0  0  0  0  0  0  0  0
  -89.1446   23.9830    0.0182 N   0  0  0  0  0  0  0  0  0  0  0  0
  -91.1929   24.6123    0.8015 O   0  0  0  0  0  0  0  0  0  0  0  0
  -88.2997   24.4280   -0.3737 H   0  0  0  0  0  0  0  0  0  0  0  0
  -89.3891   23.0227   -0.2687 H   0  0  0  0  0  0  0  0  0  0  0  0
  -90.4363   25.9795    2.9308 C   0  0  0  0  0  0  0  0  0  0  0  0
  -90.0932   26.9713    5.1140 C   0  0  0  0  0  0  0  0  0  0  0  0
  -90.3077   25.6312    4.3662 C   0  0  0  0  0  0  0  0  0  0  0  0
  -89.0868   24.7448    4.6230 C   0  0  0  0  0  0  0  0  0  0  0  0
  -87.8071   29.0292    0.4687 N   0  0  0  0  0  0  0  0  0  0  0  0
  -87.8394   29.1860   -0.9496 C   0  0  0  0  0  0  0  0  0  0  0  0
  -86.9325   28.6242   -1.6047 O   0  0  0  0  0  0  0  0  0  0  0  0
  -88.5384   29.4810    1.0407 H   0  0  0  0  0  0  0  0  0  0  0  0
  -88.9277   29.9920   -1.5649 C   0  0  0  0  0  0  0  0  0  0  0  0
  -90.1214   29.2350   -1.7646 N   0  0  0  0  0  0  0  0  0  0  0  0
  -90.8463   29.2289   -2.9707 C   0  0  0  0  0  0  0  0  0  0  0  0
  -90.3764   29.9513   -3.9172 O   0  0  0  0  0  0  0  0  0  0  0  0
  -90.4614   28.6612   -0.9693 H   0  0  0  0  0  0  0  0  0  0  0  0
  -92.0477   28.4683   -3.1681 C   0  0  0  0  0  0  0  0  0  0  0  0
  -93.2661   29.0142   -2.8311 C   0  0  0  0  0  0  0  0  0  0  0  0
  -94.4178   28.2623   -3.0198 C   0  0  0  0  0  0  0  0  0  0  0  0
  -94.3366   26.9977   -3.5339 C   0  0  0  0  0  0  0  0  0  0  0  0
  -93.0933   26.4614   -3.8697 C   0  0  0  0  0  0  0  0  0  0  0  0
  -91.9383   27.1810   -3.6943 C   0  0  0  0  0  0  0  0  0  0  0  0
  -89.1344   31.2825   -0.8409 C   0  0  0  0  0  0  0  0  0  0  0  0
  -88.4473   32.4270   -1.4415 C   0  0  0  0  0  0  0  0  0  0  0  0
  -89.1607   33.2174   -2.3315 C   0  0  0  0  0  0  0  0  0  0  0  0
  -88.6234   34.3129   -2.9601 C   0  0  0  0  0  0  0  0  0  0  0  0
  -87.3220   34.6518   -2.7039 C   0  0  0  0  0  0  0  0  0  0  0  0
  -86.5839   33.8877   -1.8242 C   0  0  0  0  0  0  0  0  0  0  0  0
  -87.1387   32.7902   -1.2014 C   0  0  0  0  0  0  0  0  0  0  0  0
  -86.0694   28.9821    2.2276 C   0  0  0  0  0  0  0  0  0  0  0  0
  -84.9148   29.7898    1.7942 C   0  0  0  0  0  0  0  0  0  0  0  0
  -85.1124   31.0420    1.2615 C   0  0  0  0  0  0  0  0  0  0  0  0
  -84.0298   31.8274    0.8436 C   0  0  0  0  0  0  0  0  0  0  0  0
  -82.7473   31.3265    0.9740 C   0  0  0  0  0  0  0  0  0  0  0  0
  -82.5475   30.0813    1.5037 C   0  0  0  0  0  0  0  0  0  0  0  0
  -83.6249   29.3303    1.9056 C   0  0  0  0  0  0  0  0  0  0  0  0
 13 14  1  0  0  0
 14 15  1  0  0  0
 14 12  1  0  0  0
 12  6  1  0  0  0
  6  2  1  0  0  0
  2  3  1  0  0  0
  3  4  2  0  0  0
  3  1  1  0  0  0
  1 38  1  0  0  0
 38 39  1  0  0  0
 39 40  2  0  0  0
 40 41  1  0  0  0
 41 42  2  0  0  0
 42 43  1  0  0  0
 43 44  2  0  0  0
  1 16  1  0  0  0
 16 17  1  0  0  0
 17 18  2  0  0  0
 17 20  1  0  0  0
 20 31  1  0  0  0
 31 32  1  0  0  0
 32 33  2  0  0  0
 33 34  1  0  0  0
 34 35  2  0  0  0
 35 36  1  0  0  0
 36 37  2  0  0  0
 20 21  1  0  0  0
 21 22  1  0  0  0
 22 23  2  0  0  0
 22 25  1  0  0  0
 25 26  2  0  0  0
 26 27  1  0  0  0
 27 28  2  0  0  0
 28 29  1  0  0  0
 29 30  2  0  0  0
  6  7  1  0  0  0
  7  8  1  0  0  0
  7  9  2  0  0  0
 44 39  1  0  0  0
 37 32  1  0  0  0
 30 25  1  0  0  0
  2  5  1  0  0  0
 16 19  1  0  0  0
 21 24  1  0  0  0
  8 10  1  0  0  0
  8 11  1  0  0  0
M  END
> <minimizedAffinity>
-9.10995

> <CNNscore>
0.1887253523

> <CNNaffinity>
6.8267235756

> <CNN_VS>
1.2883758545

> <CNNaffinity_variance>
0.2857099771

$$$$
[H]c1c([H])c([H])c(C(=O)N([H])[C@]([H])(C(=O)N([H])[C@]([H])(C(=O)N([H])[C@]([H])(C(=O)N([H])[H])C([H])([H])C([H])(C([H])([H])[H])C([H])([H])[H])C([H])([H])c2c([H])c([H])c([H])c([H])c2[H])C([H])([H])c2c([H])c([H])c([H])c([H])c2[H])c([H])c1[H]


 44 46  0  0  0  0  0  0  0  0999 V2000
  -87.3076   30.7975   -0.8809 C   0  0  0  0  0  0  0  0  0  0  0  0
  -87.4014   28.3920   -0.0836 N   0  0  0  0  0  0  0  0  0  0  0  0
  -88.0318   29.6271   -0.3323 C   0  0  0  0  0  0  0  0  0  0  0  0
  -89.2656   29.7533   -0.0815 O   0  0  0  0  0  0  0  0  0  0  0  0
  -86.4037   28.2439   -0.2725 H   0  0  0  0  0  0  0  0  0  0  0  0
  -88.1556   27.2368    0.4652 C   0  0  0  0  0  0  0  0  0  0  0  0
  -87.3576   26.6248    1.5413 C   0  0  0  0  0  0  0  0  0  0  0  0
  -87.9613   25.8729    2.5542 N   0  0  0  0  0  0  0  0  0  0  0  0
  -86.1160   26.7766    1.5627 O   0  0  0  0  0  0  0  0  0  0  0  0
  -88.8367   26.1980    2.9940 H   0  0  0  0  0  0  0  0  0  0  0  0
  -87.5361   24.9874    2.8694 H   0  0  0  0  0  0  0  0  0  0  0  0
  -88.2852   26.2886   -0.6891 C   0  0  0  0  0  0  0  0  0  0  0  0
  -89.9247   26.3255   -2.4718 C   0  0  0  0  0  0  0  0  0  0  0  0
  -89.6574   25.8390   -1.0250 C   0  0  0  0  0  0  0  0  0  0  0  0
  -90.7007   26.4824   -0.1086 C   0  0  0  0  0  0  0  0  0  0  0  0
  -88.2411   31.5690   -1.6756 N   0  0  0  0  0  0  0  0  0  0  0  0
  -88.4198   31.3335   -3.0719 C   0  0  0  0  0  0  0  0  0  0  0  0
  -87.7284   30.4267   -3.5888 O   0  0  0  0  0  0  0  0  0  0  0  0
  -88.7934   32.3111   -1.2168 H   0  0  0  0  0  0  0  0  0  0  0  0
  -89.3993   32.1601   -3.8268 C   0  0  0  0  0  0  0  0  0  0  0  0
  -88.7685   33.1663   -4.6189 N   0  0  0  0  0  0  0  0  0  0  0  0
  -88.6354   34.5068   -4.2122 C   0  0  0  0  0  0  0  0  0  0  0  0
  -89.1157   34.7999   -3.0624 O   0  0  0  0  0  0  0  0  0  0  0  0
  -88.3907   32.8799   -5.5422 H   0  0  0  0  0  0  0  0  0  0  0  0
  -88.0025   35.5173   -5.0117 C   0  0  0  0  0  0  0  0  0  0  0  0
  -88.3784   35.6850   -6.3257 C   0  0  0  0  0  0  0  0  0  0  0  0
  -87.7503   36.6606   -7.0880 C   0  0  0  0  0  0  0  0  0  0  0  0
  -86.7726   37.4411   -6.5356 C   0  0  0  0  0  0  0  0  0  0  0  0
  -86.4052   37.2567   -5.2025 C   0  0  0  0  0  0  0  0  0  0  0  0
  -87.0084   36.3006   -4.4250 C   0  0  0  0  0  0  0  0  0  0  0  0
  -90.3742   31.3117   -4.5765 C   0  0  0  0  0  0  0  0  0  0  0  0
  -91.4533   30.7634   -3.7534 C   0  0  0  0  0  0  0  0  0  0  0  0
  -92.6385   31.4813   -3.6761 C   0  0  0  0  0  0  0  0  0  0  0  0
  -93.7179   31.0710   -2.9340 C   0  0  0  0  0  0  0  0  0  0  0  0
  -93.6325   29.8984   -2.2327 C   0  0  0  0  0  0  0  0  0  0  0  0
  -92.4689   29.1597   -2.2874 C   0  0  0  0  0  0  0  0  0  0  0  0
  -91.3939   29.5863   -3.0374 C   0  0  0  0  0  0  0  0  0  0  0  0
  -86.6884   31.5551    0.2490 C   0  0  0  0  0  0  0  0  0  0  0  0
  -85.2178   31.4786    0.3188 C   0  0  0  0  0  0  0  0  0  0  0  0
  -84.4487   32.4201   -0.3239 C   0  0  0  0  0  0  0  0  0  0  0  0
  -83.0496   32.3673   -0.2706 C   0  0  0  0  0  0  0  0  0  0  0  0
  -82.4429   31.3494    0.4426 C   0  0  0  0  0  0  0  0  0  0  0  0
  -83.2052   30.4115    1.0831 C   0  0  0  0  0  0  0  0  0  0  0  0
  -84.5750   30.4843    1.0156 C   0  0  0  0  0  0  0  0  0  0  0  0
 13 14  1  0  0  0
 14 15  1  0  0  0
 14 12  1  0  0  0
 12  6  1  0  0  0
  6  2  1  0  0  0
  2  3  1  0  0  0
  3  4  2  0  0  0
  3  1  1  0  0  0
  1 38  1  0  0  0
 38 39  1  0  0  0
 39 40  2  0  0  0
 40 41  1  0  0  0
 41 42  2  0  0  0
 42 43  1  0  0  0
 43 44  2  0  0  0
  1 16  1  0  0  0
 16 17  1  0  0  0
 17 18  2  0  0  0
 17 20  1  0  0  0
 20 31  1  0  0  0
 31 32  1  0  0  0
 32 33  2  0  0  0
 33 34  1  0  0  0
 34 35  2  0  0  0
 35 36  1  0  0  0
 36 37  2  0  0  0
 20 21  1  0  0  0
 21 22  1  0  0  0
 22 23  2  0  0  0
 22 25  1  0  0  0
 25 26  2  0  0  0
 26 27  1  0  0  0
 27 28  2  0  0  0
 28 29  1  0  0  0
 29 30  2  0  0  0
  6  7  1  0  0  0
  7  8  1  0  0  0
  7  9  2  0  0  0
 44 39  1  0  0  0
 37 32  1  0  0  0
 30 25  1  0  0  0
  2  5  1  0  0  0
 16 19  1  0  0  0
 21 24  1  0  0  0
  8 10  1  0  0  0
  8 11  1  0  0  0
M  END
> <minimizedAffinity>
-7.90022

> <CNNscore>
0.1833447814

> <CNNaffinity>
6.7530870438

> <CNN_VS>
1.2381433249

> <CNNaffinity_variance>
0.1474447846

$$$$
[H]c1c([H])c([H])c(C(=O)N([H])[C@]([H])(C(=O)N([H])[C@]([H])(C(=O)N([H])[C@]([H])(C(=O)N([H])[H])C([H])([H])C([H])(C([H])([H])[H])C([H])([H])[H])C([H])([H])c2c([H])c([H])c([H])c([H])c2[H])C([H])([H])c2c([H])c([H])c([H])c([H])c2[H])c([H])c1[H]


 44 46  0  0  0  0  0  0  0  0999 V2000
  -87.1352   29.9457   -0.9832 C   0  0  0  0  0  0  0  0  0  0  0  0
  -88.2003   27.6450   -1.0395 N   0  0  0  0  0  0  0  0  0  0  0  0
  -88.1300   28.9514   -0.5172 C   0  0  0  0  0  0  0  0  0  0  0  0
  -88.9441   29.3010    0.3863 O   0  0  0  0  0  0  0  0  0  0  0  0
  -87.5614   27.3185   -1.7731 H   0  0  0  0  0  0  0  0  0  0  0  0
  -89.2105   26.6719   -0.5524 C   0  0  0  0  0  0  0  0  0  0  0  0
  -88.5349   25.6875    0.3102 C   0  0  0  0  0  0  0  0  0  0  0  0
  -88.6210   24.3159    0.0507 N   0  0  0  0  0  0  0  0  0  0  0  0
  -87.8720   26.0730    1.2986 O   0  0  0  0  0  0  0  0  0  0  0  0
  -89.5224   23.8917   -0.2193 H   0  0  0  0  0  0  0  0  0  0  0  0
  -87.7840   23.7178    0.1276 H   0  0  0  0  0  0  0  0  0  0  0  0
  -89.7242   26.0082   -1.7949 C   0  0  0  0  0  0  0  0  0  0  0  0
  -91.4935   26.1248   -3.4452 C   0  0  0  0  0  0  0  0  0  0  0  0
  -91.1973   25.9216   -1.9378 C   0  0  0  0  0  0  0  0  0  0  0  0
  -91.9046   27.0350   -1.1618 C   0  0  0  0  0  0  0  0  0  0  0  0
  -87.7470   30.7312   -2.0354 N   0  0  0  0  0  0  0  0  0  0  0  0
  -88.4514   31.9421   -1.7623 C   0  0  0  0  0  0  0  0  0  0  0  0
  -88.5233   32.3006   -0.5650 O   0  0  0  0  0  0  0  0  0  0  0  0
  -87.6701   30.4042   -3.0118 H   0  0  0  0  0  0  0  0  0  0  0  0
  -89.0515   32.7018   -2.8917 C   0  0  0  0  0  0  0  0  0  0  0  0
  -90.3555   32.2322   -3.2335 N   0  0  0  0  0  0  0  0  0  0  0  0
  -90.5947   31.2266   -4.1884 C   0  0  0  0  0  0  0  0  0  0  0  0
  -89.5617   30.7287   -4.7570 O   0  0  0  0  0  0  0  0  0  0  0  0
  -91.1621   32.6634   -2.7428 H   0  0  0  0  0  0  0  0  0  0  0  0
  -91.9074   30.7576   -4.5319 C   0  0  0  0  0  0  0  0  0  0  0  0
  -92.7001   31.5014   -5.3771 C   0  0  0  0  0  0  0  0  0  0  0  0
  -93.9704   31.0384   -5.6924 C   0  0  0  0  0  0  0  0  0  0  0  0
  -94.4222   29.8592   -5.1675 C   0  0  0  0  0  0  0  0  0  0  0  0
  -93.6047   29.1192   -4.3129 C   0  0  0  0  0  0  0  0  0  0  0  0
  -92.3449   29.5518   -3.9837 C   0  0  0  0  0  0  0  0  0  0  0  0
  -88.9704   34.1769   -2.6681 C   0  0  0  0  0  0  0  0  0  0  0  0
  -88.4550   34.9320   -3.8112 C   0  0  0  0  0  0  0  0  0  0  0  0
  -89.1768   34.8885   -4.9956 C   0  0  0  0  0  0  0  0  0  0  0  0
  -88.7919   35.5511   -6.1345 C   0  0  0  0  0  0  0  0  0  0  0  0
  -87.6423   36.2941   -6.1121 C   0  0  0  0  0  0  0  0  0  0  0  0
  -86.9005   36.3592   -4.9510 C   0  0  0  0  0  0  0  0  0  0  0  0
  -87.3012   35.6874   -3.8160 C   0  0  0  0  0  0  0  0  0  0  0  0
  -86.6667   30.7458    0.1891 C   0  0  0  0  0  0  0  0  0  0  0  0
  -85.3801   30.3135    0.7646 C   0  0  0  0  0  0  0  0  0  0  0  0
  -84.2261   30.9965    0.4599 C   0  0  0  0  0  0  0  0  0  0  0  0
  -82.9925   30.6037    0.9958 C   0  0  0  0  0  0  0  0  0  0  0  0
  -82.9460   29.5119    1.8435 C   0  0  0  0  0  0  0  0  0  0  0  0
  -84.0922   28.8306    2.1486 C   0  0  0  0  0  0  0  0  0  0  0  0
  -85.2893   29.2347    1.6102 C   0  0  0  0  0  0  0  0  0  0  0  0
 13 14  1  0  0  0
 14 15  1  0  0  0
 14 12  1  0  0  0
 12  6  1  0  0  0
  6  2  1  0  0  0
  2  3  1  0  0  0
  3  4  2  0  0  0
  3  1  1  0  0  0
  1 38  1  0  0  0
 38 39  1  0  0  0
 39 40  2  0  0  0
 40 41  1  0  0  0
 41 42  2  0  0  0
 42 43  1  0  0  0
 43 44  2  0  0  0
  1 16  1  0  0  0
 16 17  1  0  0  0
 17 18  2  0  0  0
 17 20  1  0  0  0
 20 31  1  0  0  0
 31 32  1  0  0  0
 32 33  2  0  0  0
 33 34  1  0  0  0
 34 35  2  0  0  0
 35 36  1  0  0  0
 36 37  2  0  0  0
 20 21  1  0  0  0
 21 22  1  0  0  0
 22 23  2  0  0  0
 22 25  1  0  0  0
 25 26  2  0  0  0
 26 27  1  0  0  0
 27 28  2  0  0  0
 28 29  1  0  0  0
 29 30  2  0  0  0
  6  7  1  0  0  0
  7  8  1  0  0  0
  7  9  2  0  0  0
 44 39  1  0  0  0
 37 32  1  0  0  0
 30 25  1  0  0  0
  2  5  1  0  0  0
 16 19  1  0  0  0
 21 24  1  0  0  0
  8 10  1  0  0  0
  8 11  1  0  0  0
M  END
> <minimizedAffinity>
-8.38932

> <CNNscore>
0.1750700325

> <CNNaffinity>
6.3550209999

> <CNN_VS>
1.1125737429

> <CNNaffinity_variance>
0.5606864691

$$$$
[H]c1c([H])c([H])c(C(=O)N([H])[C@]([H])(C(=O)N([H])[C@]([H])(C(=O)N([H])[C@]([H])(C(=O)N([H])[H])C([H])([H])C([H])(C([H])([H])[H])C([H])([H])[H])C([H])([H])c2c([H])c([H])c([H])c([H])c2[H])C([H])([H])c2c([H])c([H])c([H])c([H])c2[H])c([H])c1[H]


 44 46  0  0  0  0  0  0  0  0999 V2000
  -87.4400   30.8901   -0.3474 C   0  0  0  0  0  0  0  0  0  0  0  0
  -87.8073   31.8741   -2.6556 N   0  0  0  0  0  0  0  0  0  0  0  0
  -88.1739   31.7550   -1.3006 C   0  0  0  0  0  0  0  0  0  0  0  0
  -89.1680   32.4084   -0.8691 O   0  0  0  0  0  0  0  0  0  0  0  0
  -87.0084   31.3640   -3.0487 H   0  0  0  0  0  0  0  0  0  0  0  0
  -88.5625   32.7511   -3.5857 C   0  0  0  0  0  0  0  0  0  0  0  0
  -88.8347   31.9986   -4.8222 C   0  0  0  0  0  0  0  0  0  0  0  0
  -89.8951   32.3470   -5.6648 N   0  0  0  0  0  0  0  0  0  0  0  0
  -88.1132   31.0250   -5.1333 O   0  0  0  0  0  0  0  0  0  0  0  0
  -90.8160   32.5943   -5.2694 H   0  0  0  0  0  0  0  0  0  0  0  0
  -89.7648   32.3594   -6.6881 H   0  0  0  0  0  0  0  0  0  0  0  0
  -87.6319   33.8928   -3.8665 C   0  0  0  0  0  0  0  0  0  0  0  0
  -87.6966   35.5585   -5.6240 C   0  0  0  0  0  0  0  0  0  0  0  0
  -88.2611   35.1851   -4.2300 C   0  0  0  0  0  0  0  0  0  0  0  0
  -87.8745   36.2948   -3.2496 C   0  0  0  0  0  0  0  0  0  0  0  0
  -88.1492   29.6310   -0.2484 N   0  0  0  0  0  0  0  0  0  0  0  0
  -88.1660   28.6868   -1.3186 C   0  0  0  0  0  0  0  0  0  0  0  0
  -87.5398   28.9943   -2.3582 O   0  0  0  0  0  0  0  0  0  0  0  0
  -88.6573   29.4111    0.6232 H   0  0  0  0  0  0  0  0  0  0  0  0
  -88.9109   27.4106   -1.1475 C   0  0  0  0  0  0  0  0  0  0  0  0
  -89.4733   27.2778    0.1578 N   0  0  0  0  0  0  0  0  0  0  0  0
  -88.8445   26.5854    1.2091 C   0  0  0  0  0  0  0  0  0  0  0  0
  -87.7068   26.0630    0.9423 O   0  0  0  0  0  0  0  0  0  0  0  0
  -90.3959   27.7219    0.3275 H   0  0  0  0  0  0  0  0  0  0  0  0
  -89.4133   26.4514    2.5204 C   0  0  0  0  0  0  0  0  0  0  0  0
  -89.9567   25.2479    2.9107 C   0  0  0  0  0  0  0  0  0  0  0  0
  -90.5110   25.1374    4.1788 C   0  0  0  0  0  0  0  0  0  0  0  0
  -90.5140   26.2125    5.0238 C   0  0  0  0  0  0  0  0  0  0  0  0
  -89.9586   27.4239    4.6109 C   0  0  0  0  0  0  0  0  0  0  0  0
  -89.4039   27.5626    3.3637 C   0  0  0  0  0  0  0  0  0  0  0  0
  -89.8833   27.1870   -2.2595 C   0  0  0  0  0  0  0  0  0  0  0  0
  -90.4724   25.8473   -2.2844 C   0  0  0  0  0  0  0  0  0  0  0  0
  -89.6778   24.7821   -1.8846 C   0  0  0  0  0  0  0  0  0  0  0  0
  -90.1171   23.4818   -1.8691 C   0  0  0  0  0  0  0  0  0  0  0  0
  -91.3995   23.2110   -2.2647 C   0  0  0  0  0  0  0  0  0  0  0  0
  -92.2166   24.2463   -2.6682 C   0  0  0  0  0  0  0  0  0  0  0  0
  -91.7595   25.5468   -2.6781 C   0  0  0  0  0  0  0  0  0  0  0  0
  -86.0222   30.7637   -0.8034 C   0  0  0  0  0  0  0  0  0  0  0  0
  -85.0814   30.2662    0.2168 C   0  0  0  0  0  0  0  0  0  0  0  0
  -85.4178   29.1812    0.9919 C   0  0  0  0  0  0  0  0  0  0  0  0
  -84.5391   28.6910    1.9670 C   0  0  0  0  0  0  0  0  0  0  0  0
  -83.3172   29.3144    2.1439 C   0  0  0  0  0  0  0  0  0  0  0  0
  -82.9797   30.3936    1.3743 C   0  0  0  0  0  0  0  0  0  0  0  0
  -83.8583   30.8560    0.4253 C   0  0  0  0  0  0  0  0  0  0  0  0
 13 14  1  0  0  0
 14 15  1  0  0  0
 14 12  1  0  0  0
 12  6  1  0  0  0
  6  2  1  0  0  0
  2  3  1  0  0  0
  3  4  2  0  0  0
  3  1  1  0  0  0
  1 38  1  0  0  0
 38 39  1  0  0  0
 39 40  2  0  0  0
 40 41  1  0  0  0
 41 42  2  0  0  0
 42 43  1  0  0  0
 43 44  2  0  0  0
  1 16  1  0  0  0
 16 17  1  0  0  0
 17 18  2  0  0  0
 17 20  1  0  0  0
 20 31  1  0  0  0
 31 32  1  0  0  0
 32 33  2  0  0  0
 33 34  1  0  0  0
 34 35  2  0  0  0
 35 36  1  0  0  0
 36 37  2  0  0  0
 20 21  1  0  0  0
 21 22  1  0  0  0
 22 23  2  0  0  0
 22 25  1  0  0  0
 25 26  2  0  0  0
 26 27  1  0  0  0
 27 28  2  0  0  0
 28 29  1  0  0  0
 29 30  2  0  0  0
  6  7  1  0  0  0
  7  8  1  0  0  0
  7  9  2  0  0  0
 44 39  1  0  0  0
 37 32  1  0  0  0
 30 25  1  0  0  0
  2  5  1  0  0  0
 16 19  1  0  0  0
 21 24  1  0  0  0
  8 10  1  0  0  0
  8 11  1  0  0  0
M  END
> <minimizedAffinity>
-9.25514

> <CNNscore>
0.1469984204

> <CNNaffinity>
6.3915290833

> <CNN_VS>
0.9395446777

> <CNNaffinity_variance>
0.5345107317

$$$$
[H]c1c([H])c([H])c(C(=O)N([H])[C@]([H])(C(=O)N([H])[C@]([H])(C(=O)N([H])[C@]([H])(C(=O)N([H])[H])C([H])([H])C([H])(C([H])([H])[H])C([H])([H])[H])C([H])([H])c2c([H])c([H])c([H])c([H])c2[H])C([H])([H])c2c([H])c([H])c([H])c([H])c2[H])c([H])c1[H]


 44 46  0  0  0  0  0  0  0  0999 V2000
  -87.8480   30.2704   -1.1515 C   0  0  0  0  0  0  0  0  0  0  0  0
  -86.1738   29.6175    0.6378 N   0  0  0  0  0  0  0  0  0  0  0  0
  -86.7126   29.4588   -0.6541 C   0  0  0  0  0  0  0  0  0  0  0  0
  -86.2148   28.5915   -1.4295 O   0  0  0  0  0  0  0  0  0  0  0  0
  -86.5449   30.3084    1.2997 H   0  0  0  0  0  0  0  0  0  0  0  0
  -85.0340   28.7894    1.1064 C   0  0  0  0  0  0  0  0  0  0  0  0
  -85.5661   27.6548    1.8803 C   0  0  0  0  0  0  0  0  0  0  0  0
  -86.9406   27.4978    2.0854 N   0  0  0  0  0  0  0  0  0  0  0  0
  -84.7837   26.8114    2.3717 O   0  0  0  0  0  0  0  0  0  0  0  0
  -87.5284   28.3115    2.3259 H   0  0  0  0  0  0  0  0  0  0  0  0
  -87.3772   26.5672    1.9980 H   0  0  0  0  0  0  0  0  0  0  0  0
  -84.2461   29.7022    1.9974 C   0  0  0  0  0  0  0  0  0  0  0  0
  -83.3362   31.8408    1.3147 C   0  0  0  0  0  0  0  0  0  0  0  0
  -84.5786   31.1453    1.9262 C   0  0  0  0  0  0  0  0  0  0  0  0
  -84.8162   31.7375    3.3173 C   0  0  0  0  0  0  0  0  0  0  0  0
  -89.0716   29.5481   -0.8700 N   0  0  0  0  0  0  0  0  0  0  0  0
  -89.7156   28.7398   -1.8544 C   0  0  0  0  0  0  0  0  0  0  0  0
  -89.1775   28.6817   -2.9833 O   0  0  0  0  0  0  0  0  0  0  0  0
  -89.4892   29.6209    0.0715 H   0  0  0  0  0  0  0  0  0  0  0  0
  -90.9677   28.0212   -1.4959 C   0  0  0  0  0  0  0  0  0  0  0  0
  -91.0759   27.7799   -0.0931 N   0  0  0  0  0  0  0  0  0  0  0  0
  -90.4241   26.7217    0.5669 C   0  0  0  0  0  0  0  0  0  0  0  0
  -89.7020   25.9580   -0.1638 O   0  0  0  0  0  0  0  0  0  0  0  0
  -91.6697   28.4284    0.4585 H   0  0  0  0  0  0  0  0  0  0  0  0
  -90.5363   26.4799    1.9775 C   0  0  0  0  0  0  0  0  0  0  0  0
  -90.5735   27.5422    2.8528 C   0  0  0  0  0  0  0  0  0  0  0  0
  -90.6732   27.2913    4.2147 C   0  0  0  0  0  0  0  0  0  0  0  0
  -90.7334   26.0046    4.6740 C   0  0  0  0  0  0  0  0  0  0  0  0
  -90.6946   24.9411    3.7720 C   0  0  0  0  0  0  0  0  0  0  0  0
  -90.5964   25.1586    2.4208 C   0  0  0  0  0  0  0  0  0  0  0  0
  -92.1690   28.6725   -2.1001 C   0  0  0  0  0  0  0  0  0  0  0  0
  -92.4175   28.3026   -3.4944 C   0  0  0  0  0  0  0  0  0  0  0  0
  -92.6089   29.3255   -4.4123 C   0  0  0  0  0  0  0  0  0  0  0  0
  -92.8534   29.1030   -5.7446 C   0  0  0  0  0  0  0  0  0  0  0  0
  -92.9132   27.8137   -6.2009 C   0  0  0  0  0  0  0  0  0  0  0  0
  -92.7274   26.7726   -5.3153 C   0  0  0  0  0  0  0  0  0  0  0  0
  -92.4830   27.0135   -3.9803 C   0  0  0  0  0  0  0  0  0  0  0  0
  -87.7785   31.6287   -0.5316 C   0  0  0  0  0  0  0  0  0  0  0  0
  -87.8986   32.7526   -1.4781 C   0  0  0  0  0  0  0  0  0  0  0  0
  -89.1314   33.1046   -1.9752 C   0  0  0  0  0  0  0  0  0  0  0  0
  -89.2691   34.1696   -2.8754 C   0  0  0  0  0  0  0  0  0  0  0  0
  -88.1419   34.8713   -3.2625 C   0  0  0  0  0  0  0  0  0  0  0  0
  -86.9142   34.5236   -2.7696 C   0  0  0  0  0  0  0  0  0  0  0  0
  -86.8049   33.4755   -1.8889 C   0  0  0  0  0  0  0  0  0  0  0  0
 13 14  1  0  0  0
 14 15  1  0  0  0
 14 12  1  0  0  0
 12  6  1  0  0  0
  6  2  1  0  0  0
  2  3  1  0  0  0
  3  4  2  0  0  0
  3  1  1  0  0  0
  1 38  1  0  0  0
 38 39  1  0  0  0
 39 40  2  0  0  0
 40 41  1  0  0  0
 41 42  2  0  0  0
 42 43  1  0  0  0
 43 44  2  0  0  0
  1 16  1  0  0  0
 16 17  1  0  0  0
 17 18  2  0  0  0
 17 20  1  0  0  0
 20 31  1  0  0  0
 31 32  1  0  0  0
 32 33  2  0  0  0
 33 34  1  0  0  0
 34 35  2  0  0  0
 35 36  1  0  0  0
 36 37  2  0  0  0
 20 21  1  0  0  0
 21 22  1  0  0  0
 22 23  2  0  0  0
 22 25  1  0  0  0
 25 26  2  0  0  0
 26 27  1  0  0  0
 27 28  2  0  0  0
 28 29  1  0  0  0
 29 30  2  0  0  0
  6  7  1  0  0  0
  7  8  1  0  0  0
  7  9  2  0  0  0
 44 39  1  0  0  0
 37 32  1  0  0  0
 30 25  1  0  0  0
  2  5  1  0  0  0
 16 19  1  0  0  0
 21 24  1  0  0  0
  8 10  1  0  0  0
  8 11  1  0  0  0
M  END
> <minimizedAffinity>
-8.73531

> <CNNscore>
0.1461388916

> <CNNaffinity>
6.6600136757

> <CNN_VS>
0.9732870460

> <CNNaffinity_variance>
0.1340224147

$$$$
[H]c1c([H])c([H])c(C(=O)N([H])[C@]([H])(C(=O)N([H])[C@]([H])(C(=O)N([H])[C@]([H])(C(=O)N([H])[H])C([H])([H])C([H])(C([H])([H])[H])C([H])([H])[H])C([H])([H])c2c([H])c([H])c([H])c([H])c2[H])C([H])([H])c2c([H])c([H])c([H])c([H])c2[H])c([H])c1[H]


 44 46  0  0  0  0  0  0  0  0999 V2000
  -89.8962   29.2546   -2.7044 C   0  0  0  0  0  0  0  0  0  0  0  0
  -88.8692   31.5667   -2.5308 N   0  0  0  0  0  0  0  0  0  0  0  0
  -89.2187   30.4340   -3.2919 C   0  0  0  0  0  0  0  0  0  0  0  0
  -88.9483   30.4119   -4.5279 O   0  0  0  0  0  0  0  0  0  0  0  0
  -89.0695   31.6288   -1.5263 H   0  0  0  0  0  0  0  0  0  0  0  0
  -88.1921   32.7342   -3.1498 C   0  0  0  0  0  0  0  0  0  0  0  0
  -86.9119   32.9554   -2.4560 C   0  0  0  0  0  0  0  0  0  0  0  0
  -85.9225   33.7779   -3.0041 N   0  0  0  0  0  0  0  0  0  0  0  0
  -86.6921   32.3995   -1.3570 O   0  0  0  0  0  0  0  0  0  0  0  0
  -85.6994   33.7258   -4.0106 H   0  0  0  0  0  0  0  0  0  0  0  0
  -85.4081   34.4430   -2.4064 H   0  0  0  0  0  0  0  0  0  0  0  0
  -89.1224   33.8839   -2.9031 C   0  0  0  0  0  0  0  0  0  0  0  0
  -90.8081   33.5685   -4.6137 C   0  0  0  0  0  0  0  0  0  0  0  0
  -89.7068   34.5311   -4.1021 C   0  0  0  0  0  0  0  0  0  0  0  0
  -88.6688   34.6972   -5.2144 C   0  0  0  0  0  0  0  0  0  0  0  0
  -89.4085   29.0868   -1.3507 N   0  0  0  0  0  0  0  0  0  0  0  0
  -89.3006   27.8012   -0.7402 C   0  0  0  0  0  0  0  0  0  0  0  0
  -89.6506   26.8145   -1.4266 O   0  0  0  0  0  0  0  0  0  0  0  0
  -89.1308   29.9231   -0.8126 H   0  0  0  0  0  0  0  0  0  0  0  0
  -88.7871   27.7010    0.6523 C   0  0  0  0  0  0  0  0  0  0  0  0
  -87.5322   28.3605    0.8199 N   0  0  0  0  0  0  0  0  0  0  0  0
  -86.3896   27.7351    1.3525 C   0  0  0  0  0  0  0  0  0  0  0  0
  -86.5218   26.5075    1.6902 O   0  0  0  0  0  0  0  0  0  0  0  0
  -87.4726   29.3547    0.5279 H   0  0  0  0  0  0  0  0  0  0  0  0
  -85.1293   28.4013    1.5220 C   0  0  0  0  0  0  0  0  0  0  0  0
  -84.9130   29.6199    0.9184 C   0  0  0  0  0  0  0  0  0  0  0  0
  -83.6855   30.2469    1.0848 C   0  0  0  0  0  0  0  0  0  0  0  0
  -82.7091   29.6574    1.8391 C   0  0  0  0  0  0  0  0  0  0  0  0
  -82.9466   28.4225    2.4432 C   0  0  0  0  0  0  0  0  0  0  0  0
  -84.1497   27.7794    2.2964 C   0  0  0  0  0  0  0  0  0  0  0  0
  -89.8250   28.0955    1.6519 C   0  0  0  0  0  0  0  0  0  0  0  0
  -89.8336   27.2779    2.8660 C   0  0  0  0  0  0  0  0  0  0  0  0
  -90.0339   27.9210    4.0793 C   0  0  0  0  0  0  0  0  0  0  0  0
  -90.0582   27.2624    5.2834 C   0  0  0  0  0  0  0  0  0  0  0  0
  -89.8776   25.9055    5.3000 C   0  0  0  0  0  0  0  0  0  0  0  0
  -89.6760   25.2345    4.1118 C   0  0  0  0  0  0  0  0  0  0  0  0
  -89.6542   25.9113    2.9112 C   0  0  0  0  0  0  0  0  0  0  0  0
  -91.3749   29.4467   -2.8064 C   0  0  0  0  0  0  0  0  0  0  0  0
  -92.0267   28.6993   -3.8973 C   0  0  0  0  0  0  0  0  0  0  0  0
  -92.5316   29.3712   -4.9857 C   0  0  0  0  0  0  0  0  0  0  0  0
  -93.1545   28.6813   -6.0342 C   0  0  0  0  0  0  0  0  0  0  0  0
  -93.2571   27.3038   -5.9639 C   0  0  0  0  0  0  0  0  0  0  0  0
  -92.7557   26.6327   -4.8826 C   0  0  0  0  0  0  0  0  0  0  0  0
  -92.1500   27.3314   -3.8671 C   0  0  0  0  0  0  0  0  0  0  0  0
 13 14  1  0  0  0
 14 15  1  0  0  0
 14 12  1  0  0  0
 12  6  1  0  0  0
  6  2  1  0  0  0
  2  3  1  0  0  0
  3  4  2  0  0  0
  3  1  1  0  0  0
  1 38  1  0  0  0
 38 39  1  0  0  0
 39 40  2  0  0  0
 40 41  1  0  0  0
 41 42  2  0  0  0
 42 43  1  0  0  0
 43 44  2  0  0  0
  1 16  1  0  0  0
 16 17  1  0  0  0
 17 18  2  0  0  0
 17 20  1  0  0  0
 20 31  1  0  0  0
 31 32  1  0  0  0
 32 33  2  0  0  0
 33 34  1  0  0  0
 34 35  2  0  0  0
 35 36  1  0  0  0
 36 37  2  0  0  0
 20 21  1  0  0  0
 21 22  1  0  0  0
 22 23  2  0  0  0
 22 25  1  0  0  0
 25 26  2  0  0  0
 26 27  1  0  0  0
 27 28  2  0  0  0
 28 29  1  0  0  0
 29 30  2  0  0  0
  6  7  1  0  0  0
  7  8  1  0  0  0
  7  9  2  0  0  0
 44 39  1  0  0  0
 37 32  1  0  0  0
 30 25  1  0  0  0
  2  5  1  0  0  0
 16 19  1  0  0  0
 21 24  1  0  0  0
  8 10  1  0  0  0
  8 11  1  0  0  0
M  END
> <minimizedAffinity>
-8.98013

> <CNNscore>
0.1322566718

> <CNNaffinity>
6.5441803932

> <CNN_VS>
0.8655115366

> <CNNaffinity_variance>
0.3141297400

$$$$
[H]c1c([H])c([H])c(-c2c([H])c([H])c(C(=O)N([H])[C@]([H])(C(=O)N([H])[C@]([H])(C(=O)N3C([H])([H])C([H])([H])N(c4c([H])c([H])c([H])c([H])c4[H])C([H])([H])C3([H])[H])C([H])([H])[H])C([H])([H])C([H])(C([H])([H])[H])C([H])([H])[H])c([H])c2[H])c([H])c1[H]


 41 44  0  0  0  0  0  0  0  0999 V2000
  -86.3328   30.1168    0.3344 C   0  0  0  0  0  0  0  0  0  0  0  0
  -87.2082   29.2049   -0.4566 N   0  0  0  0  0  0  0  0  0  0  0  0
  -88.0520   28.2792    0.1477 C   0  0  0  0  0  0  0  0  0  0  0  0
  -88.0867   28.1762    1.4219 O   0  0  0  0  0  0  0  0  0  0  0  0
  -87.1517   29.2988   -1.4875 H   0  0  0  0  0  0  0  0  0  0  0  0
  -88.9427   27.3767   -0.5910 C   0  0  0  0  0  0  0  0  0  0  0  0
  -88.6261   26.0852   -0.8700 C   0  0  0  0  0  0  0  0  0  0  0  0
  -89.5190   25.2760   -1.5349 C   0  0  0  0  0  0  0  0  0  0  0  0
  -90.7414   25.7419   -1.9322 C   0  0  0  0  0  0  0  0  0  0  0  0
  -91.0377   27.0491   -1.6408 C   0  0  0  0  0  0  0  0  0  0  0  0
  -90.1687   27.8783   -0.9803 C   0  0  0  0  0  0  0  0  0  0  0  0
  -91.6972   24.9010   -2.6236 C   0  0  0  0  0  0  0  0  0  0  0  0
  -91.6093   23.5093   -2.4529 C   0  0  0  0  0  0  0  0  0  0  0  0
  -92.4736   22.6321   -3.0733 C   0  0  0  0  0  0  0  0  0  0  0  0
  -93.4467   23.1751   -3.8820 C   0  0  0  0  0  0  0  0  0  0  0  0
  -93.5696   24.5435   -4.0777 C   0  0  0  0  0  0  0  0  0  0  0  0
  -92.6842   25.3736   -3.4377 C   0  0  0  0  0  0  0  0  0  0  0  0
  -86.4039   31.4560   -0.2055 C   0  0  0  0  0  0  0  0  0  0  0  0
  -85.5829   32.3248    0.2482 O   0  0  0  0  0  0  0  0  0  0  0  0
  -87.3039   31.8918   -1.2065 N   0  0  0  0  0  0  0  0  0  0  0  0
  -87.9937   31.2299   -1.6134 H   0  0  0  0  0  0  0  0  0  0  0  0
  -87.2694   33.2859   -1.6828 C   0  0  0  0  0  0  0  0  0  0  0  0
  -86.0387   33.4209   -2.5891 C   0  0  0  0  0  0  0  0  0  0  0  0
  -88.4967   33.6099   -2.3912 C   0  0  0  0  0  0  0  0  0  0  0  0
  -89.4667   32.7878   -2.3788 O   0  0  0  0  0  0  0  0  0  0  0  0
  -88.7297   34.7981   -3.1237 N   0  0  0  0  0  0  0  0  0  0  0  0
  -87.7246   35.8327   -3.2026 C   0  0  0  0  0  0  0  0  0  0  0  0
  -87.3547   35.9330   -4.6795 C   0  0  0  0  0  0  0  0  0  0  0  0
  -88.5226   36.3386   -5.4002 N   0  0  0  0  0  0  0  0  0  0  0  0
  -89.8489   36.0896   -4.9013 C   0  0  0  0  0  0  0  0  0  0  0  0
  -89.9625   35.0515   -3.8422 C   0  0  0  0  0  0  0  0  0  0  0  0
  -88.3854   36.9992   -6.6467 C   0  0  0  0  0  0  0  0  0  0  0  0
  -87.1620   37.4515   -7.1110 C   0  0  0  0  0  0  0  0  0  0  0  0
  -86.9605   38.1001   -8.2961 C   0  0  0  0  0  0  0  0  0  0  0  0
  -88.0787   38.3219   -9.0998 C   0  0  0  0  0  0  0  0  0  0  0  0
  -89.3124   37.8970   -8.6919 C   0  0  0  0  0  0  0  0  0  0  0  0
  -89.4661   37.2365   -7.4663 C   0  0  0  0  0  0  0  0  0  0  0  0
  -85.0198   29.4404    0.4326 C   0  0  0  0  0  0  0  0  0  0  0  0
  -85.1690   29.5896    2.9472 C   0  0  0  0  0  0  0  0  0  0  0  0
  -84.4798   29.0395    1.7381 C   0  0  0  0  0  0  0  0  0  0  0  0
  -83.0322   29.5653    1.7997 C   0  0  0  0  0  0  0  0  0  0  0  0
 39 40  1  0  0  0
 40 41  1  0  0  0
 40 38  1  0  0  0
 38  1  1  0  0  0
  1  2  1  0  0  0
  2  3  1  0  0  0
  3  4  2  0  0  0
  3  6  1  0  0  0
  6  7  2  0  0  0
  7  8  1  0  0  0
  8  9  2  0  0  0
  9 10  1  0  0  0
 10 11  2  0  0  0
  9 12  1  0  0  0
 12 13  2  0  0  0
 13 14  1  0  0  0
 14 15  2  0  0  0
 15 16  1  0  0  0
 16 17  2  0  0  0
  1 18  1  0  0  0
 18 19  2  0  0  0
 18 20  1  0  0  0
 20 22  1  0  0  0
 22 23  1  0  0  0
 22 24  1  0  0  0
 24 25  2  0  0  0
 24 26  1  0  0  0
 26 27  1  0  0  0
 27 28  1  0  0  0
 28 29  1  0  0  0
 29 30  1  0  0  0
 30 31  1  0  0  0
 29 32  1  0  0  0
 32 33  2  0  0  0
 33 34  1  0  0  0
 34 35  2  0  0  0
 35 36  1  0  0  0
 36 37  2  0  0  0
 11  6  1  0  0  0
 17 12  1  0  0  0
 31 26  1  0  0  0
 37 32  1  0  0  0
  2  5  1  0  0  0
 20 21  1  0  0  0
M  END
> <minimizedAffinity>
-8.91017

> <CNNscore>
0.1751315743

> <CNNaffinity>
5.9305982590

> <CNN_VS>
1.0386350155

> <CNNaffinity_variance>
0.3927087486

$$$$
[H]c1c([H])c([H])c(-c2c([H])c([H])c(C(=O)N([H])[C@]([H])(C(=O)N([H])[C@]([H])(C(=O)N3C([H])([H])C([H])([H])N(c4c([H])c([H])c([H])c([H])c4[H])C([H])([H])C3([H])[H])C([H])([H])[H])C([H])([H])C([H])(C([H])([H])[H])C([H])([H])[H])c([H])c2[H])c([H])c1[H]


 41 44  0  0  0  0  0  0  0  0999 V2000
  -86.1683   30.6214    0.3850 C   0  0  0  0  0  0  0  0  0  0  0  0
  -87.0246   29.4079    0.2514 N   0  0  0  0  0  0  0  0  0  0  0  0
  -87.1724   28.4881    1.2840 C   0  0  0  0  0  0  0  0  0  0  0  0
  -86.5530   28.6574    2.3899 O   0  0  0  0  0  0  0  0  0  0  0  0
  -87.5051   29.2865   -0.6591 H   0  0  0  0  0  0  0  0  0  0  0  0
  -88.0185   27.2919    1.2020 C   0  0  0  0  0  0  0  0  0  0  0  0
  -88.9129   26.9476    2.1651 C   0  0  0  0  0  0  0  0  0  0  0  0
  -89.7055   25.8326    2.0146 C   0  0  0  0  0  0  0  0  0  0  0  0
  -89.6187   25.0435    0.9015 C   0  0  0  0  0  0  0  0  0  0  0  0
  -88.7076   25.4102   -0.0560 C   0  0  0  0  0  0  0  0  0  0  0  0
  -87.9051   26.5147    0.0665 C   0  0  0  0  0  0  0  0  0  0  0  0
  -90.4526   23.8725    0.7221 C   0  0  0  0  0  0  0  0  0  0  0  0
  -91.8219   23.9752    1.0195 C   0  0  0  0  0  0  0  0  0  0  0  0
  -92.6903   22.9130    0.8816 C   0  0  0  0  0  0  0  0  0  0  0  0
  -92.1617   21.7234    0.4331 C   0  0  0  0  0  0  0  0  0  0  0  0
  -90.8158   21.5785    0.1274 C   0  0  0  0  0  0  0  0  0  0  0  0
  -89.9936   22.6660    0.2820 C   0  0  0  0  0  0  0  0  0  0  0  0
  -86.6556   31.6646   -0.4893 C   0  0  0  0  0  0  0  0  0  0  0  0
  -86.2455   32.8571   -0.2788 O   0  0  0  0  0  0  0  0  0  0  0  0
  -87.5472   31.4794   -1.5721 N   0  0  0  0  0  0  0  0  0  0  0  0
  -87.9134   30.5323   -1.7918 H   0  0  0  0  0  0  0  0  0  0  0  0
  -87.9621   32.6263   -2.3993 C   0  0  0  0  0  0  0  0  0  0  0  0
  -86.8299   32.8913   -3.4005 C   0  0  0  0  0  0  0  0  0  0  0  0
  -89.2180   32.3379   -3.0722 C   0  0  0  0  0  0  0  0  0  0  0  0
  -89.7399   31.1835   -2.9636 O   0  0  0  0  0  0  0  0  0  0  0  0
  -89.9483   33.2513   -3.8690 N   0  0  0  0  0  0  0  0  0  0  0  0
  -89.4869   34.6070   -4.0591 C   0  0  0  0  0  0  0  0  0  0  0  0
  -89.2142   34.7411   -5.5544 C   0  0  0  0  0  0  0  0  0  0  0  0
  -90.4518   34.5507   -6.2473 N   0  0  0  0  0  0  0  0  0  0  0  0
  -91.5357   33.7974   -5.6751 C   0  0  0  0  0  0  0  0  0  0  0  0
  -91.1789   32.8961   -4.5470 C   0  0  0  0  0  0  0  0  0  0  0  0
  -90.6272   35.1075   -7.5389 C   0  0  0  0  0  0  0  0  0  0  0  0
  -90.2669   36.4111   -7.8352 C   0  0  0  0  0  0  0  0  0  0  0  0
  -90.4146   37.0113   -9.0533 C   0  0  0  0  0  0  0  0  0  0  0  0
  -90.9726   36.2465  -10.0775 C   0  0  0  0  0  0  0  0  0  0  0  0
  -91.3472   34.9529   -9.8423 C   0  0  0  0  0  0  0  0  0  0  0  0
  -91.1751   34.3837   -8.5741 C   0  0  0  0  0  0  0  0  0  0  0  0
  -84.7706   30.1529    0.2505 C   0  0  0  0  0  0  0  0  0  0  0  0
  -82.6949   31.5867    0.3077 C   0  0  0  0  0  0  0  0  0  0  0  0
  -83.6976   30.7593    1.0490 C   0  0  0  0  0  0  0  0  0  0  0  0
  -82.9047   29.5983    1.6808 C   0  0  0  0  0  0  0  0  0  0  0  0
 39 40  1  0  0  0
 40 41  1  0  0  0
 40 38  1  0  0  0
 38  1  1  0  0  0
  1  2  1  0  0  0
  2  3  1  0  0  0
  3  4  2  0  0  0
  3  6  1  0  0  0
  6  7  2  0  0  0
  7  8  1  0  0  0
  8  9  2  0  0  0
  9 10  1  0  0  0
 10 11  2  0  0  0
  9 12  1  0  0  0
 12 13  2  0  0  0
 13 14  1  0  0  0
 14 15  2  0  0  0
 15 16  1  0  0  0
 16 17  2  0  0  0
  1 18  1  0  0  0
 18 19  2  0  0  0
 18 20  1  0  0  0
 20 22  1  0  0  0
 22 23  1  0  0  0
 22 24  1  0  0  0
 24 25  2  0  0  0
 24 26  1  0  0  0
 26 27  1  0  0  0
 27 28  1  0  0  0
 28 29  1  0  0  0
 29 30  1  0  0  0
 30 31  1  0  0  0
 29 32  1  0  0  0
 32 33  2  0  0  0
 33 34  1  0  0  0
 34 35  2  0  0  0
 35 36  1  0  0  0
 36 37  2  0  0  0
 11  6  1  0  0  0
 17 12  1  0  0  0
 31 26  1  0  0  0
 37 32  1  0  0  0
  2  5  1  0  0  0
 20 21  1  0  0  0
M  END
> <minimizedAffinity>
-8.76530

> <CNNscore>
0.1401024312

> <CNNaffinity>
5.8649511337

> <CNN_VS>
0.8216938972

> <CNNaffinity_variance>
0.3669743836

$$$$
[H]c1c([H])c([H])c(-c2c([H])c([H])c(C(=O)N([H])[C@]([H])(C(=O)N([H])[C@]([H])(C(=O)N3C([H])([H])C([H])([H])N(c4c([H])c([H])c([H])c([H])c4[H])C([H])([H])C3([H])[H])C([H])([H])[H])C([H])([H])C([H])(C([H])([H])[H])C([H])([H])[H])c([H])c2[H])c([H])c1[H]


 41 44  0  0  0  0  0  0  0  0999 V2000
  -91.1369   32.6195   -3.8370 C   0  0  0  0  0  0  0  0  0  0  0  0
  -90.1093   32.2424   -2.8243 N   0  0  0  0  0  0  0  0  0  0  0  0
  -89.2034   31.2090   -3.0375 C   0  0  0  0  0  0  0  0  0  0  0  0
  -89.2408   30.5345   -4.1233 O   0  0  0  0  0  0  0  0  0  0  0  0
  -90.1084   32.7953   -1.9474 H   0  0  0  0  0  0  0  0  0  0  0  0
  -88.1652   30.8173   -2.0772 C   0  0  0  0  0  0  0  0  0  0  0  0
  -87.6662   31.6622   -1.1373 C   0  0  0  0  0  0  0  0  0  0  0  0
  -86.7188   31.2258   -0.2394 C   0  0  0  0  0  0  0  0  0  0  0  0
  -86.2541   29.9402   -0.2647 C   0  0  0  0  0  0  0  0  0  0  0  0
  -86.7714   29.1066   -1.2233 C   0  0  0  0  0  0  0  0  0  0  0  0
  -87.7152   29.5131   -2.1304 C   0  0  0  0  0  0  0  0  0  0  0  0
  -85.2651   29.4614    0.6794 C   0  0  0  0  0  0  0  0  0  0  0  0
  -84.0516   30.1608    0.7885 C   0  0  0  0  0  0  0  0  0  0  0  0
  -83.0521   29.7767    1.6573 C   0  0  0  0  0  0  0  0  0  0  0  0
  -83.2864   28.6625    2.4314 C   0  0  0  0  0  0  0  0  0  0  0  0
  -84.4706   27.9429    2.3560 C   0  0  0  0  0  0  0  0  0  0  0  0
  -85.4335   28.3666    1.4751 C   0  0  0  0  0  0  0  0  0  0  0  0
  -92.1430   31.5851   -3.9240 C   0  0  0  0  0  0  0  0  0  0  0  0
  -93.1445   31.6611   -3.1329 O   0  0  0  0  0  0  0  0  0  0  0  0
  -92.1213   30.4910   -4.8209 N   0  0  0  0  0  0  0  0  0  0  0  0
  -91.3329   30.3773   -5.4879 H   0  0  0  0  0  0  0  0  0  0  0  0
  -93.2169   29.5053   -4.8194 C   0  0  0  0  0  0  0  0  0  0  0  0
  -93.8286   29.5112   -6.2265 C   0  0  0  0  0  0  0  0  0  0  0  0
  -92.7148   28.1902   -4.4570 C   0  0  0  0  0  0  0  0  0  0  0  0
  -91.4900   28.0472   -4.1468 O   0  0  0  0  0  0  0  0  0  0  0  0
  -93.4847   27.0037   -4.4131 N   0  0  0  0  0  0  0  0  0  0  0  0
  -94.8970   27.0214   -4.7166 C   0  0  0  0  0  0  0  0  0  0  0  0
  -95.0615   26.1429   -5.9532 C   0  0  0  0  0  0  0  0  0  0  0  0
  -94.6589   24.8139   -5.6068 N   0  0  0  0  0  0  0  0  0  0  0  0
  -93.7390   24.5538   -4.5317 C   0  0  0  0  0  0  0  0  0  0  0  0
  -92.9211   25.7109   -4.0794 C   0  0  0  0  0  0  0  0  0  0  0  0
  -95.1664   23.7121   -6.3399 C   0  0  0  0  0  0  0  0  0  0  0  0
  -95.6231   22.5614   -5.7203 C   0  0  0  0  0  0  0  0  0  0  0  0
  -96.1168   21.4629   -6.3648 C   0  0  0  0  0  0  0  0  0  0  0  0
  -96.1633   21.5084   -7.7580 C   0  0  0  0  0  0  0  0  0  0  0  0
  -95.7255   22.6194   -8.4235 C   0  0  0  0  0  0  0  0  0  0  0  0
  -95.2271   23.7204   -7.7154 C   0  0  0  0  0  0  0  0  0  0  0  0
  -90.3889   33.0114   -5.0528 C   0  0  0  0  0  0  0  0  0  0  0  0
  -90.5482   35.4280   -4.3442 C   0  0  0  0  0  0  0  0  0  0  0  0
  -89.9393   34.3966   -5.2414 C   0  0  0  0  0  0  0  0  0  0  0  0
  -90.3318   34.7987   -6.6767 C   0  0  0  0  0  0  0  0  0  0  0  0
 39 40  1  0  0  0
 40 41  1  0  0  0
 40 38  1  0  0  0
 38  1  1  0  0  0
  1  2  1  0  0  0
  2  3  1  0  0  0
  3  4  2  0  0  0
  3  6  1  0  0  0
  6  7  2  0  0  0
  7  8  1  0  0  0
  8  9  2  0  0  0
  9 10  1  0  0  0
 10 11  2  0  0  0
  9 12  1  0  0  0
 12 13  2  0  0  0
 13 14  1  0  0  0
 14 15  2  0  0  0
 15 16  1  0  0  0
 16 17  2  0  0  0
  1 18  1  0  0  0
 18 19  2  0  0  0
 18 20  1  0  0  0
 20 22  1  0  0  0
 22 23  1  0  0  0
 22 24  1  0  0  0
 24 25  2  0  0  0
 24 26  1  0  0  0
 26 27  1  0  0  0
 27 28  1  0  0  0
 28 29  1  0  0  0
 29 30  1  0  0  0
 30 31  1  0  0  0
 29 32  1  0  0  0
 32 33  2  0  0  0
 33 34  1  0  0  0
 34 35  2  0  0  0
 35 36  1  0  0  0
 36 37  2  0  0  0
 11  6  1  0  0  0
 17 12  1  0  0  0
 31 26  1  0  0  0
 37 32  1  0  0  0
  2  5  1  0  0  0
 20 21  1  0  0  0
M  END
> <minimizedAffinity>
-8.72409

> <CNNscore>
0.1333061904

> <CNNaffinity>
5.9284806252

> <CNN_VS>
0.7903031707

> <CNNaffinity_variance>
0.1435594261

$$$$
[H]c1c([H])c([H])c(-c2c([H])c([H])c(C(=O)N([H])[C@]([H])(C(=O)N([H])[C@]([H])(C(=O)N3C([H])([H])C([H])([H])N(c4c([H])c([H])c([H])c([H])c4[H])C([H])([H])C3([H])[H])C([H])([H])[H])C([H])([H])C([H])(C([H])([H])[H])C([H])([H])[H])c([H])c2[H])c([H])c1[H]


 41 44  0  0  0  0  0  0  0  0999 V2000
  -90.9607   33.7447   -5.2738 C   0  0  0  0  0  0  0  0  0  0  0  0
  -89.8875   33.2058   -4.3897 N   0  0  0  0  0  0  0  0  0  0  0  0
  -89.2999   33.9702   -3.3874 C   0  0  0  0  0  0  0  0  0  0  0  0
  -89.6635   35.1829   -3.2065 O   0  0  0  0  0  0  0  0  0  0  0  0
  -89.6012   32.2251   -4.5654 H   0  0  0  0  0  0  0  0  0  0  0  0
  -88.2552   33.4746   -2.4838 C   0  0  0  0  0  0  0  0  0  0  0  0
  -88.5106   32.6474   -1.4365 C   0  0  0  0  0  0  0  0  0  0  0  0
  -87.4833   32.1859   -0.6454 C   0  0  0  0  0  0  0  0  0  0  0  0
  -86.1854   32.5419   -0.8861 C   0  0  0  0  0  0  0  0  0  0  0  0
  -85.9527   33.3789   -1.9476 C   0  0  0  0  0  0  0  0  0  0  0  0
  -86.9554   33.8544   -2.7523 C   0  0  0  0  0  0  0  0  0  0  0  0
  -85.0910   32.0570   -0.0701 C   0  0  0  0  0  0  0  0  0  0  0  0
  -83.7841   32.4517   -0.4017 C   0  0  0  0  0  0  0  0  0  0  0  0
  -82.6819   32.0375    0.3160 C   0  0  0  0  0  0  0  0  0  0  0  0
  -82.9078   31.2076    1.3911 C   0  0  0  0  0  0  0  0  0  0  0  0
  -84.1819   30.7941    1.7539 C   0  0  0  0  0  0  0  0  0  0  0  0
  -85.2453   31.2343    1.0068 C   0  0  0  0  0  0  0  0  0  0  0  0
  -92.1502   32.9321   -5.1529 C   0  0  0  0  0  0  0  0  0  0  0  0
  -93.1889   33.4706   -4.6376 O   0  0  0  0  0  0  0  0  0  0  0  0
  -92.2700   31.5842   -5.5661 N   0  0  0  0  0  0  0  0  0  0  0  0
  -91.4593   31.0940   -5.9924 H   0  0  0  0  0  0  0  0  0  0  0  0
  -93.5452   30.8647   -5.3983 C   0  0  0  0  0  0  0  0  0  0  0  0
  -94.3376   31.0454   -6.6998 C   0  0  0  0  0  0  0  0  0  0  0  0
  -93.3009   29.4614   -5.1082 C   0  0  0  0  0  0  0  0  0  0  0  0
  -93.9825   28.5676   -5.7028 O   0  0  0  0  0  0  0  0  0  0  0  0
  -92.3406   28.9700   -4.1924 N   0  0  0  0  0  0  0  0  0  0  0  0
  -91.4775   29.8710   -3.4643 C   0  0  0  0  0  0  0  0  0  0  0  0
  -91.8238   29.6699   -1.9919 C   0  0  0  0  0  0  0  0  0  0  0  0
  -91.5110   28.3168   -1.6461 N   0  0  0  0  0  0  0  0  0  0  0  0
  -91.4746   27.2690   -2.6312 C   0  0  0  0  0  0  0  0  0  0  0  0
  -92.1660   27.5581   -3.9160 C   0  0  0  0  0  0  0  0  0  0  0  0
  -91.2343   27.9822   -0.2969 C   0  0  0  0  0  0  0  0  0  0  0  0
  -91.2326   28.9296    0.7127 C   0  0  0  0  0  0  0  0  0  0  0  0
  -90.9681   28.6773    2.0288 C   0  0  0  0  0  0  0  0  0  0  0  0
  -90.6775   27.3590    2.3795 C   0  0  0  0  0  0  0  0  0  0  0  0
  -90.6648   26.3814    1.4240 C   0  0  0  0  0  0  0  0  0  0  0  0
  -90.9425   26.6924    0.0868 C   0  0  0  0  0  0  0  0  0  0  0  0
  -90.3393   33.9322   -6.6042 C   0  0  0  0  0  0  0  0  0  0  0  0
  -91.5864   36.1160   -6.8127 C   0  0  0  0  0  0  0  0  0  0  0  0
  -90.6328   35.1270   -7.4060 C   0  0  0  0  0  0  0  0  0  0  0  0
  -91.2897   34.6352   -8.7107 C   0  0  0  0  0  0  0  0  0  0  0  0
 39 40  1  0  0  0
 40 41  1  0  0  0
 40 38  1  0  0  0
 38  1  1  0  0  0
  1  2  1  0  0  0
  2  3  1  0  0  0
  3  4  2  0  0  0
  3  6  1  0  0  0
  6  7  2  0  0  0
  7  8  1  0  0  0
  8  9  2  0  0  0
  9 10  1  0  0  0
 10 11  2  0  0  0
  9 12  1  0  0  0
 12 13  2  0  0  0
 13 14  1  0  0  0
 14 15  2  0  0  0
 15 16  1  0  0  0
 16 17  2  0  0  0
  1 18  1  0  0  0
 18 19  2  0  0  0
 18 20  1  0  0  0
 20 22  1  0  0  0
 22 23  1  0  0  0
 22 24  1  0  0  0
 24 25  2  0  0  0
 24 26  1  0  0  0
 26 27  1  0  0  0
 27 28  1  0  0  0
 28 29  1  0  0  0
 29 30  1  0  0  0
 30 31  1  0  0  0
 29 32  1  0  0  0
 32 33  2  0  0  0
 33 34  1  0  0  0
 34 35  2  0  0  0
 35 36  1  0  0  0
 36 37  2  0  0  0
 11  6  1  0  0  0
 17 12  1  0  0  0
 31 26  1  0  0  0
 37 32  1  0  0  0
  2  5  1  0  0  0
 20 21  1  0  0  0
M  END
> <minimizedAffinity>
-9.16185

> <CNNscore>
0.1311810166

> <CNNaffinity>
6.0598449707

> <CNN_VS>
0.7949365973

> <CNNaffinity_variance>
0.4139043689

$$$$
[H]c1c([H])c([H])c(-c2c([H])c([H])c(C(=O)N([H])[C@]([H])(C(=O)N([H])[C@]([H])(C(=O)N3C([H])([H])C([H])([H])N(c4c([H])c([H])c([H])c([H])c4[H])C([H])([H])C3([H])[H])C([H])([H])[H])C([H])([H])C([H])(C([H])([H])[H])C([H])([H])[H])c([H])c2[H])c([H])c1[H]


 41 44  0  0  0  0  0  0  0  0999 V2000
  -89.1579   34.3285   -3.3119 C   0  0  0  0  0  0  0  0  0  0  0  0
  -88.1658   33.4756   -2.5964 N   0  0  0  0  0  0  0  0  0  0  0  0
  -88.4968   32.7520   -1.4558 C   0  0  0  0  0  0  0  0  0  0  0  0
  -89.6805   32.8140   -0.9756 O   0  0  0  0  0  0  0  0  0  0  0  0
  -87.2102   33.4528   -2.9976 H   0  0  0  0  0  0  0  0  0  0  0  0
  -87.5580   31.8867   -0.7322 C   0  0  0  0  0  0  0  0  0  0  0  0
  -87.8034   30.5750   -0.4765 C   0  0  0  0  0  0  0  0  0  0  0  0
  -86.8676   29.8044    0.1751 C   0  0  0  0  0  0  0  0  0  0  0  0
  -85.6727   30.3296    0.5819 C   0  0  0  0  0  0  0  0  0  0  0  0
  -85.4485   31.6561    0.3141 C   0  0  0  0  0  0  0  0  0  0  0  0
  -86.3616   32.4479   -0.3326 C   0  0  0  0  0  0  0  0  0  0  0  0
  -84.6722   29.5303    1.2595 C   0  0  0  0  0  0  0  0  0  0  0  0
  -85.0674   28.3097    1.8321 C   0  0  0  0  0  0  0  0  0  0  0  0
  -84.1852   27.4854    2.4983 C   0  0  0  0  0  0  0  0  0  0  0  0
  -82.8768   27.9052    2.5856 C   0  0  0  0  0  0  0  0  0  0  0  0
  -82.4439   29.1027    2.0339 C   0  0  0  0  0  0  0  0  0  0  0  0
  -83.3615   29.8870    1.3815 C   0  0  0  0  0  0  0  0  0  0  0  0
  -89.8962   33.5292   -4.2638 C   0  0  0  0  0  0  0  0  0  0  0  0
  -89.2916   33.1634   -5.3292 O   0  0  0  0  0  0  0  0  0  0  0  0
  -91.2378   33.1051   -4.1152 N   0  0  0  0  0  0  0  0  0  0  0  0
  -91.7797   33.3712   -3.2696 H   0  0  0  0  0  0  0  0  0  0  0  0
  -91.8775   32.2806   -5.1557 C   0  0  0  0  0  0  0  0  0  0  0  0
  -92.7571   31.2503   -4.4350 C   0  0  0  0  0  0  0  0  0  0  0  0
  -92.6555   33.1151   -6.0565 C   0  0  0  0  0  0  0  0  0  0  0  0
  -92.2410   33.3197   -7.2411 O   0  0  0  0  0  0  0  0  0  0  0  0
  -93.8789   33.7488   -5.7336 N   0  0  0  0  0  0  0  0  0  0  0  0
  -94.4815   33.5834   -4.4312 C   0  0  0  0  0  0  0  0  0  0  0  0
  -94.5070   34.9774   -3.8114 C   0  0  0  0  0  0  0  0  0  0  0  0
  -95.3401   35.8076   -4.6268 N   0  0  0  0  0  0  0  0  0  0  0  0
  -95.5663   35.5242   -6.0190 C   0  0  0  0  0  0  0  0  0  0  0  0
  -94.5936   34.6012   -6.6627 C   0  0  0  0  0  0  0  0  0  0  0  0
  -95.9611   36.9501   -4.0629 C   0  0  0  0  0  0  0  0  0  0  0  0
  -96.6587   37.8657   -4.8322 C   0  0  0  0  0  0  0  0  0  0  0  0
  -97.2732   38.9885   -4.3555 C   0  0  0  0  0  0  0  0  0  0  0  0
  -97.1895   39.2278   -2.9840 C   0  0  0  0  0  0  0  0  0  0  0  0
  -96.5132   38.3574   -2.1753 C   0  0  0  0  0  0  0  0  0  0  0  0
  -95.8991   37.2196   -2.7140 C   0  0  0  0  0  0  0  0  0  0  0  0
  -88.4117   35.5168   -3.7831 C   0  0  0  0  0  0  0  0  0  0  0  0
  -89.9982   37.3892   -4.3706 C   0  0  0  0  0  0  0  0  0  0  0  0
  -88.9009   36.8711   -3.4947 C   0  0  0  0  0  0  0  0  0  0  0  0
  -87.7087   37.8263   -3.6995 C   0  0  0  0  0  0  0  0  0  0  0  0
 39 40  1  0  0  0
 40 41  1  0  0  0
 40 38  1  0  0  0
 38  1  1  0  0  0
  1  2  1  0  0  0
  2  3  1  0  0  0
  3  4  2  0  0  0
  3  6  1  0  0  0
  6  7  2  0  0  0
  7  8  1  0  0  0
  8  9  2  0  0  0
  9 10  1  0  0  0
 10 11  2  0  0  0
  9 12  1  0  0  0
 12 13  2  0  0  0
 13 14  1  0  0  0
 14 15  2  0  0  0
 15 16  1  0  0  0
 16 17  2  0  0  0
  1 18  1  0  0  0
 18 19  2  0  0  0
 18 20  1  0  0  0
 20 22  1  0  0  0
 22 23  1  0  0  0
 22 24  1  0  0  0
 24 25  2  0  0  0
 24 26  1  0  0  0
 26 27  1  0  0  0
 27 28  1  0  0  0
 28 29  1  0  0  0
 29 30  1  0  0  0
 30 31  1  0  0  0
 29 32  1  0  0  0
 32 33  2  0  0  0
 33 34  1  0  0  0
 34 35  2  0  0  0
 35 36  1  0  0  0
 36 37  2  0  0  0
 11  6  1  0  0  0
 17 12  1  0  0  0
 31 26  1  0  0  0
 37 32  1  0  0  0
  2  5  1  0  0  0
 20 21  1  0  0  0
M  END
> <minimizedAffinity>
-8.39511

> <CNNscore>
0.1288901120

> <CNNaffinity>
5.9260120392

> <CNN_VS>
0.7638043761

> <CNNaffinity_variance>
0.3305327296

$$$$
[H]c1c([H])c([H])c(-c2c([H])c([H])c(C(=O)N([H])[C@]([H])(C(=O)N([H])[C@]([H])(C(=O)N3C([H])([H])C([H])([H])N(c4c([H])c([H])c([H])c([H])c4[H])C([H])([H])C3([H])[H])C([H])([H])[H])C([H])([H])C([H])(C([H])([H])[H])C([H])([H])[H])c([H])c2[H])c([H])c1[H]


 41 44  0  0  0  0  0  0  0  0999 V2000
  -90.2084   34.7714   -4.9273 C   0  0  0  0  0  0  0  0  0  0  0  0
  -89.2675   33.9633   -4.0994 N   0  0  0  0  0  0  0  0  0  0  0  0
  -88.4528   34.5380   -3.1299 C   0  0  0  0  0  0  0  0  0  0  0  0
  -88.4815   35.8011   -2.9317 O   0  0  0  0  0  0  0  0  0  0  0  0
  -89.2533   32.9441   -4.2886 H   0  0  0  0  0  0  0  0  0  0  0  0
  -87.5273   33.7787   -2.2810 C   0  0  0  0  0  0  0  0  0  0  0  0
  -86.1850   33.9890   -2.2727 C   0  0  0  0  0  0  0  0  0  0  0  0
  -85.3714   33.2700   -1.4270 C   0  0  0  0  0  0  0  0  0  0  0  0
  -85.8835   32.3300   -0.5765 C   0  0  0  0  0  0  0  0  0  0  0  0
  -87.2409   32.1343   -0.6041 C   0  0  0  0  0  0  0  0  0  0  0  0
  -88.0756   32.8351   -1.4354 C   0  0  0  0  0  0  0  0  0  0  0  0
  -85.0430   31.5717    0.3276 C   0  0  0  0  0  0  0  0  0  0  0  0
  -83.6856   31.4119    0.0026 C   0  0  0  0  0  0  0  0  0  0  0  0
  -82.8122   30.7044    0.8014 C   0  0  0  0  0  0  0  0  0  0  0  0
  -83.3234   30.1484    1.9525 C   0  0  0  0  0  0  0  0  0  0  0  0
  -84.6572   30.2823    2.3117 C   0  0  0  0  0  0  0  0  0  0  0  0
  -85.4851   30.9959    1.4822 C   0  0  0  0  0  0  0  0  0  0  0  0
  -91.5465   34.2361   -4.8131 C   0  0  0  0  0  0  0  0  0  0  0  0
  -92.5022   35.0611   -4.6123 O   0  0  0  0  0  0  0  0  0  0  0  0
  -91.8958   32.8687   -4.9133 N   0  0  0  0  0  0  0  0  0  0  0  0
  -91.1615   32.1521   -5.0769 H   0  0  0  0  0  0  0  0  0  0  0  0
  -93.3030   32.4489   -4.7898 C   0  0  0  0  0  0  0  0  0  0  0  0
  -93.6576   31.6828   -6.0711 C   0  0  0  0  0  0  0  0  0  0  0  0
  -93.4845   31.6270   -3.6046 C   0  0  0  0  0  0  0  0  0  0  0  0
  -94.4484   31.8696   -2.8116 O   0  0  0  0  0  0  0  0  0  0  0  0
  -92.6617   30.5385   -3.2295 N   0  0  0  0  0  0  0  0  0  0  0  0
  -91.5440   30.1332   -4.0502 C   0  0  0  0  0  0  0  0  0  0  0  0
  -90.3038   30.3442   -3.1868 C   0  0  0  0  0  0  0  0  0  0  0  0
  -90.4059   29.4811   -2.0498 N   0  0  0  0  0  0  0  0  0  0  0  0
  -91.6757   29.0130   -1.5618 C   0  0  0  0  0  0  0  0  0  0  0  0
  -92.8694   29.7761   -2.0146 C   0  0  0  0  0  0  0  0  0  0  0  0
  -89.2314   29.0730   -1.3694 C   0  0  0  0  0  0  0  0  0  0  0  0
  -88.0268   28.8841   -2.0254 C   0  0  0  0  0  0  0  0  0  0  0  0
  -86.8620   28.4859   -1.4336 C   0  0  0  0  0  0  0  0  0  0  0  0
  -86.8924   28.2527   -0.0588 C   0  0  0  0  0  0  0  0  0  0  0  0
  -88.0545   28.4232    0.6408 C   0  0  0  0  0  0  0  0  0  0  0  0
  -89.2233   28.8326   -0.0137 C   0  0  0  0  0  0  0  0  0  0  0  0
  -89.5822   34.8867   -6.2636 C   0  0  0  0  0  0  0  0  0  0  0  0
  -87.5233   36.3430   -6.3528 C   0  0  0  0  0  0  0  0  0  0  0  0
  -88.9669   36.1481   -6.6958 C   0  0  0  0  0  0  0  0  0  0  0  0
  -89.7289   37.2812   -5.9807 C   0  0  0  0  0  0  0  0  0  0  0  0
 39 40  1  0  0  0
 40 41  1  0  0  0
 40 38  1  0  0  0
 38  1  1  0  0  0
  1  2  1  0  0  0
  2  3  1  0  0  0
  3  4  2  0  0  0
  3  6  1  0  0  0
  6  7  2  0  0  0
  7  8  1  0  0  0
  8  9  2  0  0  0
  9 10  1  0  0  0
 10 11  2  0  0  0
  9 12  1  0  0  0
 12 13  2  0  0  0
 13 14  1  0  0  0
 14 15  2  0  0  0
 15 16  1  0  0  0
 16 17  2  0  0  0
  1 18  1  0  0  0
 18 19  2  0  0  0
 18 20  1  0  0  0
 20 22  1  0  0  0
 22 23  1  0  0  0
 22 24  1  0  0  0
 24 25  2  0  0  0
 24 26  1  0  0  0
 26 27  1  0  0  0
 27 28  1  0  0  0
 28 29  1  0  0  0
 29 30  1  0  0  0
 30 31  1  0  0  0
 29 32  1  0  0  0
 32 33  2  0  0  0
 33 34  1  0  0  0
 34 35  2  0  0  0
 35 36  1  0  0  0
 36 37  2  0  0  0
 11  6  1  0  0  0
 17 12  1  0  0  0
 31 26  1  0  0  0
 37 32  1  0  0  0
  2  5  1  0  0  0
 20 21  1  0  0  0
M  END
> <minimizedAffinity>
-9.14939

> <CNNscore>
0.1141028777

> <CNNaffinity>
6.0930242538

> <CNN_VS>
0.6952316165

> <CNNaffinity_variance>
0.7119391561

$$$$
[H]c1c([H])c([H])c(-c2c([H])c([H])c(C(=O)N([H])[C@]([H])(C(=O)N([H])[C@]([H])(C(=O)N3C([H])([H])C([H])([H])N(c4c([H])c([H])c([H])c([H])c4[H])C([H])([H])C3([H])[H])C([H])([H])[H])C([H])([H])C([H])(C([H])([H])[H])C([H])([H])[H])c([H])c2[H])c([H])c1[H]


 41 44  0  0  0  0  0  0  0  0999 V2000
  -86.4774   30.4043    0.1955 C   0  0  0  0  0  0  0  0  0  0  0  0
  -87.4063   29.2421    0.0948 N   0  0  0  0  0  0  0  0  0  0  0  0
  -87.5172   28.2927    1.1050 C   0  0  0  0  0  0  0  0  0  0  0  0
  -86.7995   28.3882    2.1592 O   0  0  0  0  0  0  0  0  0  0  0  0
  -87.9668   29.1800   -0.7750 H   0  0  0  0  0  0  0  0  0  0  0  0
  -88.4307   27.1453    1.0554 C   0  0  0  0  0  0  0  0  0  0  0  0
  -89.5035   27.0142    1.8789 C   0  0  0  0  0  0  0  0  0  0  0  0
  -90.3461   25.9325    1.7601 C   0  0  0  0  0  0  0  0  0  0  0  0
  -90.1321   24.9646    0.8185 C   0  0  0  0  0  0  0  0  0  0  0  0
  -89.0421   25.1179    0.0000 C   0  0  0  0  0  0  0  0  0  0  0  0
  -88.1858   26.1840    0.0952 C   0  0  0  0  0  0  0  0  0  0  0  0
  -91.0148   23.8251    0.6727 C   0  0  0  0  0  0  0  0  0  0  0  0
  -90.4445   22.5434    0.5958 C   0  0  0  0  0  0  0  0  0  0  0  0
  -91.2058   21.4026    0.4538 C   0  0  0  0  0  0  0  0  0  0  0  0
  -92.5718   21.5627    0.3891 C   0  0  0  0  0  0  0  0  0  0  0  0
  -93.1764   22.8097    0.4618 C   0  0  0  0  0  0  0  0  0  0  0  0
  -92.3740   23.9138    0.6026 C   0  0  0  0  0  0  0  0  0  0  0  0
  -86.6289   31.2555   -0.9632 C   0  0  0  0  0  0  0  0  0  0  0  0
  -85.9133   32.3134   -1.0220 O   0  0  0  0  0  0  0  0  0  0  0  0
  -87.5006   31.0148   -2.0513 N   0  0  0  0  0  0  0  0  0  0  0  0
  -88.1061   30.1706   -2.0593 H   0  0  0  0  0  0  0  0  0  0  0  0
  -87.5556   31.9566   -3.1835 C   0  0  0  0  0  0  0  0  0  0  0  0
  -87.7979   31.1238   -4.4493 C   0  0  0  0  0  0  0  0  0  0  0  0
  -88.6080   32.9376   -2.9760 C   0  0  0  0  0  0  0  0  0  0  0  0
  -89.6767   32.5975   -2.3767 O   0  0  0  0  0  0  0  0  0  0  0  0
  -88.5603   34.2895   -3.3914 N   0  0  0  0  0  0  0  0  0  0  0  0
  -87.3964   34.8212   -4.0618 C   0  0  0  0  0  0  0  0  0  0  0  0
  -87.8766   35.2364   -5.4493 C   0  0  0  0  0  0  0  0  0  0  0  0
  -88.8541   36.2691   -5.2871 N   0  0  0  0  0  0  0  0  0  0  0  0
  -89.6210   36.4071   -4.0777 C   0  0  0  0  0  0  0  0  0  0  0  0
  -89.6572   35.2148   -3.1893 C   0  0  0  0  0  0  0  0  0  0  0  0
  -89.0903   37.1854   -6.3423 C   0  0  0  0  0  0  0  0  0  0  0  0
  -90.1462   38.0806   -6.3193 C   0  0  0  0  0  0  0  0  0  0  0  0
  -90.4348   38.9832   -7.3030 C   0  0  0  0  0  0  0  0  0  0  0  0
  -89.5963   39.0017   -8.4174 C   0  0  0  0  0  0  0  0  0  0  0  0
  -88.5378   38.1400   -8.4944 C   0  0  0  0  0  0  0  0  0  0  0  0
  -88.2849   37.2322   -7.4581 C   0  0  0  0  0  0  0  0  0  0  0  0
  -85.1471   29.8386    0.5140 C   0  0  0  0  0  0  0  0  0  0  0  0
  -82.8966   29.9404    1.6512 C   0  0  0  0  0  0  0  0  0  0  0  0
  -84.1301   30.6527    1.1920 C   0  0  0  0  0  0  0  0  0  0  0  0
  -84.7909   31.2187    2.4642 C   0  0  0  0  0  0  0  0  0  0  0  0
 39 40  1  0  0  0
 40 41  1  0  0  0
 40 38  1  0  0  0
 38  1  1  0  0  0
  1  2  1  0  0  0
  2  3  1  0  0  0
  3  4  2  0  0  0
  3  6  1  0  0  0
  6  7  2  0  0  0
  7  8  1  0  0  0
  8  9  2  0  0  0
  9 10  1  0  0  0
 10 11  2  0  0  0
  9 12  1  0  0  0
 12 13  2  0  0  0
 13 14  1  0  0  0
 14 15  2  0  0  0
 15 16  1  0  0  0
 16 17  2  0  0  0
  1 18  1  0  0  0
 18 19  2  0  0  0
 18 20  1  0  0  0
 20 22  1  0  0  0
 22 23  1  0  0  0
 22 24  1  0  0  0
 24 25  2  0  0  0
 24 26  1  0  0  0
 26 27  1  0  0  0
 27 28  1  0  0  0
 28 29  1  0  0  0
 29 30  1  0  0  0
 30 31  1  0  0  0
 29 32  1  0  0  0
 32 33  2  0  0  0
 33 34  1  0  0  0
 34 35  2  0  0  0
 35 36  1  0  0  0
 36 37  2  0  0  0
 11  6  1  0  0  0
 17 12  1  0  0  0
 31 26  1  0  0  0
 37 32  1  0  0  0
  2  5  1  0  0  0
 20 21  1  0  0  0
M  END
> <minimizedAffinity>
-8.17258

> <CNNscore>
0.1012836397

> <CNNaffinity>
6.0944042206

> <CNN_VS>
0.6172634363

> <CNNaffinity_variance>
0.1336106956

$$$$
[H]c1c([H])c([H])c(-c2c([H])c([H])c(C(=O)N([H])[C@]([H])(C(=O)N([H])[C@]([H])(C(=O)N3C([H])([H])C([H])([H])N(c4c([H])c([H])c([H])c([H])c4[H])C([H])([H])C3([H])[H])C([H])([H])[H])C([H])([H])C([H])(C([H])([H])[H])C([H])([H])[H])c([H])c2[H])c([H])c1[H]


 41 44  0  0  0  0  0  0  0  0999 V2000
  -88.9823   34.3878   -3.0473 C   0  0  0  0  0  0  0  0  0  0  0  0
  -87.9945   33.5056   -2.3620 N   0  0  0  0  0  0  0  0  0  0  0  0
  -88.3047   32.8102   -1.1981 C   0  0  0  0  0  0  0  0  0  0  0  0
  -89.4634   32.9251   -0.6695 O   0  0  0  0  0  0  0  0  0  0  0  0
  -87.0585   33.4399   -2.8027 H   0  0  0  0  0  0  0  0  0  0  0  0
  -87.3703   31.9178   -0.5023 C   0  0  0  0  0  0  0  0  0  0  0  0
  -87.6701   30.6315   -0.1836 C   0  0  0  0  0  0  0  0  0  0  0  0
  -86.7382   29.8312    0.4371 C   0  0  0  0  0  0  0  0  0  0  0  0
  -85.4929   30.3011    0.7498 C   0  0  0  0  0  0  0  0  0  0  0  0
  -85.2142   31.6030    0.4198 C   0  0  0  0  0  0  0  0  0  0  0  0
  -86.1220   32.4233   -0.1982 C   0  0  0  0  0  0  0  0  0  0  0  0
  -84.4965   29.4694    1.3935 C   0  0  0  0  0  0  0  0  0  0  0  0
  -84.9188   28.2868    2.0235 C   0  0  0  0  0  0  0  0  0  0  0  0
  -84.0422   27.4360    2.6632 C   0  0  0  0  0  0  0  0  0  0  0  0
  -82.7115   27.7895    2.6643 C   0  0  0  0  0  0  0  0  0  0  0  0
  -82.2515   28.9478    2.0538 C   0  0  0  0  0  0  0  0  0  0  0  0
  -83.1647   29.7608    1.4310 C   0  0  0  0  0  0  0  0  0  0  0  0
  -89.9405   33.5826   -3.7708 C   0  0  0  0  0  0  0  0  0  0  0  0
  -89.9630   33.6859   -5.0449 O   0  0  0  0  0  0  0  0  0  0  0  0
  -90.8578   32.6760   -3.1889 N   0  0  0  0  0  0  0  0  0  0  0  0
  -90.8851   32.5493   -2.1581 H   0  0  0  0  0  0  0  0  0  0  0  0
  -91.7799   31.9018   -4.0387 C   0  0  0  0  0  0  0  0  0  0  0  0
  -90.9368   31.2609   -5.1490 C   0  0  0  0  0  0  0  0  0  0  0  0
  -92.4779   30.9011   -3.2484 C   0  0  0  0  0  0  0  0  0  0  0  0
  -93.7002   31.0781   -2.9457 O   0  0  0  0  0  0  0  0  0  0  0  0
  -91.9097   29.6998   -2.7622 N   0  0  0  0  0  0  0  0  0  0  0  0
  -90.5368   29.3556   -3.0513 C   0  0  0  0  0  0  0  0  0  0  0  0
  -89.8326   29.3083   -1.6985 C   0  0  0  0  0  0  0  0  0  0  0  0
  -90.4376   28.2692   -0.9224 N   0  0  0  0  0  0  0  0  0  0  0  0
  -91.7859   27.8280   -1.1617 C   0  0  0  0  0  0  0  0  0  0  0  0
  -92.6452   28.7544   -1.9463 C   0  0  0  0  0  0  0  0  0  0  0  0
  -89.7027   27.6524    0.1209 C   0  0  0  0  0  0  0  0  0  0  0  0
  -88.7660   26.6623   -0.1222 C   0  0  0  0  0  0  0  0  0  0  0  0
  -88.0299   26.0228    0.8342 C   0  0  0  0  0  0  0  0  0  0  0  0
  -88.2413   26.4006    2.1601 C   0  0  0  0  0  0  0  0  0  0  0  0
  -89.1542   27.3731    2.4595 C   0  0  0  0  0  0  0  0  0  0  0  0
  -89.8847   27.9985    1.4411 C   0  0  0  0  0  0  0  0  0  0  0  0
  -88.1883   35.4034   -3.7749 C   0  0  0  0  0  0  0  0  0  0  0  0
  -89.6579   37.3773   -4.3329 C   0  0  0  0  0  0  0  0  0  0  0  0
  -88.4680   36.8350   -3.6053 C   0  0  0  0  0  0  0  0  0  0  0  0
  -87.2481   37.5943   -4.1629 C   0  0  0  0  0  0  0  0  0  0  0  0
 39 40  1  0  0  0
 40 41  1  0  0  0
 40 38  1  0  0  0
 38  1  1  0  0  0
  1  2  1  0  0  0
  2  3  1  0  0  0
  3  4  2  0  0  0
  3  6  1  0  0  0
  6  7  2  0  0  0
  7  8  1  0  0  0
  8  9  2  0  0  0
  9 10  1  0  0  0
 10 11  2  0  0  0
  9 12  1  0  0  0
 12 13  2  0  0  0
 13 14  1  0  0  0
 14 15  2  0  0  0
 15 16  1  0  0  0
 16 17  2  0  0  0
  1 18  1  0  0  0
 18 19  2  0  0  0
 18 20  1  0  0  0
 20 22  1  0  0  0
 22 23  1  0  0  0
 22 24  1  0  0  0
 24 25  2  0  0  0
 24 26  1  0  0  0
 26 27  1  0  0  0
 27 28  1  0  0  0
 28 29  1  0  0  0
 29 30  1  0  0  0
 30 31  1  0  0  0
 29 32  1  0  0  0
 32 33  2  0  0  0
 33 34  1  0  0  0
 34 35  2  0  0  0
 35 36  1  0  0  0
 36 37  2  0  0  0
 11  6  1  0  0  0
 17 12  1  0  0  0
 31 26  1  0  0  0
 37 32  1  0  0  0
  2  5  1  0  0  0
 20 21  1  0  0  0
M  END
> <minimizedAffinity>
-9.54543

> <CNNscore>
0.0966189355

> <CNNaffinity>
6.3312487602

> <CNN_VS>
0.6117185354

> <CNNaffinity_variance>
0.4168627858

$$$$
[H]c1c([H])c([H])c(-c2c([H])c([H])c(C(=O)N([H])[C@]([H])(C(=O)N([H])[C@]([H])(C(=O)N3C([H])([H])C([H])([H])N(c4c([H])c([H])c([H])c([H])c4[H])C([H])([H])C3([H])[H])C([H])([H])[H])C([H])([H])C([H])(C([H])([H])[H])C([H])([H])[H])c([H])c2[H])c([H])c1[H]


 41 44  0  0  0  0  0  0  0  0999 V2000
  -90.7466   32.7163   -3.9522 C   0  0  0  0  0  0  0  0  0  0  0  0
  -89.6762   32.0142   -3.1875 N   0  0  0  0  0  0  0  0  0  0  0  0
  -88.8711   32.6732   -2.2647 C   0  0  0  0  0  0  0  0  0  0  0  0
  -89.0236   33.9258   -2.0567 O   0  0  0  0  0  0  0  0  0  0  0  0
  -89.5638   31.0025   -3.3840 H   0  0  0  0  0  0  0  0  0  0  0  0
  -87.8199   32.0180   -1.4777 C   0  0  0  0  0  0  0  0  0  0  0  0
  -86.7921   32.6951   -0.9023 C   0  0  0  0  0  0  0  0  0  0  0  0
  -85.8558   32.0295   -0.1443 C   0  0  0  0  0  0  0  0  0  0  0  0
  -85.9297   30.6785    0.0516 C   0  0  0  0  0  0  0  0  0  0  0  0
  -86.9750   30.0165   -0.5405 C   0  0  0  0  0  0  0  0  0  0  0  0
  -87.9219   30.6526   -1.3006 C   0  0  0  0  0  0  0  0  0  0  0  0
  -84.9589   29.9638    0.8551 C   0  0  0  0  0  0  0  0  0  0  0  0
  -85.3910   28.8458    1.5879 C   0  0  0  0  0  0  0  0  0  0  0  0
  -84.5388   28.1071    2.3814 C   0  0  0  0  0  0  0  0  0  0  0  0
  -83.2227   28.5082    2.4332 C   0  0  0  0  0  0  0  0  0  0  0  0
  -82.7536   29.6057    1.7250 C   0  0  0  0  0  0  0  0  0  0  0  0
  -83.6424   30.3074    0.9502 C   0  0  0  0  0  0  0  0  0  0  0  0
  -91.9586   31.9284   -3.9361 C   0  0  0  0  0  0  0  0  0  0  0  0
  -92.2388   31.2896   -2.8646 O   0  0  0  0  0  0  0  0  0  0  0  0
  -92.8745   31.8075   -5.0077 N   0  0  0  0  0  0  0  0  0  0  0  0
  -92.6999   32.3044   -5.9033 H   0  0  0  0  0  0  0  0  0  0  0  0
  -94.0847   30.9790   -4.8628 C   0  0  0  0  0  0  0  0  0  0  0  0
  -95.2906   31.9205   -4.9808 C   0  0  0  0  0  0  0  0  0  0  0  0
  -94.1124   29.9402   -5.8793 C   0  0  0  0  0  0  0  0  0  0  0  0
  -94.7140   30.1516   -6.9794 O   0  0  0  0  0  0  0  0  0  0  0  0
  -93.5118   28.6643   -5.7622 N   0  0  0  0  0  0  0  0  0  0  0  0
  -92.7730   28.2956   -4.5768 C   0  0  0  0  0  0  0  0  0  0  0  0
  -93.5328   27.1200   -3.9695 C   0  0  0  0  0  0  0  0  0  0  0  0
  -93.5040   26.0425   -4.9109 N   0  0  0  0  0  0  0  0  0  0  0  0
  -93.3340   26.2692   -6.3214 C   0  0  0  0  0  0  0  0  0  0  0  0
  -93.6032   27.6529   -6.7962 C   0  0  0  0  0  0  0  0  0  0  0  0
  -93.6535   24.7082   -4.4568 C   0  0  0  0  0  0  0  0  0  0  0  0
  -92.7832   24.1379   -3.5435 C   0  0  0  0  0  0  0  0  0  0  0  0
  -92.8650   22.8591   -3.0705 C   0  0  0  0  0  0  0  0  0  0  0  0
  -93.9102   22.0684   -3.5475 C   0  0  0  0  0  0  0  0  0  0  0  0
  -94.8002   22.5791   -4.4509 C   0  0  0  0  0  0  0  0  0  0  0  0
  -94.6721   23.8977   -4.9057 C   0  0  0  0  0  0  0  0  0  0  0  0
  -90.1420   33.0949   -5.2492 C   0  0  0  0  0  0  0  0  0  0  0  0
  -90.3070   34.8794   -7.0258 C   0  0  0  0  0  0  0  0  0  0  0  0
  -89.9768   34.5078   -5.6143 C   0  0  0  0  0  0  0  0  0  0  0  0
  -88.4841   34.8428   -5.4261 C   0  0  0  0  0  0  0  0  0  0  0  0
 39 40  1  0  0  0
 40 41  1  0  0  0
 40 38  1  0  0  0
 38  1  1  0  0  0
  1  2  1  0  0  0
  2  3  1  0  0  0
  3  4  2  0  0  0
  3  6  1  0  0  0
  6  7  2  0  0  0
  7  8  1  0  0  0
  8  9  2  0  0  0
  9 10  1  0  0  0
 10 11  2  0  0  0
  9 12  1  0  0  0
 12 13  2  0  0  0
 13 14  1  0  0  0
 14 15  2  0  0  0
 15 16  1  0  0  0
 16 17  2  0  0  0
  1 18  1  0  0  0
 18 19  2  0  0  0
 18 20  1  0  0  0
 20 22  1  0  0  0
 22 23  1  0  0  0
 22 24  1  0  0  0
 24 25  2  0  0  0
 24 26  1  0  0  0
 26 27  1  0  0  0
 27 28  1  0  0  0
 28 29  1  0  0  0
 29 30  1  0  0  0
 30 31  1  0  0  0
 29 32  1  0  0  0
 32 33  2  0  0  0
 33 34  1  0  0  0
 34 35  2  0  0  0
 35 36  1  0  0  0
 36 37  2  0  0  0
 11  6  1  0  0  0
 17 12  1  0  0  0
 31 26  1  0  0  0
 37 32  1  0  0  0
  2  5  1  0  0  0
 20 21  1  0  0  0
M  END
> <minimizedAffinity>
-8.84046

> <CNNscore>
0.0926955938

> <CNNaffinity>
5.7594585419

> <CNN_VS>
0.5338764191

> <CNNaffinity_variance>
0.1665994972

$$$$
[H]c1c([H])c([H])c(-c2c([H])c([H])c(C(=O)N([H])[C@]([H])(C(=O)N3C([H])([H])C([H])([H])N(c4c([H])c([H])c([H])c([H])c4[H])C([H])([H])C3([H])[H])C([H])([H])C([H])(C([H])([H])[H])C([H])([H])[H])c([H])c2[H])c([H])c1[H]


 35 38  0  0  0  0  0  0  0  0999 V2000
  -87.9597   28.6519   -1.0314 C   0  0  0  0  0  0  0  0  0  0  0  0
  -89.2912   28.3903   -0.4492 C   0  0  0  0  0  0  0  0  0  0  0  0
  -89.7491   28.9929    0.5760 O   0  0  0  0  0  0  0  0  0  0  0  0
  -90.1349   27.4109   -1.0528 N   0  0  0  0  0  0  0  0  0  0  0  0
  -91.4463   27.0988   -0.4526 C   0  0  0  0  0  0  0  0  0  0  0  0
  -92.4204   26.9827   -1.6065 C   0  0  0  0  0  0  0  0  0  0  0  0
  -91.9507   25.9314   -2.4920 N   0  0  0  0  0  0  0  0  0  0  0  0
  -90.5747   25.4901   -2.4208 C   0  0  0  0  0  0  0  0  0  0  0  0
  -89.7269   26.7602   -2.2586 C   0  0  0  0  0  0  0  0  0  0  0  0
  -92.8519   25.3529   -3.4221 C   0  0  0  0  0  0  0  0  0  0  0  0
  -93.4571   26.0171   -4.4618 C   0  0  0  0  0  0  0  0  0  0  0  0
  -94.3336   25.3940   -5.3304 C   0  0  0  0  0  0  0  0  0  0  0  0
  -94.6472   24.0613   -5.1957 C   0  0  0  0  0  0  0  0  0  0  0  0
  -94.0518   23.3782   -4.1614 C   0  0  0  0  0  0  0  0  0  0  0  0
  -93.1796   24.0003   -3.2975 C   0  0  0  0  0  0  0  0  0  0  0  0
  -87.8816   30.0375   -1.4297 N   0  0  0  0  0  0  0  0  0  0  0  0
  -87.8635   30.4868   -2.7534 C   0  0  0  0  0  0  0  0  0  0  0  0
  -87.9270   29.6647   -3.7183 O   0  0  0  0  0  0  0  0  0  0  0  0
  -87.8381   30.7904   -0.6580 H   0  0  0  0  0  0  0  0  0  0  0  0
  -87.7707   31.9305   -3.0477 C   0  0  0  0  0  0  0  0  0  0  0  0
  -88.0731   32.3597   -4.3185 C   0  0  0  0  0  0  0  0  0  0  0  0
  -87.9891   33.7150   -4.6373 C   0  0  0  0  0  0  0  0  0  0  0  0
  -87.6057   34.6451   -3.6990 C   0  0  0  0  0  0  0  0  0  0  0  0
  -87.3049   34.2046   -2.4292 C   0  0  0  0  0  0  0  0  0  0  0  0
  -87.3882   32.8382   -2.1026 C   0  0  0  0  0  0  0  0  0  0  0  0
  -87.5033   36.0840   -3.9931 C   0  0  0  0  0  0  0  0  0  0  0  0
  -88.0551   37.0293   -3.1760 C   0  0  0  0  0  0  0  0  0  0  0  0
  -87.9315   38.3592   -3.4942 C   0  0  0  0  0  0  0  0  0  0  0  0
  -87.2522   38.7460   -4.6361 C   0  0  0  0  0  0  0  0  0  0  0  0
  -86.6922   37.8016   -5.4662 C   0  0  0  0  0  0  0  0  0  0  0  0
  -86.8311   36.4843   -5.1242 C   0  0  0  0  0  0  0  0  0  0  0  0
  -86.8297   28.2314   -0.1633 C   0  0  0  0  0  0  0  0  0  0  0  0
  -86.0535   28.7921    2.2031 C   0  0  0  0  0  0  0  0  0  0  0  0
  -86.2868   29.1974    0.8034 C   0  0  0  0  0  0  0  0  0  0  0  0
  -84.9161   29.6431    0.2469 C   0  0  0  0  0  0  0  0  0  0  0  0
 33 34  1  0  0  0
 34 35  1  0  0  0
 34 32  1  0  0  0
 32  1  1  0  0  0
  1 16  1  0  0  0
 16 17  1  0  0  0
 17 18  2  0  0  0
 17 20  1  0  0  0
 20 21  2  0  0  0
 21 22  1  0  0  0
 22 23  2  0  0  0
 23 24  1  0  0  0
 24 25  2  0  0  0
 23 26  1  0  0  0
 26 27  2  0  0  0
 27 28  1  0  0  0
 28 29  2  0  0  0
 29 30  1  0  0  0
 30 31  2  0  0  0
  1  2  1  0  0  0
  2  3  2  0  0  0
  2  4  1  0  0  0
  4  5  1  0  0  0
  5  6  1  0  0  0
  6  7  1  0  0  0
  7  8  1  0  0  0
  8  9  1  0  0  0
  7 10  1  0  0  0
 10 11  2  0  0  0
 11 12  1  0  0  0
 12 13  2  0  0  0
 13 14  1  0  0  0
 14 15  2  0  0  0
 25 20  1  0  0  0
 31 26  1  0  0  0
  9  4  1  0  0  0
 15 10  1  0  0  0
 16 19  1  0  0  0
M  END
> <minimizedAffinity>
-8.01389

> <CNNscore>
0.1494113803

> <CNNaffinity>
5.7450304031

> <CNN_VS>
0.8583729267

> <CNNaffinity_variance>
0.2816779912

$$$$
[H]c1c([H])c([H])c(-c2c([H])c([H])c(C(=O)N([H])[C@]([H])(C(=O)N3C([H])([H])C([H])([H])N(c4c([H])c([H])c([H])c([H])c4[H])C([H])([H])C3([H])[H])C([H])([H])C([H])(C([H])([H])[H])C([H])([H])[H])c([H])c2[H])c([H])c1[H]


 35 38  0  0  0  0  0  0  0  0999 V2000
  -85.4394   29.7665    0.6610 C   0  0  0  0  0  0  0  0  0  0  0  0
  -86.1671   28.8769    1.5879 C   0  0  0  0  0  0  0  0  0  0  0  0
  -86.1051   28.9696    2.8573 O   0  0  0  0  0  0  0  0  0  0  0  0
  -86.9970   27.8456    1.0558 N   0  0  0  0  0  0  0  0  0  0  0  0
  -87.6889   26.9140    1.9674 C   0  0  0  0  0  0  0  0  0  0  0  0
  -89.0878   26.7434    1.4125 C   0  0  0  0  0  0  0  0  0  0  0  0
  -88.9788   26.2203    0.0618 N   0  0  0  0  0  0  0  0  0  0  0  0
  -87.7276   26.3321   -0.6559 C   0  0  0  0  0  0  0  0  0  0  0  0
  -87.1881   27.7385   -0.3569 C   0  0  0  0  0  0  0  0  0  0  0  0
  -90.1087   25.6085   -0.5390 C   0  0  0  0  0  0  0  0  0  0  0  0
  -91.4198   25.9005   -0.2487 C   0  0  0  0  0  0  0  0  0  0  0  0
  -92.4771   25.2602   -0.8675 C   0  0  0  0  0  0  0  0  0  0  0  0
  -92.2669   24.2868   -1.8167 C   0  0  0  0  0  0  0  0  0  0  0  0
  -90.9617   23.9798   -2.1220 C   0  0  0  0  0  0  0  0  0  0  0  0
  -89.9103   24.6183   -1.5048 C   0  0  0  0  0  0  0  0  0  0  0  0
  -86.3452   30.2206   -0.3677 N   0  0  0  0  0  0  0  0  0  0  0  0
  -86.5791   31.5608   -0.6892 C   0  0  0  0  0  0  0  0  0  0  0  0
  -85.9739   32.4908   -0.0730 O   0  0  0  0  0  0  0  0  0  0  0  0
  -86.8829   29.4803   -0.9396 H   0  0  0  0  0  0  0  0  0  0  0  0
  -87.5372   31.9136   -1.7556 C   0  0  0  0  0  0  0  0  0  0  0  0
  -87.9914   33.2097   -1.8241 C   0  0  0  0  0  0  0  0  0  0  0  0
  -88.9035   33.5795   -2.8124 C   0  0  0  0  0  0  0  0  0  0  0  0
  -89.3663   32.6671   -3.7322 C   0  0  0  0  0  0  0  0  0  0  0  0
  -88.9050   31.3717   -3.6546 C   0  0  0  0  0  0  0  0  0  0  0  0
  -87.9846   30.9936   -2.6593 C   0  0  0  0  0  0  0  0  0  0  0  0
  -90.3290   33.0148   -4.7903 C   0  0  0  0  0  0  0  0  0  0  0  0
  -90.0428   33.9431   -5.7507 C   0  0  0  0  0  0  0  0  0  0  0  0
  -90.9748   34.2318   -6.7167 C   0  0  0  0  0  0  0  0  0  0  0  0
  -92.2000   33.5886   -6.7224 C   0  0  0  0  0  0  0  0  0  0  0  0
  -92.4985   32.6515   -5.7595 C   0  0  0  0  0  0  0  0  0  0  0  0
  -91.5510   32.3841   -4.8096 C   0  0  0  0  0  0  0  0  0  0  0  0
  -84.7191   30.8781    1.3341 C   0  0  0  0  0  0  0  0  0  0  0  0
  -82.6805   29.4176    1.8110 C   0  0  0  0  0  0  0  0  0  0  0  0
  -83.2718   30.7459    1.5584 C   0  0  0  0  0  0  0  0  0  0  0  0
  -82.5850   31.2915    0.2864 C   0  0  0  0  0  0  0  0  0  0  0  0
 33 34  1  0  0  0
 34 35  1  0  0  0
 34 32  1  0  0  0
 32  1  1  0  0  0
  1 16  1  0  0  0
 16 17  1  0  0  0
 17 18  2  0  0  0
 17 20  1  0  0  0
 20 21  2  0  0  0
 21 22  1  0  0  0
 22 23  2  0  0  0
 23 24  1  0  0  0
 24 25  2  0  0  0
 23 26  1  0  0  0
 26 27  2  0  0  0
 27 28  1  0  0  0
 28 29  2  0  0  0
 29 30  1  0  0  0
 30 31  2  0  0  0
  1  2  1  0  0  0
  2  3  2  0  0  0
  2  4  1  0  0  0
  4  5  1  0  0  0
  5  6  1  0  0  0
  6  7  1  0  0  0
  7  8  1  0  0  0
  8  9  1  0  0  0
  7 10  1  0  0  0
 10 11  2  0  0  0
 11 12  1  0  0  0
 12 13  2  0  0  0
 13 14  1  0  0  0
 14 15  2  0  0  0
 25 20  1  0  0  0
 31 26  1  0  0  0
  9  4  1  0  0  0
 15 10  1  0  0  0
 16 19  1  0  0  0
M  END
> <minimizedAffinity>
-8.94740

> <CNNscore>
0.1259924024

> <CNNaffinity>
5.9739241600

> <CNN_VS>
0.7526690364

> <CNNaffinity_variance>
0.5075877905

$$$$
[H]c1c([H])c([H])c(-c2c([H])c([H])c(C(=O)N([H])[C@]([H])(C(=O)N3C([H])([H])C([H])([H])N(c4c([H])c([H])c([H])c([H])c4[H])C([H])([H])C3([H])[H])C([H])([H])C([H])(C([H])([H])[H])C([H])([H])[H])c([H])c2[H])c([H])c1[H]


 35 38  0  0  0  0  0  0  0  0999 V2000
  -86.0793   29.2437    1.1789 C   0  0  0  0  0  0  0  0  0  0  0  0
  -87.0812   28.2825    1.6811 C   0  0  0  0  0  0  0  0  0  0  0  0
  -87.3240   28.0900    2.9172 O   0  0  0  0  0  0  0  0  0  0  0  0
  -87.8370   27.5128    0.7474 N   0  0  0  0  0  0  0  0  0  0  0  0
  -88.8040   26.5095    1.2328 C   0  0  0  0  0  0  0  0  0  0  0  0
  -90.0341   26.6543    0.3611 C   0  0  0  0  0  0  0  0  0  0  0  0
  -89.6413   26.4250   -1.0184 N   0  0  0  0  0  0  0  0  0  0  0  0
  -88.2478   26.5177   -1.3963 C   0  0  0  0  0  0  0  0  0  0  0  0
  -87.6852   27.7399   -0.6559 C   0  0  0  0  0  0  0  0  0  0  0  0
  -90.6360   26.1165   -1.9814 C   0  0  0  0  0  0  0  0  0  0  0  0
  -91.0048   26.9235   -3.0307 C   0  0  0  0  0  0  0  0  0  0  0  0
  -91.9898   26.5651   -3.9320 C   0  0  0  0  0  0  0  0  0  0  0  0
  -92.6581   25.3677   -3.8219 C   0  0  0  0  0  0  0  0  0  0  0  0
  -92.3038   24.5451   -2.7785 C   0  0  0  0  0  0  0  0  0  0  0  0
  -91.3230   24.9037   -1.8822 C   0  0  0  0  0  0  0  0  0  0  0  0
  -86.7429   30.2406    0.3722 N   0  0  0  0  0  0  0  0  0  0  0  0
  -86.1073   31.3287   -0.2331 C   0  0  0  0  0  0  0  0  0  0  0  0
  -84.8561   31.5006   -0.1081 O   0  0  0  0  0  0  0  0  0  0  0  0
  -87.8061   30.1467    0.2145 H   0  0  0  0  0  0  0  0  0  0  0  0
  -86.8870   32.2961   -1.0304 C   0  0  0  0  0  0  0  0  0  0  0  0
  -86.2055   33.1963   -1.8153 C   0  0  0  0  0  0  0  0  0  0  0  0
  -86.9068   34.1313   -2.5765 C   0  0  0  0  0  0  0  0  0  0  0  0
  -88.2817   34.1758   -2.5607 C   0  0  0  0  0  0  0  0  0  0  0  0
  -88.9544   33.2698   -1.7710 C   0  0  0  0  0  0  0  0  0  0  0  0
  -88.2514   32.3244   -1.0012 C   0  0  0  0  0  0  0  0  0  0  0  0
  -89.0606   35.1461   -3.3476 C   0  0  0  0  0  0  0  0  0  0  0  0
  -88.7169   36.4666   -3.4108 C   0  0  0  0  0  0  0  0  0  0  0  0
  -89.4760   37.3319   -4.1594 C   0  0  0  0  0  0  0  0  0  0  0  0
  -90.5850   36.8739   -4.8487 C   0  0  0  0  0  0  0  0  0  0  0  0
  -90.9401   35.5453   -4.7920 C   0  0  0  0  0  0  0  0  0  0  0  0
  -90.1655   34.7064   -4.0384 C   0  0  0  0  0  0  0  0  0  0  0  0
  -85.2227   29.8310    2.2414 C   0  0  0  0  0  0  0  0  0  0  0  0
  -83.8782   27.6751    2.4887 C   0  0  0  0  0  0  0  0  0  0  0  0
  -83.9726   29.1437    2.5984 C   0  0  0  0  0  0  0  0  0  0  0  0
  -82.8814   29.7191    1.6681 C   0  0  0  0  0  0  0  0  0  0  0  0
 33 34  1  0  0  0
 34 35  1  0  0  0
 34 32  1  0  0  0
 32  1  1  0  0  0
  1 16  1  0  0  0
 16 17  1  0  0  0
 17 18  2  0  0  0
 17 20  1  0  0  0
 20 21  2  0  0  0
 21 22  1  0  0  0
 22 23  2  0  0  0
 23 24  1  0  0  0
 24 25  2  0  0  0
 23 26  1  0  0  0
 26 27  2  0  0  0
 27 28  1  0  0  0
 28 29  2  0  0  0
 29 30  1  0  0  0
 30 31  2  0  0  0
  1  2  1  0  0  0
  2  3  2  0  0  0
  2  4  1  0  0  0
  4  5  1  0  0  0
  5  6  1  0  0  0
  6  7  1  0  0  0
  7  8  1  0  0  0
  8  9  1  0  0  0
  7 10  1  0  0  0
 10 11  2  0  0  0
 11 12  1  0  0  0
 12 13  2  0  0  0
 13 14  1  0  0  0
 14 15  2  0  0  0
 25 20  1  0  0  0
 31 26  1  0  0  0
  9  4  1  0  0  0
 15 10  1  0  0  0
 16 19  1  0  0  0
M  END
> <minimizedAffinity>
-9.31743

> <CNNscore>
0.1200464144

> <CNNaffinity>
5.9816865921

> <CNN_VS>
0.7180800438

> <CNNaffinity_variance>
0.3421120346

$$$$
[H]c1c([H])c([H])c(-c2c([H])c([H])c(C(=O)N([H])[C@]([H])(C(=O)N3C([H])([H])C([H])([H])N(c4c([H])c([H])c([H])c([H])c4[H])C([H])([H])C3([H])[H])C([H])([H])C([H])(C([H])([H])[H])C([H])([H])[H])c([H])c2[H])c([H])c1[H]


 35 38  0  0  0  0  0  0  0  0999 V2000
  -87.6826   28.1457   -0.4537 C   0  0  0  0  0  0  0  0  0  0  0  0
  -88.9738   27.9345    0.2305 C   0  0  0  0  0  0  0  0  0  0  0  0
  -89.5202   28.7931    0.9975 O   0  0  0  0  0  0  0  0  0  0  0  0
  -89.6720   26.7056    0.0362 N   0  0  0  0  0  0  0  0  0  0  0  0
  -90.9369   26.4565    0.7542 C   0  0  0  0  0  0  0  0  0  0  0  0
  -91.8731   25.8192   -0.2514 C   0  0  0  0  0  0  0  0  0  0  0  0
  -91.2567   24.5947   -0.7318 N   0  0  0  0  0  0  0  0  0  0  0  0
  -89.8350   24.3880   -0.5608 C   0  0  0  0  0  0  0  0  0  0  0  0
  -89.1665   25.7329   -0.8814 C   0  0  0  0  0  0  0  0  0  0  0  0
  -92.0616   23.6161   -1.3694 C   0  0  0  0  0  0  0  0  0  0  0  0
  -92.8899   22.7267   -0.7283 C   0  0  0  0  0  0  0  0  0  0  0  0
  -93.6443   21.7908   -1.4110 C   0  0  0  0  0  0  0  0  0  0  0  0
  -93.6028   21.7023   -2.7833 C   0  0  0  0  0  0  0  0  0  0  0  0
  -92.7799   22.5838   -3.4441 C   0  0  0  0  0  0  0  0  0  0  0  0
  -92.0296   23.5148   -2.7628 C   0  0  0  0  0  0  0  0  0  0  0  0
  -87.7304   29.3930   -1.1797 N   0  0  0  0  0  0  0  0  0  0  0  0
  -87.9734   29.5081   -2.5515 C   0  0  0  0  0  0  0  0  0  0  0  0
  -88.1836   28.4775   -3.2617 O   0  0  0  0  0  0  0  0  0  0  0  0
  -87.5729   30.3098   -0.6331 H   0  0  0  0  0  0  0  0  0  0  0  0
  -87.9897   30.8367   -3.1951 C   0  0  0  0  0  0  0  0  0  0  0  0
  -87.4943   31.9098   -2.4925 C   0  0  0  0  0  0  0  0  0  0  0  0
  -87.5004   33.1824   -3.0636 C   0  0  0  0  0  0  0  0  0  0  0  0
  -87.9968   33.3929   -4.3292 C   0  0  0  0  0  0  0  0  0  0  0  0
  -88.4907   32.3112   -5.0242 C   0  0  0  0  0  0  0  0  0  0  0  0
  -88.4868   31.0253   -4.4523 C   0  0  0  0  0  0  0  0  0  0  0  0
  -88.0228   34.7186   -4.9689 C   0  0  0  0  0  0  0  0  0  0  0  0
  -88.9718   35.0570   -5.8913 C   0  0  0  0  0  0  0  0  0  0  0  0
  -88.9532   36.3070   -6.4590 C   0  0  0  0  0  0  0  0  0  0  0  0
  -87.9800   37.2238   -6.1023 C   0  0  0  0  0  0  0  0  0  0  0  0
  -87.0192   36.8932   -5.1738 C   0  0  0  0  0  0  0  0  0  0  0  0
  -87.0624   35.6408   -4.6248 C   0  0  0  0  0  0  0  0  0  0  0  0
  -86.5019   28.0387    0.4419 C   0  0  0  0  0  0  0  0  0  0  0  0
  -85.6377   29.1843    2.5531 C   0  0  0  0  0  0  0  0  0  0  0  0
  -86.0291   29.2483    1.1317 C   0  0  0  0  0  0  0  0  0  0  0  0
  -84.7796   29.7267    0.3590 C   0  0  0  0  0  0  0  0  0  0  0  0
 33 34  1  0  0  0
 34 35  1  0  0  0
 34 32  1  0  0  0
 32  1  1  0  0  0
  1 16  1  0  0  0
 16 17  1  0  0  0
 17 18  2  0  0  0
 17 20  1  0  0  0
 20 21  2  0  0  0
 21 22  1  0  0  0
 22 23  2  0  0  0
 23 24  1  0  0  0
 24 25  2  0  0  0
 23 26  1  0  0  0
 26 27  2  0  0  0
 27 28  1  0  0  0
 28 29  2  0  0  0
 29 30  1  0  0  0
 30 31  2  0  0  0
  1  2  1  0  0  0
  2  3  2  0  0  0
  2  4  1  0  0  0
  4  5  1  0  0  0
  5  6  1  0  0  0
  6  7  1  0  0  0
  7  8  1  0  0  0
  8  9  1  0  0  0
  7 10  1  0  0  0
 10 11  2  0  0  0
 11 12  1  0  0  0
 12 13  2  0  0  0
 13 14  1  0  0  0
 14 15  2  0  0  0
 25 20  1  0  0  0
 31 26  1  0  0  0
  9  4  1  0  0  0
 15 10  1  0  0  0
 16 19  1  0  0  0
M  END
> <minimizedAffinity>
-8.13996

> <CNNscore>
0.1200231016

> <CNNaffinity>
5.5788483620

> <CNN_VS>
0.6695907116

> <CNNaffinity_variance>
0.3966097236

$$$$
[H]c1c([H])c([H])c(-c2c([H])c([H])c(C(=O)N([H])[C@]([H])(C(=O)N3C([H])([H])C([H])([H])N(c4c([H])c([H])c([H])c([H])c4[H])C([H])([H])C3([H])[H])C([H])([H])C([H])(C([H])([H])[H])C([H])([H])[H])c([H])c2[H])c([H])c1[H]


 35 38  0  0  0  0  0  0  0  0999 V2000
  -90.9292   29.7235   -2.7459 C   0  0  0  0  0  0  0  0  0  0  0  0
  -89.8755   28.7630   -2.3622 C   0  0  0  0  0  0  0  0  0  0  0  0
  -88.8479   28.5141   -3.0734 O   0  0  0  0  0  0  0  0  0  0  0  0
  -89.9905   28.0604   -1.1258 N   0  0  0  0  0  0  0  0  0  0  0  0
  -88.9744   27.0578   -0.7519 C   0  0  0  0  0  0  0  0  0  0  0  0
  -88.6884   27.2769    0.7192 C   0  0  0  0  0  0  0  0  0  0  0  0
  -89.9310   27.1082    1.4523 N   0  0  0  0  0  0  0  0  0  0  0  0
  -91.1961   27.1858    0.7546 C   0  0  0  0  0  0  0  0  0  0  0  0
  -91.0677   28.3546   -0.2332 C   0  0  0  0  0  0  0  0  0  0  0  0
  -89.8857   26.8735    2.8505 C   0  0  0  0  0  0  0  0  0  0  0  0
  -90.2174   27.7874    3.8216 C   0  0  0  0  0  0  0  0  0  0  0  0
  -90.1442   27.4959    5.1710 C   0  0  0  0  0  0  0  0  0  0  0  0
  -89.7307   26.2609    5.6142 C   0  0  0  0  0  0  0  0  0  0  0  0
  -89.3944   25.3316    4.6580 C   0  0  0  0  0  0  0  0  0  0  0  0
  -89.4678   25.6237    3.3152 C   0  0  0  0  0  0  0  0  0  0  0  0
  -90.3495   31.0411   -2.8596 N   0  0  0  0  0  0  0  0  0  0  0  0
  -89.7235   31.5406   -4.0054 C   0  0  0  0  0  0  0  0  0  0  0  0
  -89.6359   30.8346   -5.0565 O   0  0  0  0  0  0  0  0  0  0  0  0
  -90.4012   31.6985   -2.0056 H   0  0  0  0  0  0  0  0  0  0  0  0
  -89.1544   32.9027   -4.0081 C   0  0  0  0  0  0  0  0  0  0  0  0
  -89.0627   33.5756   -2.8125 C   0  0  0  0  0  0  0  0  0  0  0  0
  -88.5383   34.8676   -2.7757 C   0  0  0  0  0  0  0  0  0  0  0  0
  -88.1051   35.4935   -3.9217 C   0  0  0  0  0  0  0  0  0  0  0  0
  -88.2015   34.8106   -5.1139 C   0  0  0  0  0  0  0  0  0  0  0  0
  -88.7298   33.5069   -5.1562 C   0  0  0  0  0  0  0  0  0  0  0  0
  -87.5462   36.8554   -3.9278 C   0  0  0  0  0  0  0  0  0  0  0  0
  -86.5661   37.2300   -4.8024 C   0  0  0  0  0  0  0  0  0  0  0  0
  -86.0781   38.5130   -4.7683 C   0  0  0  0  0  0  0  0  0  0  0  0
  -86.5730   39.4265   -3.8542 C   0  0  0  0  0  0  0  0  0  0  0  0
  -87.5606   39.0594   -2.9685 C   0  0  0  0  0  0  0  0  0  0  0  0
  -88.0277   37.7748   -3.0255 C   0  0  0  0  0  0  0  0  0  0  0  0
  -91.7009   29.3215   -3.9502 C   0  0  0  0  0  0  0  0  0  0  0  0
  -93.8902   29.3975   -5.2610 C   0  0  0  0  0  0  0  0  0  0  0  0
  -93.0801   29.8099   -4.0985 C   0  0  0  0  0  0  0  0  0  0  0  0
  -93.8458   29.3315   -2.8447 C   0  0  0  0  0  0  0  0  0  0  0  0
 33 34  1  0  0  0
 34 35  1  0  0  0
 34 32  1  0  0  0
 32  1  1  0  0  0
  1 16  1  0  0  0
 16 17  1  0  0  0
 17 18  2  0  0  0
 17 20  1  0  0  0
 20 21  2  0  0  0
 21 22  1  0  0  0
 22 23  2  0  0  0
 23 24  1  0  0  0
 24 25  2  0  0  0
 23 26  1  0  0  0
 26 27  2  0  0  0
 27 28  1  0  0  0
 28 29  2  0  0  0
 29 30  1  0  0  0
 30 31  2  0  0  0
  1  2  1  0  0  0
  2  3  2  0  0  0
  2  4  1  0  0  0
  4  5  1  0  0  0
  5  6  1  0  0  0
  6  7  1  0  0  0
  7  8  1  0  0  0
  8  9  1  0  0  0
  7 10  1  0  0  0
 10 11  2  0  0  0
 11 12  1  0  0  0
 12 13  2  0  0  0
 13 14  1  0  0  0
 14 15  2  0  0  0
 25 20  1  0  0  0
 31 26  1  0  0  0
  9  4  1  0  0  0
 15 10  1  0  0  0
 16 19  1  0  0  0
M  END
> <minimizedAffinity>
-7.77967

> <CNNscore>
0.1179253310

> <CNNaffinity>
5.7362828255

> <CNN_VS>
0.6764530540

> <CNNaffinity_variance>
0.0459530689

$$$$
[H]c1c([H])c([H])c(-c2c([H])c([H])c(C(=O)N([H])[C@]([H])(C(=O)N3C([H])([H])C([H])([H])N(c4c([H])c([H])c([H])c([H])c4[H])C([H])([H])C3([H])[H])C([H])([H])C([H])(C([H])([H])[H])C([H])([H])[H])c([H])c2[H])c([H])c1[H]


 35 38  0  0  0  0  0  0  0  0999 V2000
  -88.0147   28.9364   -1.0635 C   0  0  0  0  0  0  0  0  0  0  0  0
  -89.2238   28.7711   -0.2323 C   0  0  0  0  0  0  0  0  0  0  0  0
  -89.9264   29.7421    0.2007 O   0  0  0  0  0  0  0  0  0  0  0  0
  -89.6528   27.4567    0.1191 N   0  0  0  0  0  0  0  0  0  0  0  0
  -90.8277   27.2752    0.9933 C   0  0  0  0  0  0  0  0  0  0  0  0
  -91.6244   26.1340    0.3961 C   0  0  0  0  0  0  0  0  0  0  0  0
  -90.7730   24.9577    0.3589 N   0  0  0  0  0  0  0  0  0  0  0  0
  -89.3372   25.1034    0.4611 C   0  0  0  0  0  0  0  0  0  0  0  0
  -88.9685   26.3165   -0.4056 C   0  0  0  0  0  0  0  0  0  0  0  0
  -91.3648   23.6764    0.2173 C   0  0  0  0  0  0  0  0  0  0  0  0
  -92.5563   23.4162   -0.4159 C   0  0  0  0  0  0  0  0  0  0  0  0
  -93.0821   22.1414   -0.5128 C   0  0  0  0  0  0  0  0  0  0  0  0
  -92.4305   21.0563    0.0264 C   0  0  0  0  0  0  0  0  0  0  0  0
  -91.2360   21.2953    0.6643 C   0  0  0  0  0  0  0  0  0  0  0  0
  -90.7142   22.5652    0.7599 C   0  0  0  0  0  0  0  0  0  0  0  0
  -87.9136   30.3145   -1.4826 N   0  0  0  0  0  0  0  0  0  0  0  0
  -87.8658   30.7419   -2.8127 C   0  0  0  0  0  0  0  0  0  0  0  0
  -87.9207   29.9048   -3.7652 O   0  0  0  0  0  0  0  0  0  0  0  0
  -87.8758   31.0793   -0.7224 H   0  0  0  0  0  0  0  0  0  0  0  0
  -87.7513   32.1795   -3.1284 C   0  0  0  0  0  0  0  0  0  0  0  0
  -88.1260   32.6059   -4.3808 C   0  0  0  0  0  0  0  0  0  0  0  0
  -88.0244   33.9551   -4.7194 C   0  0  0  0  0  0  0  0  0  0  0  0
  -87.5519   34.8819   -3.8192 C   0  0  0  0  0  0  0  0  0  0  0  0
  -87.1792   34.4442   -2.5677 C   0  0  0  0  0  0  0  0  0  0  0  0
  -87.2798   33.0839   -2.2212 C   0  0  0  0  0  0  0  0  0  0  0  0
  -87.4279   36.3144   -4.1354 C   0  0  0  0  0  0  0  0  0  0  0  0
  -86.7489   36.7550   -5.2358 C   0  0  0  0  0  0  0  0  0  0  0  0
  -86.6623   38.1021   -5.4872 C   0  0  0  0  0  0  0  0  0  0  0  0
  -87.2579   39.0137   -4.6333 C   0  0  0  0  0  0  0  0  0  0  0  0
  -87.9445   38.5804   -3.5218 C   0  0  0  0  0  0  0  0  0  0  0  0
  -88.0145   37.2328   -3.2965 C   0  0  0  0  0  0  0  0  0  0  0  0
  -86.7719   28.4293   -0.4264 C   0  0  0  0  0  0  0  0  0  0  0  0
  -86.1383   28.3676    2.0457 C   0  0  0  0  0  0  0  0  0  0  0  0
  -86.2691   29.1093    0.7766 C   0  0  0  0  0  0  0  0  0  0  0  0
  -84.8540   29.6205    0.4253 C   0  0  0  0  0  0  0  0  0  0  0  0
 33 34  1  0  0  0
 34 35  1  0  0  0
 34 32  1  0  0  0
 32  1  1  0  0  0
  1 16  1  0  0  0
 16 17  1  0  0  0
 17 18  2  0  0  0
 17 20  1  0  0  0
 20 21  2  0  0  0
 21 22  1  0  0  0
 22 23  2  0  0  0
 23 24  1  0  0  0
 24 25  2  0  0  0
 23 26  1  0  0  0
 26 27  2  0  0  0
 27 28  1  0  0  0
 28 29  2  0  0  0
 29 30  1  0  0  0
 30 31  2  0  0  0
  1  2  1  0  0  0
  2  3  2  0  0  0
  2  4  1  0  0  0
  4  5  1  0  0  0
  5  6  1  0  0  0
  6  7  1  0  0  0
  7  8  1  0  0  0
  8  9  1  0  0  0
  7 10  1  0  0  0
 10 11  2  0  0  0
 11 12  1  0  0  0
 12 13  2  0  0  0
 13 14  1  0  0  0
 14 15  2  0  0  0
 25 20  1  0  0  0
 31 26  1  0  0  0
  9  4  1  0  0  0
 15 10  1  0  0  0
 16 19  1  0  0  0
M  END
> <minimizedAffinity>
-8.02316

> <CNNscore>
0.0964028761

> <CNNaffinity>
5.5103149414

> <CNN_VS>
0.5312101841

> <CNNaffinity_variance>
0.4054613709

$$$$
[H]c1c([H])c([H])c(-c2c([H])c([H])c(C(=O)N([H])[C@]([H])(C(=O)N3C([H])([H])C([H])([H])N(c4c([H])c([H])c([H])c([H])c4[H])C([H])([H])C3([H])[H])C([H])([H])C([H])(C([H])([H])[H])C([H])([H])[H])c([H])c2[H])c([H])c1[H]


 35 38  0  0  0  0  0  0  0  0999 V2000
  -90.3658   26.6880    1.5170 C   0  0  0  0  0  0  0  0  0  0  0  0
  -89.0071   26.1610    1.2798 C   0  0  0  0  0  0  0  0  0  0  0  0
  -88.7645   24.9742    0.8843 O   0  0  0  0  0  0  0  0  0  0  0  0
  -87.8825   27.0116    1.4972 N   0  0  0  0  0  0  0  0  0  0  0  0
  -86.5159   26.4851    1.3167 C   0  0  0  0  0  0  0  0  0  0  0  0
  -85.7412   27.5652    0.5908 C   0  0  0  0  0  0  0  0  0  0  0  0
  -85.7699   28.7681    1.4046 N   0  0  0  0  0  0  0  0  0  0  0  0
  -86.7657   28.9116    2.4444 C   0  0  0  0  0  0  0  0  0  0  0  0
  -88.0801   28.3821    1.8525 C   0  0  0  0  0  0  0  0  0  0  0  0
  -84.8188   29.7924    1.1633 C   0  0  0  0  0  0  0  0  0  0  0  0
  -83.5037   29.7664    1.5609 C   0  0  0  0  0  0  0  0  0  0  0  0
  -82.6287   30.8041    1.2990 C   0  0  0  0  0  0  0  0  0  0  0  0
  -83.0360   31.9283    0.6188 C   0  0  0  0  0  0  0  0  0  0  0  0
  -84.3488   31.9740    0.2117 C   0  0  0  0  0  0  0  0  0  0  0  0
  -85.2184   30.9400    0.4735 C   0  0  0  0  0  0  0  0  0  0  0  0
  -91.1608   26.4993    0.3265 N   0  0  0  0  0  0  0  0  0  0  0  0
  -91.3294   27.4552   -0.6795 C   0  0  0  0  0  0  0  0  0  0  0  0
  -90.7597   28.5866   -0.6011 O   0  0  0  0  0  0  0  0  0  0  0  0
  -91.6625   25.5538    0.1905 H   0  0  0  0  0  0  0  0  0  0  0  0
  -92.1756   27.1593   -1.8525 C   0  0  0  0  0  0  0  0  0  0  0  0
  -92.3235   25.8478   -2.2380 C   0  0  0  0  0  0  0  0  0  0  0  0
  -93.1083   25.5291   -3.3462 C   0  0  0  0  0  0  0  0  0  0  0  0
  -93.7461   26.5079   -4.0727 C   0  0  0  0  0  0  0  0  0  0  0  0
  -93.5912   27.8183   -3.6780 C   0  0  0  0  0  0  0  0  0  0  0  0
  -92.8005   28.1449   -2.5606 C   0  0  0  0  0  0  0  0  0  0  0  0
  -94.5825   26.2156   -5.2484 C   0  0  0  0  0  0  0  0  0  0  0  0
  -94.8501   24.9360   -5.6444 C   0  0  0  0  0  0  0  0  0  0  0  0
  -95.6366   24.7160   -6.7482 C   0  0  0  0  0  0  0  0  0  0  0  0
  -96.1584   25.7817   -7.4600 C   0  0  0  0  0  0  0  0  0  0  0  0
  -95.8951   27.0751   -7.0696 C   0  0  0  0  0  0  0  0  0  0  0  0
  -95.1086   27.2641   -5.9663 C   0  0  0  0  0  0  0  0  0  0  0  0
  -91.0147   26.1514    2.7411 C   0  0  0  0  0  0  0  0  0  0  0  0
  -90.0110   26.9168    4.9600 C   0  0  0  0  0  0  0  0  0  0  0  0
  -91.0727   27.0030    3.9386 C   0  0  0  0  0  0  0  0  0  0  0  0
  -91.0697   28.4628    3.4322 C   0  0  0  0  0  0  0  0  0  0  0  0
 33 34  1  0  0  0
 34 35  1  0  0  0
 34 32  1  0  0  0
 32  1  1  0  0  0
  1 16  1  0  0  0
 16 17  1  0  0  0
 17 18  2  0  0  0
 17 20  1  0  0  0
 20 21  2  0  0  0
 21 22  1  0  0  0
 22 23  2  0  0  0
 23 24  1  0  0  0
 24 25  2  0  0  0
 23 26  1  0  0  0
 26 27  2  0  0  0
 27 28  1  0  0  0
 28 29  2  0  0  0
 29 30  1  0  0  0
 30 31  2  0  0  0
  1  2  1  0  0  0
  2  3  2  0  0  0
  2  4  1  0  0  0
  4  5  1  0  0  0
  5  6  1  0  0  0
  6  7  1  0  0  0
  7  8  1  0  0  0
  8  9  1  0  0  0
  7 10  1  0  0  0
 10 11  2  0  0  0
 11 12  1  0  0  0
 12 13  2  0  0  0
 13 14  1  0  0  0
 14 15  2  0  0  0
 25 20  1  0  0  0
 31 26  1  0  0  0
  9  4  1  0  0  0
 15 10  1  0  0  0
 16 19  1  0  0  0
M  END
> <minimizedAffinity>
-6.61697

> <CNNscore>
0.0948823541

> <CNNaffinity>
5.6361327171

> <CNN_VS>
0.5347695351

> <CNNaffinity_variance>
0.0564320572

$$$$
[H]c1c([H])c([H])c(-c2c([H])c([H])c(C(=O)N([H])[C@]([H])(C(=O)N3C([H])([H])C([H])([H])N(c4c([H])c([H])c([H])c([H])c4[H])C([H])([H])C3([H])[H])C([H])([H])C([H])(C([H])([H])[H])C([H])([H])[H])c([H])c2[H])c([H])c1[H]


 35 38  0  0  0  0  0  0  0  0999 V2000
  -91.0547   29.5572   -2.2001 C   0  0  0  0  0  0  0  0  0  0  0  0
  -92.4984   29.5801   -2.5087 C   0  0  0  0  0  0  0  0  0  0  0  0
  -93.2312   30.6173   -2.4029 O   0  0  0  0  0  0  0  0  0  0  0  0
  -93.1341   28.3836   -2.9556 N   0  0  0  0  0  0  0  0  0  0  0  0
  -94.5864   28.3754   -3.2170 C   0  0  0  0  0  0  0  0  0  0  0  0
  -94.7788   27.5923   -4.4991 C   0  0  0  0  0  0  0  0  0  0  0  0
  -94.2429   26.2571   -4.2993 N   0  0  0  0  0  0  0  0  0  0  0  0
  -93.3183   26.0060   -3.2152 C   0  0  0  0  0  0  0  0  0  0  0  0
  -92.3589   27.2048   -3.1862 C   0  0  0  0  0  0  0  0  0  0  0  0
  -94.6325   25.2140   -5.1781 C   0  0  0  0  0  0  0  0  0  0  0  0
  -94.6404   25.2912   -6.5501 C   0  0  0  0  0  0  0  0  0  0  0  0
  -95.0395   24.2370   -7.3503 C   0  0  0  0  0  0  0  0  0  0  0  0
  -95.4536   23.0432   -6.8061 C   0  0  0  0  0  0  0  0  0  0  0  0
  -95.4528   22.9453   -5.4345 C   0  0  0  0  0  0  0  0  0  0  0  0
  -95.0552   23.9959   -4.6395 C   0  0  0  0  0  0  0  0  0  0  0  0
  -90.5041   30.8746   -2.4150 N   0  0  0  0  0  0  0  0  0  0  0  0
  -89.6040   31.2064   -3.4318 C   0  0  0  0  0  0  0  0  0  0  0  0
  -89.2127   30.3305   -4.2629 O   0  0  0  0  0  0  0  0  0  0  0  0
  -90.8056   31.6700   -1.7512 H   0  0  0  0  0  0  0  0  0  0  0  0
  -89.0950   32.5868   -3.5534 C   0  0  0  0  0  0  0  0  0  0  0  0
  -89.0705   33.1674   -4.7996 C   0  0  0  0  0  0  0  0  0  0  0  0
  -88.5889   34.4671   -4.9561 C   0  0  0  0  0  0  0  0  0  0  0  0
  -88.1314   35.1917   -3.8799 C   0  0  0  0  0  0  0  0  0  0  0  0
  -88.1602   34.6007   -2.6362 C   0  0  0  0  0  0  0  0  0  0  0  0
  -88.6452   33.2896   -2.4731 C   0  0  0  0  0  0  0  0  0  0  0  0
  -87.6145   36.5648   -4.0006 C   0  0  0  0  0  0  0  0  0  0  0  0
  -88.0337   37.5695   -3.1756 C   0  0  0  0  0  0  0  0  0  0  0  0
  -87.5206   38.8339   -3.3285 C   0  0  0  0  0  0  0  0  0  0  0  0
  -86.5830   39.0950   -4.3122 C   0  0  0  0  0  0  0  0  0  0  0  0
  -86.1536   38.0898   -5.1488 C   0  0  0  0  0  0  0  0  0  0  0  0
  -86.6820   36.8402   -4.9733 C   0  0  0  0  0  0  0  0  0  0  0  0
  -90.7343   29.0043   -0.8588 C   0  0  0  0  0  0  0  0  0  0  0  0
  -88.7983   27.7045   -1.8974 C   0  0  0  0  0  0  0  0  0  0  0  0
  -89.5211   28.1876   -0.7050 C   0  0  0  0  0  0  0  0  0  0  0  0
  -88.5165   29.0505    0.0910 C   0  0  0  0  0  0  0  0  0  0  0  0
 33 34  1  0  0  0
 34 35  1  0  0  0
 34 32  1  0  0  0
 32  1  1  0  0  0
  1 16  1  0  0  0
 16 17  1  0  0  0
 17 18  2  0  0  0
 17 20  1  0  0  0
 20 21  2  0  0  0
 21 22  1  0  0  0
 22 23  2  0  0  0
 23 24  1  0  0  0
 24 25  2  0  0  0
 23 26  1  0  0  0
 26 27  2  0  0  0
 27 28  1  0  0  0
 28 29  2  0  0  0
 29 30  1  0  0  0
 30 31  2  0  0  0
  1  2  1  0  0  0
  2  3  2  0  0  0
  2  4  1  0  0  0
  4  5  1  0  0  0
  5  6  1  0  0  0
  6  7  1  0  0  0
  7  8  1  0  0  0
  8  9  1  0  0  0
  7 10  1  0  0  0
 10 11  2  0  0  0
 11 12  1  0  0  0
 12 13  2  0  0  0
 13 14  1  0  0  0
 14 15  2  0  0  0
 25 20  1  0  0  0
 31 26  1  0  0  0
  9  4  1  0  0  0
 15 10  1  0  0  0
 16 19  1  0  0  0
M  END
> <minimizedAffinity>
-6.32645

> <CNNscore>
0.0923398957

> <CNNaffinity>
5.3008980751

> <CNN_VS>
0.4894843698

> <CNNaffinity_variance>
0.1121057421

$$$$
[H]c1c([H])c([H])c(-c2c([H])c([H])c(C(=O)N([H])[C@]([H])(C(=O)N3C([H])([H])C([H])([H])N(c4c([H])c([H])c([H])c([H])c4[H])C([H])([H])C3([H])[H])C([H])([H])C([H])(C([H])([H])[H])C([H])([H])[H])c([H])c2[H])c([H])c1[H]


 35 38  0  0  0  0  0  0  0  0999 V2000
  -87.8812   29.1028   -0.6241 C   0  0  0  0  0  0  0  0  0  0  0  0
  -89.2491   28.7224   -0.2190 C   0  0  0  0  0  0  0  0  0  0  0  0
  -89.8046   29.1114    0.8599 O   0  0  0  0  0  0  0  0  0  0  0  0
  -90.0159   27.8712   -1.0694 N   0  0  0  0  0  0  0  0  0  0  0  0
  -91.3641   27.4380   -0.6546 C   0  0  0  0  0  0  0  0  0  0  0  0
  -92.2368   27.5392   -1.8883 C   0  0  0  0  0  0  0  0  0  0  0  0
  -91.6699   26.6830   -2.9158 N   0  0  0  0  0  0  0  0  0  0  0  0
  -90.2940   26.2478   -2.8134 C   0  0  0  0  0  0  0  0  0  0  0  0
  -89.4941   27.4696   -2.3383 C   0  0  0  0  0  0  0  0  0  0  0  0
  -92.4770   26.2880   -4.0133 C   0  0  0  0  0  0  0  0  0  0  0  0
  -93.2820   25.1748   -4.0487 C   0  0  0  0  0  0  0  0  0  0  0  0
  -94.0400   24.8421   -5.1559 C   0  0  0  0  0  0  0  0  0  0  0  0
  -94.0260   25.6187   -6.2914 C   0  0  0  0  0  0  0  0  0  0  0  0
  -93.2269   26.7377   -6.2764 C   0  0  0  0  0  0  0  0  0  0  0  0
  -92.4729   27.0672   -5.1732 C   0  0  0  0  0  0  0  0  0  0  0  0
  -87.9559   30.1342   -1.6318 N   0  0  0  0  0  0  0  0  0  0  0  0
  -88.5132   31.4012   -1.4360 C   0  0  0  0  0  0  0  0  0  0  0  0
  -88.9961   31.7303   -0.3093 O   0  0  0  0  0  0  0  0  0  0  0  0
  -87.5513   29.9247   -2.6099 H   0  0  0  0  0  0  0  0  0  0  0  0
  -88.5467   32.3782   -2.5423 C   0  0  0  0  0  0  0  0  0  0  0  0
  -89.1866   33.5777   -2.3364 C   0  0  0  0  0  0  0  0  0  0  0  0
  -89.2466   34.5229   -3.3604 C   0  0  0  0  0  0  0  0  0  0  0  0
  -88.6738   34.2811   -4.5876 C   0  0  0  0  0  0  0  0  0  0  0  0
  -88.0354   33.0765   -4.7832 C   0  0  0  0  0  0  0  0  0  0  0  0
  -87.9721   32.1195   -3.7532 C   0  0  0  0  0  0  0  0  0  0  0  0
  -88.7145   35.2501   -5.6951 C   0  0  0  0  0  0  0  0  0  0  0  0
  -89.8426   35.4499   -6.4390 C   0  0  0  0  0  0  0  0  0  0  0  0
  -89.8295   36.3661   -7.4616 C   0  0  0  0  0  0  0  0  0  0  0  0
  -88.6818   37.0865   -7.7420 C   0  0  0  0  0  0  0  0  0  0  0  0
  -87.5397   36.8930   -6.9985 C   0  0  0  0  0  0  0  0  0  0  0  0
  -87.5819   35.9740   -5.9861 C   0  0  0  0  0  0  0  0  0  0  0  0
  -86.9947   29.4630    0.5125 C   0  0  0  0  0  0  0  0  0  0  0  0
  -85.4124   31.4660    0.4838 C   0  0  0  0  0  0  0  0  0  0  0  0
  -85.6730   30.0376    0.2203 C   0  0  0  0  0  0  0  0  0  0  0  0
  -84.6584   29.2467    1.0761 C   0  0  0  0  0  0  0  0  0  0  0  0
 33 34  1  0  0  0
 34 35  1  0  0  0
 34 32  1  0  0  0
 32  1  1  0  0  0
  1 16  1  0  0  0
 16 17  1  0  0  0
 17 18  2  0  0  0
 17 20  1  0  0  0
 20 21  2  0  0  0
 21 22  1  0  0  0
 22 23  2  0  0  0
 23 24  1  0  0  0
 24 25  2  0  0  0
 23 26  1  0  0  0
 26 27  2  0  0  0
 27 28  1  0  0  0
 28 29  2  0  0  0
 29 30  1  0  0  0
 30 31  2  0  0  0
  1  2  1  0  0  0
  2  3  2  0  0  0
  2  4  1  0  0  0
  4  5  1  0  0  0
  5  6  1  0  0  0
  6  7  1  0  0  0
  7  8  1  0  0  0
  8  9  1  0  0  0
  7 10  1  0  0  0
 10 11  2  0  0  0
 11 12  1  0  0  0
 12 13  2  0  0  0
 13 14  1  0  0  0
 14 15  2  0  0  0
 25 20  1  0  0  0
 31 26  1  0  0  0
  9  4  1  0  0  0
 15 10  1  0  0  0
 16 19  1  0  0  0
M  END
> <minimizedAffinity>
-8.19199

> <CNNscore>
0.0913509429

> <CNNaffinity>
5.6320691109

> <CNN_VS>
0.5144948363

> <CNNaffinity_variance>
0.2162469625

$$$$
[H]c1c([H])c([H])c(C([H])([H])OC(=O)N([H])[C@]([H])(C(=O)N([H])[C@]([H])(C(=O)N([H])[C@@]([H])(C([H])([H])C([H])(C([H])([H])[H])C([H])([H])[H])C([H])(C([H])([H])[H])C([H])([H])[H])C([H])([H])c2c([H])c([H])c([H])c([H])c2[H])C([H])([H])c2c([H])c([H])c([H])c([H])c2[H])c([H])c1[H]


 44 46  0  0  0  0  0  0  0  0999 V2000
  -89.5906   30.5263   -3.0203 N   0  0  0  0  0  0  0  0  0  0  0  0
  -88.7617   31.2252   -3.8961 C   0  0  0  0  0  0  0  0  0  0  0  0
  -88.3812   30.7319   -4.9861 O   0  0  0  0  0  0  0  0  0  0  0  0
  -89.6451   29.5535   -3.9840 H   0  0  0  0  0  0  0  0  0  0  0  0
  -90.3994   29.7483   -2.2441 C   0  0  0  0  0  0  0  0  0  0  0  0
  -89.6440   28.1205   -0.3244 N   0  0  0  0  0  0  0  0  0  0  0  0
  -89.6690   29.2728   -1.0464 C   0  0  0  0  0  0  0  0  0  0  0  0
  -88.8617   30.2099   -0.5950 O   0  0  0  0  0  0  0  0  0  0  0  0
  -90.1491   27.2400   -0.4452 H   0  0  0  0  0  0  0  0  0  0  0  0
  -88.7421   27.9809    0.9305 C   0  0  0  0  0  0  0  0  0  0  0  0
  -87.6153   27.1293    0.5271 C   0  0  0  0  0  0  0  0  0  0  0  0
  -87.9016   25.7817   -0.0400 C   0  0  0  0  0  0  0  0  0  0  0  0
  -86.4606   27.0518    1.4879 C   0  0  0  0  0  0  0  0  0  0  0  0
  -89.6532   27.7364    2.0171 C   0  0  0  0  0  0  0  0  0  0  0  0
  -90.4244   28.1416    4.2504 C   0  0  0  0  0  0  0  0  0  0  0  0
  -89.3259   27.3651    3.4020 C   0  0  0  0  0  0  0  0  0  0  0  0
  -89.5139   25.9322    3.7713 C   0  0  0  0  0  0  0  0  0  0  0  0
  -91.4050   28.9096   -2.8874 C   0  0  0  0  0  0  0  0  0  0  0  0
  -91.7718   27.5700   -2.6156 C   0  0  0  0  0  0  0  0  0  0  0  0
  -90.9172   26.5351   -2.9996 C   0  0  0  0  0  0  0  0  0  0  0  0
  -91.1362   25.2112   -2.7828 C   0  0  0  0  0  0  0  0  0  0  0  0
  -92.2715   24.8144   -2.1393 C   0  0  0  0  0  0  0  0  0  0  0  0
  -93.1803   25.7857   -1.7203 C   0  0  0  0  0  0  0  0  0  0  0  0
  -92.8954   27.1078   -1.9737 C   0  0  0  0  0  0  0  0  0  0  0  0
  -88.2234   32.6088   -3.6752 C   0  0  0  0  0  0  0  0  0  0  0  0
  -86.9579   32.5951   -3.0292 N   0  0  0  0  0  0  0  0  0  0  0  0
  -86.6955   32.8905   -1.6726 C   0  0  0  0  0  0  0  0  0  0  0  0
  -87.5690   33.2151   -0.8229 O   0  0  0  0  0  0  0  0  0  0  0  0
  -86.1124   32.3315   -3.6215 H   0  0  0  0  0  0  0  0  0  0  0  0
  -85.3838   32.8308   -1.1944 O   0  0  0  0  0  0  0  0  0  0  0  0
  -85.1368   33.0238    0.1935 C   0  0  0  0  0  0  0  0  0  0  0  0
  -84.5144   31.8083    0.8219 C   0  0  0  0  0  0  0  0  0  0  0  0
  -83.2238   31.4399    0.4666 C   0  0  0  0  0  0  0  0  0  0  0  0
  -82.6499   30.3353    1.0466 C   0  0  0  0  0  0  0  0  0  0  0  0
  -83.3073   29.5544    1.9861 C   0  0  0  0  0  0  0  0  0  0  0  0
  -84.5891   29.9271    2.3320 C   0  0  0  0  0  0  0  0  0  0  0  0
  -85.1669   31.0322    1.7536 C   0  0  0  0  0  0  0  0  0  0  0  0
  -88.2851   33.4011   -4.9585 C   0  0  0  0  0  0  0  0  0  0  0  0
  -88.1921   34.8666   -4.7312 C   0  0  0  0  0  0  0  0  0  0  0  0
  -87.5599   35.7339   -5.6282 C   0  0  0  0  0  0  0  0  0  0  0  0
  -87.4870   37.0678   -5.3614 C   0  0  0  0  0  0  0  0  0  0  0  0
  -88.0278   37.5787   -4.2146 C   0  0  0  0  0  0  0  0  0  0  0  0
  -88.6580   36.7189   -3.3162 C   0  0  0  0  0  0  0  0  0  0  0  0
  -88.7312   35.3908   -3.5815 C   0  0  0  0  0  0  0  0  0  0  0  0
 15 16  1  0  0  0
 16 17  1  0  0  0
 16 14  1  0  0  0
 14 10  1  0  0  0
 10  6  1  0  0  0
  6  7  1  0  0  0
  7  8  2  0  0  0
  7  5  1  0  0  0
  5 18  1  0  0  0
 18 19  1  0  0  0
 19 20  2  0  0  0
 20 21  1  0  0  0
 21 22  2  0  0  0
 22 23  1  0  0  0
 23 24  2  0  0  0
  5  1  1  0  0  0
  1  2  1  0  0  0
  2  3  2  0  0  0
  2 25  1  0  0  0
 25 38  1  0  0  0
 38 39  1  0  0  0
 39 40  2  0  0  0
 40 41  1  0  0  0
 41 42  2  0  0  0
 42 43  1  0  0  0
 43 44  2  0  0  0
 25 26  1  0  0  0
 26 27  1  0  0  0
 27 28  2  0  0  0
 27 30  1  0  0  0
 30 31  1  0  0  0
 31 32  1  0  0  0
 32 33  2  0  0  0
 33 34  1  0  0  0
 34 35  2  0  0  0
 35 36  1  0  0  0
 36 37  2  0  0  0
 10 11  1  0  0  0
 11 12  1  0  0  0
 11 13  1  0  0  0
 24 19  1  0  0  0
 44 39  1  0  0  0
 37 32  1  0  0  0
  6  9  1  0  0  0
  1  4  1  0  0  0
 26 29  1  0  0  0
M  END
> <minimizedAffinity>
-8.27760

> <CNNscore>
0.3049717546

> <CNNaffinity>
7.2198801041

> <CNN_VS>
2.2018594742

> <CNNaffinity_variance>
0.2963449955

$$$$
[H]c1c([H])c([H])c(C([H])([H])OC(=O)N([H])[C@]([H])(C(=O)N([H])[C@]([H])(C(=O)N([H])[C@@]([H])(C([H])([H])C([H])(C([H])([H])[H])C([H])([H])[H])C([H])(C([H])([H])[H])C([H])([H])[H])C([H])([H])c2c([H])c([H])c([H])c([H])c2[H])C([H])([H])c2c([H])c([H])c([H])c([H])c2[H])c([H])c1[H]


 44 46  0  0  0  0  0  0  0  0999 V2000
  -89.7522   30.8254   -2.4377 N   0  0  0  0  0  0  0  0  0  0  0  0
  -88.8924   31.3280   -3.4127 C   0  0  0  0  0  0  0  0  0  0  0  0
  -88.6966   30.7282   -4.4981 O   0  0  0  0  0  0  0  0  0  0  0  0
  -90.0553   29.8365   -3.3366 H   0  0  0  0  0  0  0  0  0  0  0  0
  -90.6143   30.2372   -1.5587 C   0  0  0  0  0  0  0  0  0  0  0  0
  -90.0032   28.2544    0.0541 N   0  0  0  0  0  0  0  0  0  0  0  0
  -89.8684   29.4748   -0.5308 C   0  0  0  0  0  0  0  0  0  0  0  0
  -88.8368   30.1694   -0.0981 O   0  0  0  0  0  0  0  0  0  0  0  0
  -90.6919   27.5125   -0.0888 H   0  0  0  0  0  0  0  0  0  0  0  0
  -89.0140   27.7778    1.1503 C   0  0  0  0  0  0  0  0  0  0  0  0
  -88.0923   26.8459    0.4872 C   0  0  0  0  0  0  0  0  0  0  0  0
  -88.6344   25.5743   -0.0685 C   0  0  0  0  0  0  0  0  0  0  0  0
  -86.7855   26.5896    1.1864 C   0  0  0  0  0  0  0  0  0  0  0  0
  -89.8373   27.4965    2.2965 C   0  0  0  0  0  0  0  0  0  0  0  0
  -90.1126   28.0974    4.6007 C   0  0  0  0  0  0  0  0  0  0  0  0
  -89.4046   27.0545    3.6308 C   0  0  0  0  0  0  0  0  0  0  0  0
  -89.9016   25.7243    4.0872 C   0  0  0  0  0  0  0  0  0  0  0  0
  -91.9091   29.7698   -2.0418 C   0  0  0  0  0  0  0  0  0  0  0  0
  -92.4799   29.8670   -3.3331 C   0  0  0  0  0  0  0  0  0  0  0  0
  -93.1494   31.0360   -3.6992 C   0  0  0  0  0  0  0  0  0  0  0  0
  -93.7235   31.2691   -4.9091 C   0  0  0  0  0  0  0  0  0  0  0  0
  -93.6642   30.3099   -5.8770 C   0  0  0  0  0  0  0  0  0  0  0  0
  -93.0121   29.1100   -5.5943 C   0  0  0  0  0  0  0  0  0  0  0  0
  -92.4540   28.9409   -4.3480 C   0  0  0  0  0  0  0  0  0  0  0  0
  -88.1066   32.6031   -3.3137 C   0  0  0  0  0  0  0  0  0  0  0  0
  -86.8512   32.4111   -2.6766 N   0  0  0  0  0  0  0  0  0  0  0  0
  -86.5493   32.6328   -1.3142 C   0  0  0  0  0  0  0  0  0  0  0  0
  -87.3720   33.0414   -0.4502 O   0  0  0  0  0  0  0  0  0  0  0  0
  -86.0476   32.0593   -3.2814 H   0  0  0  0  0  0  0  0  0  0  0  0
  -85.2543   32.3941   -0.8464 O   0  0  0  0  0  0  0  0  0  0  0  0
  -84.9663   32.5747    0.5353 C   0  0  0  0  0  0  0  0  0  0  0  0
  -84.4912   31.3004    1.1755 C   0  0  0  0  0  0  0  0  0  0  0  0
  -85.3817   30.5331    1.9144 C   0  0  0  0  0  0  0  0  0  0  0  0
  -84.9521   29.3637    2.4922 C   0  0  0  0  0  0  0  0  0  0  0  0
  -83.6492   28.9026    2.3732 C   0  0  0  0  0  0  0  0  0  0  0  0
  -82.7714   29.6717    1.6386 C   0  0  0  0  0  0  0  0  0  0  0  0
  -83.1977   30.8428    1.0587 C   0  0  0  0  0  0  0  0  0  0  0  0
  -88.0508   33.2846   -4.6594 C   0  0  0  0  0  0  0  0  0  0  0  0
  -88.0722   34.7665   -4.5515 C   0  0  0  0  0  0  0  0  0  0  0  0
  -87.4648   35.6035   -5.4932 C   0  0  0  0  0  0  0  0  0  0  0  0
  -87.4985   36.9563   -5.3359 C   0  0  0  0  0  0  0  0  0  0  0  0
  -88.1236   37.5159   -4.2567 C   0  0  0  0  0  0  0  0  0  0  0  0
  -88.7296   36.6866   -3.3141 C   0  0  0  0  0  0  0  0  0  0  0  0
  -88.6966   35.3397   -3.4705 C   0  0  0  0  0  0  0  0  0  0  0  0
 15 16  1  0  0  0
 16 17  1  0  0  0
 16 14  1  0  0  0
 14 10  1  0  0  0
 10  6  1  0  0  0
  6  7  1  0  0  0
  7  8  2  0  0  0
  7  5  1  0  0  0
  5 18  1  0  0  0
 18 19  1  0  0  0
 19 20  2  0  0  0
 20 21  1  0  0  0
 21 22  2  0  0  0
 22 23  1  0  0  0
 23 24  2  0  0  0
  5  1  1  0  0  0
  1  2  1  0  0  0
  2  3  2  0  0  0
  2 25  1  0  0  0
 25 38  1  0  0  0
 38 39  1  0  0  0
 39 40  2  0  0  0
 40 41  1  0  0  0
 41 42  2  0  0  0
 42 43  1  0  0  0
 43 44  2  0  0  0
 25 26  1  0  0  0
 26 27  1  0  0  0
 27 28  2  0  0  0
 27 30  1  0  0  0
 30 31  1  0  0  0
 31 32  1  0  0  0
 32 33  2  0  0  0
 33 34  1  0  0  0
 34 35  2  0  0  0
 35 36  1  0  0  0
 36 37  2  0  0  0
 10 11  1  0  0  0
 11 12  1  0  0  0
 11 13  1  0  0  0
 24 19  1  0  0  0
 44 39  1  0  0  0
 37 32  1  0  0  0
  6  9  1  0  0  0
  1  4  1  0  0  0
 26 29  1  0  0  0
M  END
> <minimizedAffinity>
-8.06703

> <CNNscore>
0.2576829493

> <CNNaffinity>
7.1188797951

> <CNN_VS>
1.8344138861

> <CNNaffinity_variance>
0.2673351169

$$$$
[H]c1c([H])c([H])c(C([H])([H])OC(=O)N([H])[C@]([H])(C(=O)N([H])[C@]([H])(C(=O)N([H])[C@@]([H])(C([H])([H])C([H])(C([H])([H])[H])C([H])([H])[H])C([H])(C([H])([H])[H])C([H])([H])[H])C([H])([H])c2c([H])c([H])c([H])c([H])c2[H])C([H])([H])c2c([H])c([H])c([H])c([H])c2[H])c([H])c1[H]


 44 46  0  0  0  0  0  0  0  0999 V2000
  -88.0126   29.7148   -3.1194 N   0  0  0  0  0  0  0  0  0  0  0  0
  -87.9736   30.8710   -3.8968 C   0  0  0  0  0  0  0  0  0  0  0  0
  -87.9581   30.8272   -5.1514 O   0  0  0  0  0  0  0  0  0  0  0  0
  -88.1223   29.0276   -4.2999 H   0  0  0  0  0  0  0  0  0  0  0  0
  -88.0497   28.5185   -2.4643 C   0  0  0  0  0  0  0  0  0  0  0  0
  -89.9406   26.7212   -2.7807 N   0  0  0  0  0  0  0  0  0  0  0  0
  -89.4149   27.9452   -2.5066 C   0  0  0  0  0  0  0  0  0  0  0  0
  -90.3107   28.8617   -2.2046 O   0  0  0  0  0  0  0  0  0  0  0  0
  -89.4922   25.8375   -3.0319 H   0  0  0  0  0  0  0  0  0  0  0  0
  -91.4735   26.4828   -2.7508 C   0  0  0  0  0  0  0  0  0  0  0  0
  -91.7177   25.5542   -1.6392 C   0  0  0  0  0  0  0  0  0  0  0  0
  -92.7797   24.5200   -1.7884 C   0  0  0  0  0  0  0  0  0  0  0  0
  -91.7755   26.1607   -0.2640 C   0  0  0  0  0  0  0  0  0  0  0  0
  -91.8457   26.2867   -4.1269 C   0  0  0  0  0  0  0  0  0  0  0  0
  -93.2622   28.2199   -4.0752 C   0  0  0  0  0  0  0  0  0  0  0  0
  -93.0063   26.8466   -4.8357 C   0  0  0  0  0  0  0  0  0  0  0  0
  -92.7930   27.2423   -6.2579 C   0  0  0  0  0  0  0  0  0  0  0  0
  -87.1928   28.3215   -1.3002 C   0  0  0  0  0  0  0  0  0  0  0  0
  -87.5133   27.8145   -0.0183 C   0  0  0  0  0  0  0  0  0  0  0  0
  -88.6093   28.3375    0.6702 C   0  0  0  0  0  0  0  0  0  0  0  0
  -89.0385   27.9299    1.8938 C   0  0  0  0  0  0  0  0  0  0  0  0
  -88.3745   26.9287    2.5397 C   0  0  0  0  0  0  0  0  0  0  0  0
  -87.2669   26.3493    1.9213 C   0  0  0  0  0  0  0  0  0  0  0  0
  -86.8870   26.8118    0.6822 C   0  0  0  0  0  0  0  0  0  0  0  0
  -87.9438   32.2774   -3.3729 C   0  0  0  0  0  0  0  0  0  0  0  0
  -87.0654   32.4184   -2.2650 N   0  0  0  0  0  0  0  0  0  0  0  0
  -87.3789   32.2112   -0.9029 C   0  0  0  0  0  0  0  0  0  0  0  0
  -88.5101   31.8625   -0.4680 O   0  0  0  0  0  0  0  0  0  0  0  0
  -86.0612   32.7067   -2.4742 H   0  0  0  0  0  0  0  0  0  0  0  0
  -86.3913   32.3955    0.0684 O   0  0  0  0  0  0  0  0  0  0  0  0
  -85.0659   31.9466   -0.1891 C   0  0  0  0  0  0  0  0  0  0  0  0
  -84.6338   30.8954    0.7946 C   0  0  0  0  0  0  0  0  0  0  0  0
  -85.5721   30.3304    1.6478 C   0  0  0  0  0  0  0  0  0  0  0  0
  -85.1812   29.3630    2.5407 C   0  0  0  0  0  0  0  0  0  0  0  0
  -83.8719   28.9144    2.6353 C   0  0  0  0  0  0  0  0  0  0  0  0
  -82.9466   29.4819    1.7848 C   0  0  0  0  0  0  0  0  0  0  0  0
  -83.3341   30.4506    0.8897 C   0  0  0  0  0  0  0  0  0  0  0  0
  -87.7163   33.2488   -4.5056 C   0  0  0  0  0  0  0  0  0  0  0  0
  -88.2076   34.6161   -4.1941 C   0  0  0  0  0  0  0  0  0  0  0  0
  -87.3530   35.6676   -3.8470 C   0  0  0  0  0  0  0  0  0  0  0  0
  -87.8585   36.8979   -3.5527 C   0  0  0  0  0  0  0  0  0  0  0  0
  -89.2062   37.1235   -3.5900 C   0  0  0  0  0  0  0  0  0  0  0  0
  -90.0631   36.0790   -3.9340 C   0  0  0  0  0  0  0  0  0  0  0  0
  -89.5602   34.8540   -4.2275 C   0  0  0  0  0  0  0  0  0  0  0  0
 15 16  1  0  0  0
 16 17  1  0  0  0
 16 14  1  0  0  0
 14 10  1  0  0  0
 10  6  1  0  0  0
  6  7  1  0  0  0
  7  8  2  0  0  0
  7  5  1  0  0  0
  5 18  1  0  0  0
 18 19  1  0  0  0
 19 20  2  0  0  0
 20 21  1  0  0  0
 21 22  2  0  0  0
 22 23  1  0  0  0
 23 24  2  0  0  0
  5  1  1  0  0  0
  1  2  1  0  0  0
  2  3  2  0  0  0
  2 25  1  0  0  0
 25 38  1  0  0  0
 38 39  1  0  0  0
 39 40  2  0  0  0
 40 41  1  0  0  0
 41 42  2  0  0  0
 42 43  1  0  0  0
 43 44  2  0  0  0
 25 26  1  0  0  0
 26 27  1  0  0  0
 27 28  2  0  0  0
 27 30  1  0  0  0
 30 31  1  0  0  0
 31 32  1  0  0  0
 32 33  2  0  0  0
 33 34  1  0  0  0
 34 35  2  0  0  0
 35 36  1  0  0  0
 36 37  2  0  0  0
 10 11  1  0  0  0
 11 12  1  0  0  0
 11 13  1  0  0  0
 24 19  1  0  0  0
 44 39  1  0  0  0
 37 32  1  0  0  0
  6  9  1  0  0  0
  1  4  1  0  0  0
 26 29  1  0  0  0
M  END
> <minimizedAffinity>
-8.74290

> <CNNscore>
0.2206229419

> <CNNaffinity>
6.7876763344

> <CNN_VS>
1.4975171089

> <CNNaffinity_variance>
0.7243792415

$$$$
[H]c1c([H])c([H])c(C([H])([H])OC(=O)N([H])[C@]([H])(C(=O)N([H])[C@]([H])(C(=O)N([H])[C@@]([H])(C([H])([H])C([H])(C([H])([H])[H])C([H])([H])[H])C([H])(C([H])([H])[H])C([H])([H])[H])C([H])([H])c2c([H])c([H])c([H])c([H])c2[H])C([H])([H])c2c([H])c([H])c([H])c([H])c2[H])c([H])c1[H]


 44 46  0  0  0  0  0  0  0  0999 V2000
  -89.4034   30.6204   -3.3460 N   0  0  0  0  0  0  0  0  0  0  0  0
  -88.5019   31.3643   -4.1051 C   0  0  0  0  0  0  0  0  0  0  0  0
  -87.9533   30.8951   -5.1323 O   0  0  0  0  0  0  0  0  0  0  0  0
  -89.2773   29.6492   -4.3046 H   0  0  0  0  0  0  0  0  0  0  0  0
  -90.2676   29.7988   -2.6825 C   0  0  0  0  0  0  0  0  0  0  0  0
  -89.4489   27.9958   -0.9549 N   0  0  0  0  0  0  0  0  0  0  0  0
  -89.5572   28.6063   -2.1654 C   0  0  0  0  0  0  0  0  0  0  0  0
  -88.8762   28.0204   -3.1280 O   0  0  0  0  0  0  0  0  0  0  0  0
  -89.8661   28.2198   -0.0490 H   0  0  0  0  0  0  0  0  0  0  0  0
  -88.5660   26.7332   -0.7707 C   0  0  0  0  0  0  0  0  0  0  0  0
  -89.4959   25.6141   -0.5700 C   0  0  0  0  0  0  0  0  0  0  0  0
  -89.7799   24.7032   -1.7142 C   0  0  0  0  0  0  0  0  0  0  0  0
  -90.7676   25.9280    0.1695 C   0  0  0  0  0  0  0  0  0  0  0  0
  -87.5144   27.1426    0.1222 C   0  0  0  0  0  0  0  0  0  0  0  0
  -85.8077   27.1352    1.8054 C   0  0  0  0  0  0  0  0  0  0  0  0
  -87.3297   26.7641    1.5312 C   0  0  0  0  0  0  0  0  0  0  0  0
  -88.0935   27.5536    2.5403 C   0  0  0  0  0  0  0  0  0  0  0  0
  -91.6489   29.7041   -3.1422 C   0  0  0  0  0  0  0  0  0  0  0  0
  -92.3039   30.4027   -4.1842 C   0  0  0  0  0  0  0  0  0  0  0  0
  -93.1386   29.7035   -5.0579 C   0  0  0  0  0  0  0  0  0  0  0  0
  -93.8411   30.2518   -6.0842 C   0  0  0  0  0  0  0  0  0  0  0  0
  -93.7549   31.5931   -6.3167 C   0  0  0  0  0  0  0  0  0  0  0  0
  -92.9424   32.3673   -5.4889 C   0  0  0  0  0  0  0  0  0  0  0  0
  -92.2585   31.7463   -4.4691 C   0  0  0  0  0  0  0  0  0  0  0  0
  -88.0707   32.7734   -3.8192 C   0  0  0  0  0  0  0  0  0  0  0  0
  -86.7221   32.8423   -3.3772 N   0  0  0  0  0  0  0  0  0  0  0  0
  -86.2723   33.1338   -2.0698 C   0  0  0  0  0  0  0  0  0  0  0  0
  -87.0230   33.3791   -1.0866 O   0  0  0  0  0  0  0  0  0  0  0  0
  -85.9631   32.6516   -4.1002 H   0  0  0  0  0  0  0  0  0  0  0  0
  -84.9011   33.1630   -1.8021 O   0  0  0  0  0  0  0  0  0  0  0  0
  -84.4512   33.5160   -0.4992 C   0  0  0  0  0  0  0  0  0  0  0  0
  -84.0802   32.3037    0.3084 C   0  0  0  0  0  0  0  0  0  0  0  0
  -85.0292   31.7149    1.1332 C   0  0  0  0  0  0  0  0  0  0  0  0
  -84.6950   30.6016    1.8646 C   0  0  0  0  0  0  0  0  0  0  0  0
  -83.4337   30.0259    1.8205 C   0  0  0  0  0  0  0  0  0  0  0  0
  -82.4972   30.6180    0.9995 C   0  0  0  0  0  0  0  0  0  0  0  0
  -82.8280   31.7325    0.2659 C   0  0  0  0  0  0  0  0  0  0  0  0
  -88.4153   33.6686   -4.9846 C   0  0  0  0  0  0  0  0  0  0  0  0
  -88.1440   35.1025   -4.7045 C   0  0  0  0  0  0  0  0  0  0  0  0
  -87.3719   35.9067   -5.5492 C   0  0  0  0  0  0  0  0  0  0  0  0
  -87.1390   37.2116   -5.2348 C   0  0  0  0  0  0  0  0  0  0  0  0
  -87.6534   37.7541   -4.0904 C   0  0  0  0  0  0  0  0  0  0  0  0
  -88.4226   36.9571   -3.2439 C   0  0  0  0  0  0  0  0  0  0  0  0
  -88.6552   35.6579   -3.5567 C   0  0  0  0  0  0  0  0  0  0  0  0
 15 16  1  0  0  0
 16 17  1  0  0  0
 16 14  1  0  0  0
 14 10  1  0  0  0
 10  6  1  0  0  0
  6  7  1  0  0  0
  7  8  2  0  0  0
  7  5  1  0  0  0
  5 18  1  0  0  0
 18 19  1  0  0  0
 19 20  2  0  0  0
 20 21  1  0  0  0
 21 22  2  0  0  0
 22 23  1  0  0  0
 23 24  2  0  0  0
  5  1  1  0  0  0
  1  2  1  0  0  0
  2  3  2  0  0  0
  2 25  1  0  0  0
 25 38  1  0  0  0
 38 39  1  0  0  0
 39 40  2  0  0  0
 40 41  1  0  0  0
 41 42  2  0  0  0
 42 43  1  0  0  0
 43 44  2  0  0  0
 25 26  1  0  0  0
 26 27  1  0  0  0
 27 28  2  0  0  0
 27 30  1  0  0  0
 30 31  1  0  0  0
 31 32  1  0  0  0
 32 33  2  0  0  0
 33 34  1  0  0  0
 34 35  2  0  0  0
 35 36  1  0  0  0
 36 37  2  0  0  0
 10 11  1  0  0  0
 11 12  1  0  0  0
 11 13  1  0  0  0
 24 19  1  0  0  0
 44 39  1  0  0  0
 37 32  1  0  0  0
  6  9  1  0  0  0
  1  4  1  0  0  0
 26 29  1  0  0  0
M  END
> <minimizedAffinity>
-8.40645

> <CNNscore>
0.2184142470

> <CNNaffinity>
6.9588088989

> <CNN_VS>
1.5199030638

> <CNNaffinity_variance>
0.5165707469

$$$$
[H]c1c([H])c([H])c(C([H])([H])OC(=O)N([H])[C@]([H])(C(=O)N([H])[C@]([H])(C(=O)N([H])[C@@]([H])(C([H])([H])C([H])(C([H])([H])[H])C([H])([H])[H])C([H])(C([H])([H])[H])C([H])([H])[H])C([H])([H])c2c([H])c([H])c([H])c([H])c2[H])C([H])([H])c2c([H])c([H])c([H])c([H])c2[H])c([H])c1[H]


 44 46  0  0  0  0  0  0  0  0999 V2000
  -90.1734   30.1415   -3.3380 N   0  0  0  0  0  0  0  0  0  0  0  0
  -89.3043   31.0276   -3.9722 C   0  0  0  0  0  0  0  0  0  0  0  0
  -88.6165   30.6862   -4.9655 O   0  0  0  0  0  0  0  0  0  0  0  0
  -89.8495   29.2501   -4.3272 H   0  0  0  0  0  0  0  0  0  0  0  0
  -90.9879   29.1885   -2.7993 C   0  0  0  0  0  0  0  0  0  0  0  0
  -89.8206   27.5879   -1.0727 N   0  0  0  0  0  0  0  0  0  0  0  0
  -90.1897   28.0453   -2.2991 C   0  0  0  0  0  0  0  0  0  0  0  0
  -89.7436   27.3188   -3.3026 O   0  0  0  0  0  0  0  0  0  0  0  0
  -90.0249   27.9387   -0.1345 H   0  0  0  0  0  0  0  0  0  0  0  0
  -88.9286   26.3271   -0.9231 C   0  0  0  0  0  0  0  0  0  0  0  0
  -89.7024   25.3769   -0.1132 C   0  0  0  0  0  0  0  0  0  0  0  0
  -89.5891   25.4405    1.3709 C   0  0  0  0  0  0  0  0  0  0  0  0
  -89.6898   23.9445   -0.5723 C   0  0  0  0  0  0  0  0  0  0  0  0
  -87.6155   26.8346   -0.6248 C   0  0  0  0  0  0  0  0  0  0  0  0
  -86.3512   27.6680    1.2335 C   0  0  0  0  0  0  0  0  0  0  0  0
  -87.2663   28.1137    0.0114 C   0  0  0  0  0  0  0  0  0  0  0  0
  -86.4061   29.0402   -0.7799 C   0  0  0  0  0  0  0  0  0  0  0  0
  -92.3115   28.9796   -3.3760 C   0  0  0  0  0  0  0  0  0  0  0  0
  -92.7147   28.1164   -4.4226 C   0  0  0  0  0  0  0  0  0  0  0  0
  -93.1627   26.8305   -4.1149 C   0  0  0  0  0  0  0  0  0  0  0  0
  -93.5967   25.9108   -5.0168 C   0  0  0  0  0  0  0  0  0  0  0  0
  -93.6147   26.2269   -6.3434 C   0  0  0  0  0  0  0  0  0  0  0  0
  -93.1837   27.4932   -6.7380 C   0  0  0  0  0  0  0  0  0  0  0  0
  -92.7563   28.3747   -5.7716 C   0  0  0  0  0  0  0  0  0  0  0  0
  -89.0707   32.4571   -3.5784 C   0  0  0  0  0  0  0  0  0  0  0  0
  -87.7409   32.6792   -3.1298 N   0  0  0  0  0  0  0  0  0  0  0  0
  -87.2793   32.6420   -1.7949 C   0  0  0  0  0  0  0  0  0  0  0  0
  -88.0000   32.3995   -0.7888 O   0  0  0  0  0  0  0  0  0  0  0  0
  -87.0068   32.8933   -3.8717 H   0  0  0  0  0  0  0  0  0  0  0  0
  -85.9303   32.8865   -1.5239 O   0  0  0  0  0  0  0  0  0  0  0  0
  -85.5361   33.2407   -0.2035 C   0  0  0  0  0  0  0  0  0  0  0  0
  -84.6446   32.1972    0.4096 C   0  0  0  0  0  0  0  0  0  0  0  0
  -83.3760   31.9884   -0.1144 C   0  0  0  0  0  0  0  0  0  0  0  0
  -82.5563   31.0421    0.4503 C   0  0  0  0  0  0  0  0  0  0  0  0
  -82.9397   30.2699    1.5370 C   0  0  0  0  0  0  0  0  0  0  0  0
  -84.2017   30.4833    2.0501 C   0  0  0  0  0  0  0  0  0  0  0  0
  -85.0250   31.4296    1.4876 C   0  0  0  0  0  0  0  0  0  0  0  0
  -89.5464   33.3816   -4.6726 C   0  0  0  0  0  0  0  0  0  0  0  0
  -88.9213   34.7275   -4.5964 C   0  0  0  0  0  0  0  0  0  0  0  0
  -87.8897   35.1332   -5.4495 C   0  0  0  0  0  0  0  0  0  0  0  0
  -87.3392   36.3730   -5.3239 C   0  0  0  0  0  0  0  0  0  0  0  0
  -87.7841   37.2378   -4.3633 C   0  0  0  0  0  0  0  0  0  0  0  0
  -88.8111   36.8385   -3.5093 C   0  0  0  0  0  0  0  0  0  0  0  0
  -89.3598   35.6044   -3.6341 C   0  0  0  0  0  0  0  0  0  0  0  0
 15 16  1  0  0  0
 16 17  1  0  0  0
 16 14  1  0  0  0
 14 10  1  0  0  0
 10  6  1  0  0  0
  6  7  1  0  0  0
  7  8  2  0  0  0
  7  5  1  0  0  0
  5 18  1  0  0  0
 18 19  1  0  0  0
 19 20  2  0  0  0
 20 21  1  0  0  0
 21 22  2  0  0  0
 22 23  1  0  0  0
 23 24  2  0  0  0
  5  1  1  0  0  0
  1  2  1  0  0  0
  2  3  2  0  0  0
  2 25  1  0  0  0
 25 38  1  0  0  0
 38 39  1  0  0  0
 39 40  2  0  0  0
 40 41  1  0  0  0
 41 42  2  0  0  0
 42 43  1  0  0  0
 43 44  2  0  0  0
 25 26  1  0  0  0
 26 27  1  0  0  0
 27 28  2  0  0  0
 27 30  1  0  0  0
 30 31  1  0  0  0
 31 32  1  0  0  0
 32 33  2  0  0  0
 33 34  1  0  0  0
 34 35  2  0  0  0
 35 36  1  0  0  0
 36 37  2  0  0  0
 10 11  1  0  0  0
 11 12  1  0  0  0
 11 13  1  0  0  0
 24 19  1  0  0  0
 44 39  1  0  0  0
 37 32  1  0  0  0
  6  9  1  0  0  0
  1  4  1  0  0  0
 26 29  1  0  0  0
M  END
> <minimizedAffinity>
-8.54470

> <CNNscore>
0.2066399455

> <CNNaffinity>
6.8907179832

> <CNN_VS>
1.4238976240

> <CNNaffinity_variance>
0.3851828873

$$$$
[H]c1c([H])c([H])c(C([H])([H])OC(=O)N([H])[C@]([H])(C(=O)N([H])[C@]([H])(C(=O)N([H])[C@@]([H])(C([H])([H])C([H])(C([H])([H])[H])C([H])([H])[H])C([H])(C([H])([H])[H])C([H])([H])[H])C([H])([H])c2c([H])c([H])c([H])c([H])c2[H])C([H])([H])c2c([H])c([H])c([H])c([H])c2[H])c([H])c1[H]


 44 46  0  0  0  0  0  0  0  0999 V2000
  -87.5927   32.4026   -1.3943 N   0  0  0  0  0  0  0  0  0  0  0  0
  -88.4852   31.3840   -1.0649 C   0  0  0  0  0  0  0  0  0  0  0  0
  -89.3853   31.5426   -0.2042 O   0  0  0  0  0  0  0  0  0  0  0  0
  -88.3227   33.1983   -0.5505 H   0  0  0  0  0  0  0  0  0  0  0  0
  -86.7770   33.4701   -1.6326 C   0  0  0  0  0  0  0  0  0  0  0  0
  -88.0255   35.4760   -2.7828 N   0  0  0  0  0  0  0  0  0  0  0  0
  -87.3265   34.3110   -2.7212 C   0  0  0  0  0  0  0  0  0  0  0  0
  -87.0615   33.7780   -3.8957 O   0  0  0  0  0  0  0  0  0  0  0  0
  -88.3560   36.1020   -2.0453 H   0  0  0  0  0  0  0  0  0  0  0  0
  -88.4706   36.0720   -4.1446 C   0  0  0  0  0  0  0  0  0  0  0  0
  -87.8136   37.3816   -4.2480 C   0  0  0  0  0  0  0  0  0  0  0  0
  -86.4644   37.4599   -4.8752 C   0  0  0  0  0  0  0  0  0  0  0  0
  -87.8661   38.2528   -3.0229 C   0  0  0  0  0  0  0  0  0  0  0  0
  -89.8848   35.8161   -4.2174 C   0  0  0  0  0  0  0  0  0  0  0  0
  -91.3243   37.3018   -5.4286 C   0  0  0  0  0  0  0  0  0  0  0  0
  -90.7418   35.8219   -5.4125 C   0  0  0  0  0  0  0  0  0  0  0  0
  -90.0539   35.6779   -6.7281 C   0  0  0  0  0  0  0  0  0  0  0  0
  -85.3363   33.3117   -1.4661 C   0  0  0  0  0  0  0  0  0  0  0  0
  -84.6139   32.6069   -0.4740 C   0  0  0  0  0  0  0  0  0  0  0  0
  -85.2609   32.2261    0.7029 C   0  0  0  0  0  0  0  0  0  0  0  0
  -84.6939   31.5306    1.7239 C   0  0  0  0  0  0  0  0  0  0  0  0
  -83.3869   31.1511    1.6343 C   0  0  0  0  0  0  0  0  0  0  0  0
  -82.6660   31.4907    0.4898 C   0  0  0  0  0  0  0  0  0  0  0  0
  -83.3027   32.1968   -0.5049 C   0  0  0  0  0  0  0  0  0  0  0  0
  -88.5011   30.0071   -1.6624 C   0  0  0  0  0  0  0  0  0  0  0  0
  -89.1580   29.9766   -2.9219 N   0  0  0  0  0  0  0  0  0  0  0  0
  -90.5518   29.9336   -3.1502 C   0  0  0  0  0  0  0  0  0  0  0  0
  -91.4307   29.9167   -2.2460 O   0  0  0  0  0  0  0  0  0  0  0  0
  -88.5429   29.9914   -3.7917 H   0  0  0  0  0  0  0  0  0  0  0  0
  -91.0361   29.9065   -4.4607 O   0  0  0  0  0  0  0  0  0  0  0  0
  -92.4397   29.8454   -4.6856 C   0  0  0  0  0  0  0  0  0  0  0  0
  -92.8888   28.4509   -5.0223 C   0  0  0  0  0  0  0  0  0  0  0  0
  -93.4697   27.6632   -4.0376 C   0  0  0  0  0  0  0  0  0  0  0  0
  -93.8893   26.3923   -4.3456 C   0  0  0  0  0  0  0  0  0  0  0  0
  -93.7586   25.8460   -5.6140 C   0  0  0  0  0  0  0  0  0  0  0  0
  -93.1796   26.6351   -6.5853 C   0  0  0  0  0  0  0  0  0  0  0  0
  -92.7583   27.9077   -6.2808 C   0  0  0  0  0  0  0  0  0  0  0  0
  -87.1120   29.4168   -1.6437 C   0  0  0  0  0  0  0  0  0  0  0  0
  -86.9298   28.4165   -0.5600 C   0  0  0  0  0  0  0  0  0  0  0  0
  -87.5870   27.1819   -0.5502 C   0  0  0  0  0  0  0  0  0  0  0  0
  -87.3979   26.3089    0.4784 C   0  0  0  0  0  0  0  0  0  0  0  0
  -86.5661   26.6256    1.5158 C   0  0  0  0  0  0  0  0  0  0  0  0
  -85.9093   27.8553    1.5122 C   0  0  0  0  0  0  0  0  0  0  0  0
  -86.0970   28.7247    0.4881 C   0  0  0  0  0  0  0  0  0  0  0  0
 15 16  1  0  0  0
 16 17  1  0  0  0
 16 14  1  0  0  0
 14 10  1  0  0  0
 10  6  1  0  0  0
  6  7  1  0  0  0
  7  8  2  0  0  0
  7  5  1  0  0  0
  5 18  1  0  0  0
 18 19  1  0  0  0
 19 20  2  0  0  0
 20 21  1  0  0  0
 21 22  2  0  0  0
 22 23  1  0  0  0
 23 24  2  0  0  0
  5  1  1  0  0  0
  1  2  1  0  0  0
  2  3  2  0  0  0
  2 25  1  0  0  0
 25 38  1  0  0  0
 38 39  1  0  0  0
 39 40  2  0  0  0
 40 41  1  0  0  0
 41 42  2  0  0  0
 42 43  1  0  0  0
 43 44  2  0  0  0
 25 26  1  0  0  0
 26 27  1  0  0  0
 27 28  2  0  0  0
 27 30  1  0  0  0
 30 31  1  0  0  0
 31 32  1  0  0  0
 32 33  2  0  0  0
 33 34  1  0  0  0
 34 35  2  0  0  0
 35 36  1  0  0  0
 36 37  2  0  0  0
 10 11  1  0  0  0
 11 12  1  0  0  0
 11 13  1  0  0  0
 24 19  1  0  0  0
 44 39  1  0  0  0
 37 32  1  0  0  0
  6  9  1  0  0  0
  1  4  1  0  0  0
 26 29  1  0  0  0
M  END
> <minimizedAffinity>
-8.17110

> <CNNscore>
0.2041072249

> <CNNaffinity>
6.4562311172

> <CNN_VS>
1.3177634478

> <CNNaffinity_variance>
0.7024081945

$$$$
[H]c1c([H])c([H])c(C([H])([H])OC(=O)N([H])[C@]([H])(C(=O)N([H])[C@]([H])(C(=O)N([H])[C@@]([H])(C([H])([H])C([H])(C([H])([H])[H])C([H])([H])[H])C([H])(C([H])([H])[H])C([H])([H])[H])C([H])([H])c2c([H])c([H])c([H])c([H])c2[H])C([H])([H])c2c([H])c([H])c([H])c([H])c2[H])c([H])c1[H]


 44 46  0  0  0  0  0  0  0  0999 V2000
  -87.4628   31.7777   -2.0523 N   0  0  0  0  0  0  0  0  0  0  0  0
  -87.9046   30.5592   -2.5647 C   0  0  0  0  0  0  0  0  0  0  0  0
  -87.9171   30.3229   -3.7977 O   0  0  0  0  0  0  0  0  0  0  0  0
  -87.1361   32.1042   -3.3424 H   0  0  0  0  0  0  0  0  0  0  0  0
  -87.0103   33.0061   -1.6677 C   0  0  0  0  0  0  0  0  0  0  0  0
  -87.0361   34.9775   -3.4051 N   0  0  0  0  0  0  0  0  0  0  0  0
  -87.5621   34.0620   -2.5480 C   0  0  0  0  0  0  0  0  0  0  0  0
  -88.8750   34.1009   -2.4561 O   0  0  0  0  0  0  0  0  0  0  0  0
  -86.0689   35.1670   -3.6764 H   0  0  0  0  0  0  0  0  0  0  0  0
  -87.9462   35.9768   -4.1672 C   0  0  0  0  0  0  0  0  0  0  0  0
  -88.0144   35.4888   -5.5509 C   0  0  0  0  0  0  0  0  0  0  0  0
  -87.4883   36.3541   -6.6437 C   0  0  0  0  0  0  0  0  0  0  0  0
  -89.3125   34.8558   -5.9716 C   0  0  0  0  0  0  0  0  0  0  0  0
  -87.5074   37.2789   -3.7399 C   0  0  0  0  0  0  0  0  0  0  0  0
  -89.7225   38.1674   -3.9635 C   0  0  0  0  0  0  0  0  0  0  0  0
  -88.1838   38.5692   -3.9408 C   0  0  0  0  0  0  0  0  0  0  0  0
  -88.0738   39.5606   -2.8318 C   0  0  0  0  0  0  0  0  0  0  0  0
  -85.6664   33.1240   -1.1122 C   0  0  0  0  0  0  0  0  0  0  0  0
  -84.9680   32.2508   -0.2448 C   0  0  0  0  0  0  0  0  0  0  0  0
  -83.5720   32.2576   -0.2454 C   0  0  0  0  0  0  0  0  0  0  0  0
  -82.7801   31.4887    0.5480 C   0  0  0  0  0  0  0  0  0  0  0  0
  -83.3534   30.6250    1.4345 C   0  0  0  0  0  0  0  0  0  0  0  0
  -84.7447   30.5557    1.5005 C   0  0  0  0  0  0  0  0  0  0  0  0
  -85.4851   31.3623    0.6671 C   0  0  0  0  0  0  0  0  0  0  0  0
  -88.4101   29.4008   -1.7550 C   0  0  0  0  0  0  0  0  0  0  0  0
  -89.3045   28.5800   -2.4936 N   0  0  0  0  0  0  0  0  0  0  0  0
  -90.7062   28.4977   -2.3356 C   0  0  0  0  0  0  0  0  0  0  0  0
  -91.3776   29.1581   -1.4968 O   0  0  0  0  0  0  0  0  0  0  0  0
  -88.8831   27.9607   -3.2513 H   0  0  0  0  0  0  0  0  0  0  0  0
  -91.4428   27.6325   -3.1489 O   0  0  0  0  0  0  0  0  0  0  0  0
  -91.0610   26.2648   -3.2399 C   0  0  0  0  0  0  0  0  0  0  0  0
  -90.8576   25.6526   -1.8822 C   0  0  0  0  0  0  0  0  0  0  0  0
  -89.6136   25.1374   -1.5439 C   0  0  0  0  0  0  0  0  0  0  0  0
  -89.4231   24.5863   -0.3005 C   0  0  0  0  0  0  0  0  0  0  0  0
  -90.4298   24.5165    0.6513 C   0  0  0  0  0  0  0  0  0  0  0  0
  -91.6624   25.0296    0.3062 C   0  0  0  0  0  0  0  0  0  0  0  0
  -91.8569   25.5820   -0.9374 C   0  0  0  0  0  0  0  0  0  0  0  0
  -87.2552   28.6771   -1.1064 C   0  0  0  0  0  0  0  0  0  0  0  0
  -87.6372   28.0169    0.1688 C   0  0  0  0  0  0  0  0  0  0  0  0
  -88.8469   28.2738    0.8223 C   0  0  0  0  0  0  0  0  0  0  0  0
  -89.1391   27.6541    1.9998 C   0  0  0  0  0  0  0  0  0  0  0  0
  -88.2559   26.7746    2.5611 C   0  0  0  0  0  0  0  0  0  0  0  0
  -87.0481   26.5155    1.9150 C   0  0  0  0  0  0  0  0  0  0  0  0
  -86.7568   27.1319    0.7425 C   0  0  0  0  0  0  0  0  0  0  0  0
 15 16  1  0  0  0
 16 17  1  0  0  0
 16 14  1  0  0  0
 14 10  1  0  0  0
 10  6  1  0  0  0
  6  7  1  0  0  0
  7  8  2  0  0  0
  7  5  1  0  0  0
  5 18  1  0  0  0
 18 19  1  0  0  0
 19 20  2  0  0  0
 20 21  1  0  0  0
 21 22  2  0  0  0
 22 23  1  0  0  0
 23 24  2  0  0  0
  5  1  1  0  0  0
  1  2  1  0  0  0
  2  3  2  0  0  0
  2 25  1  0  0  0
 25 38  1  0  0  0
 38 39  1  0  0  0
 39 40  2  0  0  0
 40 41  1  0  0  0
 41 42  2  0  0  0
 42 43  1  0  0  0
 43 44  2  0  0  0
 25 26  1  0  0  0
 26 27  1  0  0  0
 27 28  2  0  0  0
 27 30  1  0  0  0
 30 31  1  0  0  0
 31 32  1  0  0  0
 32 33  2  0  0  0
 33 34  1  0  0  0
 34 35  2  0  0  0
 35 36  1  0  0  0
 36 37  2  0  0  0
 10 11  1  0  0  0
 11 12  1  0  0  0
 11 13  1  0  0  0
 24 19  1  0  0  0
 44 39  1  0  0  0
 37 32  1  0  0  0
  6  9  1  0  0  0
  1  4  1  0  0  0
 26 29  1  0  0  0
M  END
> <minimizedAffinity>
-8.47861

> <CNNscore>
0.1755888462

> <CNNaffinity>
6.7851128578

> <CNN_VS>
1.1913901567

> <CNNaffinity_variance>
0.5150758028

$$$$
[H]c1c([H])c([H])c(C([H])([H])OC(=O)N([H])[C@]([H])(C(=O)N([H])[C@]([H])(C(=O)N([H])[C@@]([H])(C([H])([H])C([H])(C([H])([H])[H])C([H])([H])[H])C([H])(C([H])([H])[H])C([H])([H])[H])C([H])([H])c2c([H])c([H])c([H])c([H])c2[H])C([H])([H])c2c([H])c([H])c([H])c([H])c2[H])c([H])c1[H]


 44 46  0  0  0  0  0  0  0  0999 V2000
  -88.0713   29.8422   -3.1617 N   0  0  0  0  0  0  0  0  0  0  0  0
  -88.0605   30.9886   -3.9543 C   0  0  0  0  0  0  0  0  0  0  0  0
  -88.0716   30.9287   -5.2084 O   0  0  0  0  0  0  0  0  0  0  0  0
  -88.1996   29.1388   -4.3307 H   0  0  0  0  0  0  0  0  0  0  0  0
  -88.0825   28.6541   -2.4907 C   0  0  0  0  0  0  0  0  0  0  0  0
  -90.6404   28.4028   -1.9433 N   0  0  0  0  0  0  0  0  0  0  0  0
  -89.4430   28.0682   -2.4945 C   0  0  0  0  0  0  0  0  0  0  0  0
  -89.4673   26.9609   -3.2066 O   0  0  0  0  0  0  0  0  0  0  0  0
  -90.9145   29.1973   -1.3615 H   0  0  0  0  0  0  0  0  0  0  0  0
  -91.8929   27.5095   -2.1457 C   0  0  0  0  0  0  0  0  0  0  0  0
  -92.8986   28.3622   -2.7929 C   0  0  0  0  0  0  0  0  0  0  0  0
  -92.7625   28.6546   -4.2474 C   0  0  0  0  0  0  0  0  0  0  0  0
  -93.2946   29.6083   -2.0493 C   0  0  0  0  0  0  0  0  0  0  0  0
  -92.0457   26.7976   -0.9045 C   0  0  0  0  0  0  0  0  0  0  0  0
  -91.7932   24.6840   -2.0070 C   0  0  0  0  0  0  0  0  0  0  0  0
  -91.6441   25.4154   -0.6026 C   0  0  0  0  0  0  0  0  0  0  0  0
  -90.2179   25.2027   -0.2211 C   0  0  0  0  0  0  0  0  0  0  0  0
  -87.1976   28.4799   -1.3441 C   0  0  0  0  0  0  0  0  0  0  0  0
  -87.4706   27.9337   -0.0673 C   0  0  0  0  0  0  0  0  0  0  0  0
  -88.5226   28.4538    0.6888 C   0  0  0  0  0  0  0  0  0  0  0  0
  -88.9047   28.0112    1.9159 C   0  0  0  0  0  0  0  0  0  0  0  0
  -88.2342   26.9742    2.4951 C   0  0  0  0  0  0  0  0  0  0  0  0
  -87.1687   26.3951    1.8064 C   0  0  0  0  0  0  0  0  0  0  0  0
  -86.8354   26.8940    0.5681 C   0  0  0  0  0  0  0  0  0  0  0  0
  -88.0332   32.4018   -3.4492 C   0  0  0  0  0  0  0  0  0  0  0  0
  -87.1068   32.5733   -2.3857 N   0  0  0  0  0  0  0  0  0  0  0  0
  -87.4010   32.6204   -1.0044 C   0  0  0  0  0  0  0  0  0  0  0  0
  -88.5557   32.5132   -0.5088 O   0  0  0  0  0  0  0  0  0  0  0  0
  -86.0789   32.6740   -2.6475 H   0  0  0  0  0  0  0  0  0  0  0  0
  -86.3650   32.7975   -0.0836 O   0  0  0  0  0  0  0  0  0  0  0  0
  -85.0675   32.2987   -0.3874 C   0  0  0  0  0  0  0  0  0  0  0  0
  -84.6463   31.2226    0.5739 C   0  0  0  0  0  0  0  0  0  0  0  0
  -83.3123   30.8422    0.6328 C   0  0  0  0  0  0  0  0  0  0  0  0
  -82.9239   29.8659    1.5171 C   0  0  0  0  0  0  0  0  0  0  0  0
  -83.8137   29.2286    2.3693 C   0  0  0  0  0  0  0  0  0  0  0  0
  -85.1367   29.6120    2.3032 C   0  0  0  0  0  0  0  0  0  0  0  0
  -85.5294   30.5888    1.4193 C   0  0  0  0  0  0  0  0  0  0  0  0
  -87.8778   33.3628   -4.6028 C   0  0  0  0  0  0  0  0  0  0  0  0
  -88.3290   34.7381   -4.2666 C   0  0  0  0  0  0  0  0  0  0  0  0
  -89.6787   35.1021   -4.2181 C   0  0  0  0  0  0  0  0  0  0  0  0
  -90.0366   36.3828   -3.9224 C   0  0  0  0  0  0  0  0  0  0  0  0
  -89.0847   37.3309   -3.6707 C   0  0  0  0  0  0  0  0  0  0  0  0
  -87.7378   36.9743   -3.7188 C   0  0  0  0  0  0  0  0  0  0  0  0
  -87.3808   35.6992   -4.0128 C   0  0  0  0  0  0  0  0  0  0  0  0
 15 16  1  0  0  0
 16 17  1  0  0  0
 16 14  1  0  0  0
 14 10  1  0  0  0
 10  6  1  0  0  0
  6  7  1  0  0  0
  7  8  2  0  0  0
  7  5  1  0  0  0
  5 18  1  0  0  0
 18 19  1  0  0  0
 19 20  2  0  0  0
 20 21  1  0  0  0
 21 22  2  0  0  0
 22 23  1  0  0  0
 23 24  2  0  0  0
  5  1  1  0  0  0
  1  2  1  0  0  0
  2  3  2  0  0  0
  2 25  1  0  0  0
 25 38  1  0  0  0
 38 39  1  0  0  0
 39 40  2  0  0  0
 40 41  1  0  0  0
 41 42  2  0  0  0
 42 43  1  0  0  0
 43 44  2  0  0  0
 25 26  1  0  0  0
 26 27  1  0  0  0
 27 28  2  0  0  0
 27 30  1  0  0  0
 30 31  1  0  0  0
 31 32  1  0  0  0
 32 33  2  0  0  0
 33 34  1  0  0  0
 34 35  2  0  0  0
 35 36  1  0  0  0
 36 37  2  0  0  0
 10 11  1  0  0  0
 11 12  1  0  0  0
 11 13  1  0  0  0
 24 19  1  0  0  0
 44 39  1  0  0  0
 37 32  1  0  0  0
  6  9  1  0  0  0
  1  4  1  0  0  0
 26 29  1  0  0  0
M  END
> <minimizedAffinity>
-8.43988

> <CNNscore>
0.1681747437

> <CNNaffinity>
6.7387871742

> <CNN_VS>
1.1332937479

> <CNNaffinity_variance>
0.8201820254

$$$$
[H]c1c([H])c([H])c(C([H])([H])OC(=O)N([H])[C@]([H])(C(=O)N([H])[C@]([H])(C(=O)N([H])[C@@]([H])(C([H])([H])C([H])(C([H])([H])[H])C([H])([H])[H])C([H])(C([H])([H])[H])C([H])([H])[H])C([H])([H])c2c([H])c([H])c([H])c([H])c2[H])C([H])([H])c2c([H])c([H])c([H])c([H])c2[H])c([H])c1[H]


 44 46  0  0  0  0  0  0  0  0999 V2000
  -87.5147   32.2493   -0.9773 N   0  0  0  0  0  0  0  0  0  0  0  0
  -88.4812   31.2912   -0.6765 C   0  0  0  0  0  0  0  0  0  0  0  0
  -89.5927   31.6020   -0.1822 O   0  0  0  0  0  0  0  0  0  0  0  0
  -88.4482   33.1825   -0.6090 H   0  0  0  0  0  0  0  0  0  0  0  0
  -86.6476   33.2724   -1.2284 C   0  0  0  0  0  0  0  0  0  0  0  0
  -87.7073   35.1838   -2.6877 N   0  0  0  0  0  0  0  0  0  0  0  0
  -87.0574   34.0144   -2.4432 C   0  0  0  0  0  0  0  0  0  0  0  0
  -86.6946   33.3618   -3.5278 O   0  0  0  0  0  0  0  0  0  0  0  0
  -88.0885   35.8872   -2.0514 H   0  0  0  0  0  0  0  0  0  0  0  0
  -87.9943   35.6526   -4.1388 C   0  0  0  0  0  0  0  0  0  0  0  0
  -87.1817   36.8590   -4.3431 C   0  0  0  0  0  0  0  0  0  0  0  0
  -87.5718   38.1140   -3.6414 C   0  0  0  0  0  0  0  0  0  0  0  0
  -86.7823   37.1618   -5.7613 C   0  0  0  0  0  0  0  0  0  0  0  0
  -89.4216   35.5470   -4.2876 C   0  0  0  0  0  0  0  0  0  0  0  0
  -89.9589   35.3503   -6.6155 C   0  0  0  0  0  0  0  0  0  0  0  0
  -90.1707   34.6654   -5.1957 C   0  0  0  0  0  0  0  0  0  0  0  0
  -89.6437   33.2807   -5.3676 C   0  0  0  0  0  0  0  0  0  0  0  0
  -85.2369   33.1027   -0.8975 C   0  0  0  0  0  0  0  0  0  0  0  0
  -84.6245   32.2129    0.0168 C   0  0  0  0  0  0  0  0  0  0  0  0
  -85.2736   31.9083    1.2146 C   0  0  0  0  0  0  0  0  0  0  0  0
  -84.8097   31.0575    2.1678 C   0  0  0  0  0  0  0  0  0  0  0  0
  -83.6156   30.4254    1.9808 C   0  0  0  0  0  0  0  0  0  0  0  0
  -82.9010   30.6729    0.8090 C   0  0  0  0  0  0  0  0  0  0  0  0
  -83.4296   31.5468   -0.1131 C   0  0  0  0  0  0  0  0  0  0  0  0
  -88.3425   29.8116   -0.8878 C   0  0  0  0  0  0  0  0  0  0  0  0
  -88.1032   29.1165    0.3281 N   0  0  0  0  0  0  0  0  0  0  0  0
  -86.8992   28.4923    0.7249 C   0  0  0  0  0  0  0  0  0  0  0  0
  -85.8411   28.4644    0.0393 O   0  0  0  0  0  0  0  0  0  0  0  0
  -88.9099   29.0579    1.0217 H   0  0  0  0  0  0  0  0  0  0  0  0
  -86.8320   27.8458    1.9619 O   0  0  0  0  0  0  0  0  0  0  0  0
  -87.3495   26.5265    2.0897 C   0  0  0  0  0  0  0  0  0  0  0  0
  -88.6255   26.5041    2.8840 C   0  0  0  0  0  0  0  0  0  0  0  0
  -89.1188   27.6866    3.4187 C   0  0  0  0  0  0  0  0  0  0  0  0
  -90.2894   27.6698    4.1367 C   0  0  0  0  0  0  0  0  0  0  0  0
  -91.0163   26.5095    4.3592 C   0  0  0  0  0  0  0  0  0  0  0  0
  -90.5183   25.3397    3.8254 C   0  0  0  0  0  0  0  0  0  0  0  0
  -89.3468   25.3525    3.1061 C   0  0  0  0  0  0  0  0  0  0  0  0
  -89.4966   29.2941   -1.7116 C   0  0  0  0  0  0  0  0  0  0  0  0
  -90.0258   28.0009   -1.2061 C   0  0  0  0  0  0  0  0  0  0  0  0
  -91.0508   27.9203   -0.2578 C   0  0  0  0  0  0  0  0  0  0  0  0
  -91.4858   26.7078    0.1853 C   0  0  0  0  0  0  0  0  0  0  0  0
  -90.9276   25.5531   -0.2875 C   0  0  0  0  0  0  0  0  0  0  0  0
  -89.9048   25.6270   -1.2319 C   0  0  0  0  0  0  0  0  0  0  0  0
  -89.4715   26.8340   -1.6736 C   0  0  0  0  0  0  0  0  0  0  0  0
 15 16  1  0  0  0
 16 17  1  0  0  0
 16 14  1  0  0  0
 14 10  1  0  0  0
 10  6  1  0  0  0
  6  7  1  0  0  0
  7  8  2  0  0  0
  7  5  1  0  0  0
  5 18  1  0  0  0
 18 19  1  0  0  0
 19 20  2  0  0  0
 20 21  1  0  0  0
 21 22  2  0  0  0
 22 23  1  0  0  0
 23 24  2  0  0  0
  5  1  1  0  0  0
  1  2  1  0  0  0
  2  3  2  0  0  0
  2 25  1  0  0  0
 25 38  1  0  0  0
 38 39  1  0  0  0
 39 40  2  0  0  0
 40 41  1  0  0  0
 41 42  2  0  0  0
 42 43  1  0  0  0
 43 44  2  0  0  0
 25 26  1  0  0  0
 26 27  1  0  0  0
 27 28  2  0  0  0
 27 30  1  0  0  0
 30 31  1  0  0  0
 31 32  1  0  0  0
 32 33  2  0  0  0
 33 34  1  0  0  0
 34 35  2  0  0  0
 35 36  1  0  0  0
 36 37  2  0  0  0
 10 11  1  0  0  0
 11 12  1  0  0  0
 11 13  1  0  0  0
 24 19  1  0  0  0
 44 39  1  0  0  0
 37 32  1  0  0  0
  6  9  1  0  0  0
  1  4  1  0  0  0
 26 29  1  0  0  0
M  END
> <minimizedAffinity>
-8.13177

> <CNNscore>
0.1570561528

> <CNNaffinity>
6.7734503746

> <CNN_VS>
1.0638120174

> <CNNaffinity_variance>
0.7324636579

$$$$
[H]c1c([H])c([H])c(-c2c([H])c([H])c(C(=O)N([H])[C@]([H])(C(=O)N([H])[C@]([H])(C(=O)N([H])[H])C([H])([H])c3c([H])c([H])c([H])c([H])c3[H])C([H])([H])C([H])(C([H])([H])[H])C([H])([H])[H])c([H])c2[H])c([H])c1[H]


 38 40  0  0  0  0  0  0  0  0999 V2000
  -88.2949   29.2012   -0.0014 C   0  0  0  0  0  0  0  0  0  0  0  0
  -89.1273   28.4856   -0.9142 N   0  0  0  0  0  0  0  0  0  0  0  0
  -90.3967   27.9712   -0.5990 C   0  0  0  0  0  0  0  0  0  0  0  0
  -90.8625   28.1326    0.5554 O   0  0  0  0  0  0  0  0  0  0  0  0
  -88.7638   28.3586   -1.8828 H   0  0  0  0  0  0  0  0  0  0  0  0
  -91.1724   27.2561   -1.5927 C   0  0  0  0  0  0  0  0  0  0  0  0
  -90.9822   25.9358   -1.9081 C   0  0  0  0  0  0  0  0  0  0  0  0
  -91.7688   25.3000   -2.8748 C   0  0  0  0  0  0  0  0  0  0  0  0
  -92.7652   25.9672   -3.5506 C   0  0  0  0  0  0  0  0  0  0  0  0
  -92.9424   27.2947   -3.2209 C   0  0  0  0  0  0  0  0  0  0  0  0
  -92.1879   27.9377   -2.2813 C   0  0  0  0  0  0  0  0  0  0  0  0
  -93.5835   25.3067   -4.5555 C   0  0  0  0  0  0  0  0  0  0  0  0
  -93.7481   25.8860   -5.7944 C   0  0  0  0  0  0  0  0  0  0  0  0
  -94.5082   25.3070   -6.7841 C   0  0  0  0  0  0  0  0  0  0  0  0
  -95.1130   24.0971   -6.4816 C   0  0  0  0  0  0  0  0  0  0  0  0
  -94.9580   23.5009   -5.2415 C   0  0  0  0  0  0  0  0  0  0  0  0
  -94.1798   24.1122   -4.2557 C   0  0  0  0  0  0  0  0  0  0  0  0
  -88.2630   30.6424   -0.3251 C   0  0  0  0  0  0  0  0  0  0  0  0
  -89.3102   31.3574   -0.2483 O   0  0  0  0  0  0  0  0  0  0  0  0
  -87.0823   31.2732   -0.7280 N   0  0  0  0  0  0  0  0  0  0  0  0
  -86.2034   30.7250   -0.8042 H   0  0  0  0  0  0  0  0  0  0  0  0
  -87.0170   32.7084   -1.0582 C   0  0  0  0  0  0  0  0  0  0  0  0
  -86.8115   32.7912   -2.5126 C   0  0  0  0  0  0  0  0  0  0  0  0
  -85.9138   33.6853   -3.1490 N   0  0  0  0  0  0  0  0  0  0  0  0
  -87.4611   32.0326   -3.2959 O   0  0  0  0  0  0  0  0  0  0  0  0
  -85.1949   33.3839   -3.8564 H   0  0  0  0  0  0  0  0  0  0  0  0
  -85.9949   34.6983   -2.8793 H   0  0  0  0  0  0  0  0  0  0  0  0
  -85.9396   33.2882   -0.2199 C   0  0  0  0  0  0  0  0  0  0  0  0
  -84.8836   32.3685    0.2406 C   0  0  0  0  0  0  0  0  0  0  0  0
  -83.7019   32.1173   -0.4244 C   0  0  0  0  0  0  0  0  0  0  0  0
  -82.7505   31.2442    0.0608 C   0  0  0  0  0  0  0  0  0  0  0  0
  -82.9326   30.5699    1.2482 C   0  0  0  0  0  0  0  0  0  0  0  0
  -84.1039   30.7987    1.9378 C   0  0  0  0  0  0  0  0  0  0  0  0
  -85.0491   31.6721    1.4466 C   0  0  0  0  0  0  0  0  0  0  0  0
  -86.9442   28.5888    0.1159 C   0  0  0  0  0  0  0  0  0  0  0  0
  -85.4377   27.6278    1.7428 C   0  0  0  0  0  0  0  0  0  0  0  0
  -86.7818   27.4002    0.9867 C   0  0  0  0  0  0  0  0  0  0  0  0
  -87.7925   27.2437    2.0882 C   0  0  0  0  0  0  0  0  0  0  0  0
 36 37  1  0  0  0
 37 38  1  0  0  0
 37 35  1  0  0  0
 35  1  1  0  0  0
  1  2  1  0  0  0
  2  3  1  0  0  0
  3  4  2  0  0  0
  3  6  1  0  0  0
  6  7  2  0  0  0
  7  8  1  0  0  0
  8  9  2  0  0  0
  9 10  1  0  0  0
 10 11  2  0  0  0
  9 12  1  0  0  0
 12 13  2  0  0  0
 13 14  1  0  0  0
 14 15  2  0  0  0
 15 16  1  0  0  0
 16 17  2  0  0  0
  1 18  1  0  0  0
 18 19  2  0  0  0
 18 20  1  0  0  0
 20 22  1  0  0  0
 22 28  1  0  0  0
 28 29  1  0  0  0
 29 30  2  0  0  0
 30 31  1  0  0  0
 31 32  2  0  0  0
 32 33  1  0  0  0
 33 34  2  0  0  0
 22 23  1  0  0  0
 23 24  1  0  0  0
 23 25  2  0  0  0
 11  6  1  0  0  0
 17 12  1  0  0  0
 34 29  1  0  0  0
  2  5  1  0  0  0
 20 21  1  0  0  0
 24 26  1  0  0  0
 24 27  1  0  0  0
M  END
> <minimizedAffinity>
-8.37406

> <CNNscore>
0.2171904892

> <CNNaffinity>
5.7334704399

> <CNN_VS>
1.2452552319

> <CNNaffinity_variance>
0.4466462135

$$$$
[H]c1c([H])c([H])c(-c2c([H])c([H])c(C(=O)N([H])[C@]([H])(C(=O)N([H])[C@]([H])(C(=O)N([H])[H])C([H])([H])c3c([H])c([H])c([H])c([H])c3[H])C([H])([H])C([H])(C([H])([H])[H])C([H])([H])[H])c([H])c2[H])c([H])c1[H]


 38 40  0  0  0  0  0  0  0  0999 V2000
  -86.4949   29.0893    0.3387 C   0  0  0  0  0  0  0  0  0  0  0  0
  -86.9138   30.3342   -0.2207 N   0  0  0  0  0  0  0  0  0  0  0  0
  -87.3721   30.5011   -1.5389 C   0  0  0  0  0  0  0  0  0  0  0  0
  -87.4301   29.5092   -2.3059 O   0  0  0  0  0  0  0  0  0  0  0  0
  -86.8897   31.1651    0.4081 H   0  0  0  0  0  0  0  0  0  0  0  0
  -87.7776   31.8063   -2.0211 C   0  0  0  0  0  0  0  0  0  0  0  0
  -88.9768   32.0573   -2.6357 C   0  0  0  0  0  0  0  0  0  0  0  0
  -89.3122   33.3426   -3.0749 C   0  0  0  0  0  0  0  0  0  0  0  0
  -88.4581   34.4095   -2.9110 C   0  0  0  0  0  0  0  0  0  0  0  0
  -87.2561   34.1389   -2.2912 C   0  0  0  0  0  0  0  0  0  0  0  0
  -86.9055   32.8934   -1.8537 C   0  0  0  0  0  0  0  0  0  0  0  0
  -88.8064   35.7461   -3.3672 C   0  0  0  0  0  0  0  0  0  0  0  0
  -87.8559   36.7429   -3.3577 C   0  0  0  0  0  0  0  0  0  0  0  0
  -88.1268   38.0243   -3.7788 C   0  0  0  0  0  0  0  0  0  0  0  0
  -89.4157   38.2783   -4.2209 C   0  0  0  0  0  0  0  0  0  0  0  0
  -90.3833   37.2880   -4.2371 C   0  0  0  0  0  0  0  0  0  0  0  0
  -90.0791   35.9955   -3.8034 C   0  0  0  0  0  0  0  0  0  0  0  0
  -87.6457   28.1898    0.5610 C   0  0  0  0  0  0  0  0  0  0  0  0
  -87.4774   26.9800    0.9099 O   0  0  0  0  0  0  0  0  0  0  0  0
  -88.9609   28.6339    0.3958 N   0  0  0  0  0  0  0  0  0  0  0  0
  -89.1428   29.6160    0.1109 H   0  0  0  0  0  0  0  0  0  0  0  0
  -90.1303   27.7622    0.6094 C   0  0  0  0  0  0  0  0  0  0  0  0
  -90.9845   27.9143   -0.5787 C   0  0  0  0  0  0  0  0  0  0  0  0
  -92.1838   27.1929   -0.8054 N   0  0  0  0  0  0  0  0  0  0  0  0
  -90.6681   28.7339   -1.4948 O   0  0  0  0  0  0  0  0  0  0  0  0
  -93.0985   27.6481   -1.0587 H   0  0  0  0  0  0  0  0  0  0  0  0
  -92.1249   26.1477   -0.7081 H   0  0  0  0  0  0  0  0  0  0  0  0
  -90.7374   28.1745    1.8982 C   0  0  0  0  0  0  0  0  0  0  0  0
  -90.3986   27.3676    3.0844 C   0  0  0  0  0  0  0  0  0  0  0  0
  -90.1664   26.0082    3.0821 C   0  0  0  0  0  0  0  0  0  0  0  0
  -89.8513   25.3090    4.2286 C   0  0  0  0  0  0  0  0  0  0  0  0
  -89.7508   25.9386    5.4497 C   0  0  0  0  0  0  0  0  0  0  0  0
  -89.9771   27.2977    5.4866 C   0  0  0  0  0  0  0  0  0  0  0  0
  -90.2914   27.9888    4.3372 C   0  0  0  0  0  0  0  0  0  0  0  0
  -85.6480   29.2800    1.5467 C   0  0  0  0  0  0  0  0  0  0  0  0
  -84.1469   31.1392    1.9077 C   0  0  0  0  0  0  0  0  0  0  0  0
  -84.2335   29.6822    1.3602 C   0  0  0  0  0  0  0  0  0  0  0  0
  -83.2187   28.9304    2.1752 C   0  0  0  0  0  0  0  0  0  0  0  0
 36 37  1  0  0  0
 37 38  1  0  0  0
 37 35  1  0  0  0
 35  1  1  0  0  0
  1  2  1  0  0  0
  2  3  1  0  0  0
  3  4  2  0  0  0
  3  6  1  0  0  0
  6  7  2  0  0  0
  7  8  1  0  0  0
  8  9  2  0  0  0
  9 10  1  0  0  0
 10 11  2  0  0  0
  9 12  1  0  0  0
 12 13  2  0  0  0
 13 14  1  0  0  0
 14 15  2  0  0  0
 15 16  1  0  0  0
 16 17  2  0  0  0
  1 18  1  0  0  0
 18 19  2  0  0  0
 18 20  1  0  0  0
 20 22  1  0  0  0
 22 28  1  0  0  0
 28 29  1  0  0  0
 29 30  2  0  0  0
 30 31  1  0  0  0
 31 32  2  0  0  0
 32 33  1  0  0  0
 33 34  2  0  0  0
 22 23  1  0  0  0
 23 24  1  0  0  0
 23 25  2  0  0  0
 11  6  1  0  0  0
 17 12  1  0  0  0
 34 29  1  0  0  0
  2  5  1  0  0  0
 20 21  1  0  0  0
 24 26  1  0  0  0
 24 27  1  0  0  0
M  END
> <minimizedAffinity>
-8.73350

> <CNNscore>
0.2100756019

> <CNNaffinity>
6.3123550415

> <CNN_VS>
1.3260717392

> <CNNaffinity_variance>
0.1290936172

$$$$
[H]c1c([H])c([H])c(-c2c([H])c([H])c(C(=O)N([H])[C@]([H])(C(=O)N([H])[C@]([H])(C(=O)N([H])[H])C([H])([H])c3c([H])c([H])c([H])c([H])c3[H])C([H])([H])C([H])(C([H])([H])[H])C([H])([H])[H])c([H])c2[H])c([H])c1[H]


 38 40  0  0  0  0  0  0  0  0999 V2000
  -87.7647   29.0504   -2.3265 C   0  0  0  0  0  0  0  0  0  0  0  0
  -87.9941   30.4570   -2.4102 N   0  0  0  0  0  0  0  0  0  0  0  0
  -88.0504   31.1846   -3.6114 C   0  0  0  0  0  0  0  0  0  0  0  0
  -87.8919   30.5897   -4.7053 O   0  0  0  0  0  0  0  0  0  0  0  0
  -88.1463   30.9637   -1.5122 H   0  0  0  0  0  0  0  0  0  0  0  0
  -88.2888   32.6142   -3.5994 C   0  0  0  0  0  0  0  0  0  0  0  0
  -89.5352   33.1825   -3.5531 C   0  0  0  0  0  0  0  0  0  0  0  0
  -89.6992   34.5719   -3.5385 C   0  0  0  0  0  0  0  0  0  0  0  0
  -88.6221   35.4283   -3.5698 C   0  0  0  0  0  0  0  0  0  0  0  0
  -87.3758   34.8395   -3.6165 C   0  0  0  0  0  0  0  0  0  0  0  0
  -87.1895   33.4865   -3.6315 C   0  0  0  0  0  0  0  0  0  0  0  0
  -88.7920   36.8729   -3.5543 C   0  0  0  0  0  0  0  0  0  0  0  0
  -87.8247   37.6707   -2.9841 C   0  0  0  0  0  0  0  0  0  0  0  0
  -87.9301   39.0417   -2.9421 C   0  0  0  0  0  0  0  0  0  0  0  0
  -89.0670   39.5995   -3.5055 C   0  0  0  0  0  0  0  0  0  0  0  0
  -90.0490   38.8123   -4.0829 C   0  0  0  0  0  0  0  0  0  0  0  0
  -89.9148   37.4222   -4.1110 C   0  0  0  0  0  0  0  0  0  0  0  0
  -89.0178   28.3210   -2.0426 C   0  0  0  0  0  0  0  0  0  0  0  0
  -89.9310   28.8361   -1.3254 O   0  0  0  0  0  0  0  0  0  0  0  0
  -89.2461   27.0387   -2.5506 N   0  0  0  0  0  0  0  0  0  0  0  0
  -88.5249   26.5809   -3.1414 H   0  0  0  0  0  0  0  0  0  0  0  0
  -90.4846   26.2844   -2.2859 C   0  0  0  0  0  0  0  0  0  0  0  0
  -90.0685   24.9575   -1.8059 C   0  0  0  0  0  0  0  0  0  0  0  0
  -89.0013   24.7269   -0.9014 N   0  0  0  0  0  0  0  0  0  0  0  0
  -90.6735   23.9141   -2.2016 O   0  0  0  0  0  0  0  0  0  0  0  0
  -89.0929   24.1463   -0.0281 H   0  0  0  0  0  0  0  0  0  0  0  0
  -88.0805   25.1732   -1.1429 H   0  0  0  0  0  0  0  0  0  0  0  0
  -91.2679   26.2991   -3.5452 C   0  0  0  0  0  0  0  0  0  0  0  0
  -92.3189   27.3258   -3.6660 C   0  0  0  0  0  0  0  0  0  0  0  0
  -92.6684   27.9730   -4.8325 C   0  0  0  0  0  0  0  0  0  0  0  0
  -93.6645   28.9260   -4.8806 C   0  0  0  0  0  0  0  0  0  0  0  0
  -94.3705   29.2852   -3.7535 C   0  0  0  0  0  0  0  0  0  0  0  0
  -94.0455   28.6568   -2.5706 C   0  0  0  0  0  0  0  0  0  0  0  0
  -93.0494   27.7062   -2.5309 C   0  0  0  0  0  0  0  0  0  0  0  0
  -86.6604   28.7227   -1.3851 C   0  0  0  0  0  0  0  0  0  0  0  0
  -86.8805   28.4933    1.0105 C   0  0  0  0  0  0  0  0  0  0  0  0
  -86.5486   29.5032   -0.1298 C   0  0  0  0  0  0  0  0  0  0  0  0
  -85.1743   30.0017    0.2194 C   0  0  0  0  0  0  0  0  0  0  0  0
 36 37  1  0  0  0
 37 38  1  0  0  0
 37 35  1  0  0  0
 35  1  1  0  0  0
  1  2  1  0  0  0
  2  3  1  0  0  0
  3  4  2  0  0  0
  3  6  1  0  0  0
  6  7  2  0  0  0
  7  8  1  0  0  0
  8  9  2  0  0  0
  9 10  1  0  0  0
 10 11  2  0  0  0
  9 12  1  0  0  0
 12 13  2  0  0  0
 13 14  1  0  0  0
 14 15  2  0  0  0
 15 16  1  0  0  0
 16 17  2  0  0  0
  1 18  1  0  0  0
 18 19  2  0  0  0
 18 20  1  0  0  0
 20 22  1  0  0  0
 22 28  1  0  0  0
 28 29  1  0  0  0
 29 30  2  0  0  0
 30 31  1  0  0  0
 31 32  2  0  0  0
 32 33  1  0  0  0
 33 34  2  0  0  0
 22 23  1  0  0  0
 23 24  1  0  0  0
 23 25  2  0  0  0
 11  6  1  0  0  0
 17 12  1  0  0  0
 34 29  1  0  0  0
  2  5  1  0  0  0
 20 21  1  0  0  0
 24 26  1  0  0  0
 24 27  1  0  0  0
M  END
> <minimizedAffinity>
-7.62472

> <CNNscore>
0.1832644641

> <CNNaffinity>
5.6425728798

> <CNN_VS>
1.0340831280

> <CNNaffinity_variance>
0.4822103381

$$$$
[H]c1c([H])c([H])c(-c2c([H])c([H])c(C(=O)N([H])[C@]([H])(C(=O)N([H])[C@]([H])(C(=O)N([H])[H])C([H])([H])c3c([H])c([H])c([H])c([H])c3[H])C([H])([H])C([H])(C([H])([H])[H])C([H])([H])[H])c([H])c2[H])c([H])c1[H]


 38 40  0  0  0  0  0  0  0  0999 V2000
  -86.4596   28.6989    0.8619 C   0  0  0  0  0  0  0  0  0  0  0  0
  -87.3908   27.7573    0.3287 N   0  0  0  0  0  0  0  0  0  0  0  0
  -88.7701   27.7608    0.5989 C   0  0  0  0  0  0  0  0  0  0  0  0
  -89.2515   28.6373    1.3575 O   0  0  0  0  0  0  0  0  0  0  0  0
  -87.0109   27.0336   -0.3181 H   0  0  0  0  0  0  0  0  0  0  0  0
  -89.6412   26.7626    0.0112 C   0  0  0  0  0  0  0  0  0  0  0  0
  -90.8855   27.0347   -0.4953 C   0  0  0  0  0  0  0  0  0  0  0  0
  -91.6774   26.0264   -1.0553 C   0  0  0  0  0  0  0  0  0  0  0  0
  -91.2462   24.7210   -1.1235 C   0  0  0  0  0  0  0  0  0  0  0  0
  -89.9923   24.4653   -0.6090 C   0  0  0  0  0  0  0  0  0  0  0  0
  -89.2003   25.4318   -0.0574 C   0  0  0  0  0  0  0  0  0  0  0  0
  -92.0689   23.6723   -1.7058 C   0  0  0  0  0  0  0  0  0  0  0  0
  -92.5669   22.6679   -0.9055 C   0  0  0  0  0  0  0  0  0  0  0  0
  -93.3516   21.6517   -1.3998 C   0  0  0  0  0  0  0  0  0  0  0  0
  -93.6267   21.6777   -2.7580 C   0  0  0  0  0  0  0  0  0  0  0  0
  -93.1343   22.6799   -3.5769 C   0  0  0  0  0  0  0  0  0  0  0  0
  -92.3399   23.6992   -3.0468 C   0  0  0  0  0  0  0  0  0  0  0  0
  -86.2494   29.8273   -0.0684 C   0  0  0  0  0  0  0  0  0  0  0  0
  -86.7852   29.8392   -1.2201 O   0  0  0  0  0  0  0  0  0  0  0  0
  -85.4542   30.9225    0.2818 N   0  0  0  0  0  0  0  0  0  0  0  0
  -84.9973   30.9524    1.2141 H   0  0  0  0  0  0  0  0  0  0  0  0
  -85.2243   32.0635   -0.6228 C   0  0  0  0  0  0  0  0  0  0  0  0
  -83.8545   32.5318   -0.3611 C   0  0  0  0  0  0  0  0  0  0  0  0
  -82.8414   31.7535    0.2538 N   0  0  0  0  0  0  0  0  0  0  0  0
  -83.5060   33.7079   -0.6874 O   0  0  0  0  0  0  0  0  0  0  0  0
  -81.8790   31.6241   -0.1523 H   0  0  0  0  0  0  0  0  0  0  0  0
  -83.0951   31.2930    1.1643 H   0  0  0  0  0  0  0  0  0  0  0  0
  -86.3044   33.0434   -0.3529 C   0  0  0  0  0  0  0  0  0  0  0  0
  -87.1910   33.3872   -1.4793 C   0  0  0  0  0  0  0  0  0  0  0  0
  -86.8203   34.1159   -2.5898 C   0  0  0  0  0  0  0  0  0  0  0  0
  -87.6989   34.4039   -3.6136 C   0  0  0  0  0  0  0  0  0  0  0  0
  -89.0072   33.9737   -3.5802 C   0  0  0  0  0  0  0  0  0  0  0  0
  -89.4099   33.2425   -2.4835 C   0  0  0  0  0  0  0  0  0  0  0  0
  -88.5265   32.9593   -1.4653 C   0  0  0  0  0  0  0  0  0  0  0  0
  -85.1963   28.0451    1.2976 C   0  0  0  0  0  0  0  0  0  0  0  0
  -83.1786   28.8981    2.3180 C   0  0  0  0  0  0  0  0  0  0  0  0
  -84.6299   28.4139    2.6170 C   0  0  0  0  0  0  0  0  0  0  0  0
  -85.2667   29.5884    3.3057 C   0  0  0  0  0  0  0  0  0  0  0  0
 36 37  1  0  0  0
 37 38  1  0  0  0
 37 35  1  0  0  0
 35  1  1  0  0  0
  1  2  1  0  0  0
  2  3  1  0  0  0
  3  4  2  0  0  0
  3  6  1  0  0  0
  6  7  2  0  0  0
  7  8  1  0  0  0
  8  9  2  0  0  0
  9 10  1  0  0  0
 10 11  2  0  0  0
  9 12  1  0  0  0
 12 13  2  0  0  0
 13 14  1  0  0  0
 14 15  2  0  0  0
 15 16  1  0  0  0
 16 17  2  0  0  0
  1 18  1  0  0  0
 18 19  2  0  0  0
 18 20  1  0  0  0
 20 22  1  0  0  0
 22 28  1  0  0  0
 28 29  1  0  0  0
 29 30  2  0  0  0
 30 31  1  0  0  0
 31 32  2  0  0  0
 32 33  1  0  0  0
 33 34  2  0  0  0
 22 23  1  0  0  0
 23 24  1  0  0  0
 23 25  2  0  0  0
 11  6  1  0  0  0
 17 12  1  0  0  0
 34 29  1  0  0  0
  2  5  1  0  0  0
 20 21  1  0  0  0
 24 26  1  0  0  0
 24 27  1  0  0  0
M  END
> <minimizedAffinity>
-7.89965

> <CNNscore>
0.1632942408

> <CNNaffinity>
6.1493844986

> <CNN_VS>
1.0041590929

> <CNNaffinity_variance>
0.2178217173

$$$$
[H]c1c([H])c([H])c(-c2c([H])c([H])c(C(=O)N([H])[C@]([H])(C(=O)N([H])[C@]([H])(C(=O)N([H])[H])C([H])([H])c3c([H])c([H])c([H])c([H])c3[H])C([H])([H])C([H])(C([H])([H])[H])C([H])([H])[H])c([H])c2[H])c([H])c1[H]


 38 40  0  0  0  0  0  0  0  0999 V2000
  -86.0342   28.5872   -0.0332 C   0  0  0  0  0  0  0  0  0  0  0  0
  -86.5666   29.4804   -1.0113 N   0  0  0  0  0  0  0  0  0  0  0  0
  -86.9687   30.8013   -0.7487 C   0  0  0  0  0  0  0  0  0  0  0  0
  -86.8677   31.2609    0.4150 O   0  0  0  0  0  0  0  0  0  0  0  0
  -86.6401   29.1212   -1.9870 H   0  0  0  0  0  0  0  0  0  0  0  0
  -87.4992   31.6372   -1.8072 C   0  0  0  0  0  0  0  0  0  0  0  0
  -87.4693   33.0074   -1.7890 C   0  0  0  0  0  0  0  0  0  0  0  0
  -87.9942   33.7589   -2.8460 C   0  0  0  0  0  0  0  0  0  0  0  0
  -88.5620   33.1604   -3.9477 C   0  0  0  0  0  0  0  0  0  0  0  0
  -88.5838   31.7813   -3.9493 C   0  0  0  0  0  0  0  0  0  0  0  0
  -88.0781   31.0255   -2.9301 C   0  0  0  0  0  0  0  0  0  0  0  0
  -89.1076   33.9411   -5.0471 C   0  0  0  0  0  0  0  0  0  0  0  0
  -88.4938   35.1150   -5.4249 C   0  0  0  0  0  0  0  0  0  0  0  0
  -88.9631   35.8934   -6.4576 C   0  0  0  0  0  0  0  0  0  0  0  0
  -90.0974   35.4432   -7.1150 C   0  0  0  0  0  0  0  0  0  0  0  0
  -90.7267   34.2657   -6.7483 C   0  0  0  0  0  0  0  0  0  0  0  0
  -90.2272   33.4956   -5.6953 C   0  0  0  0  0  0  0  0  0  0  0  0
  -87.0087   27.5320    0.3129 C   0  0  0  0  0  0  0  0  0  0  0  0
  -86.7232   26.6222    1.1522 O   0  0  0  0  0  0  0  0  0  0  0  0
  -88.2793   27.4937   -0.2690 N   0  0  0  0  0  0  0  0  0  0  0  0
  -88.5531   28.2187   -0.9605 H   0  0  0  0  0  0  0  0  0  0  0  0
  -89.2740   26.4550    0.0543 C   0  0  0  0  0  0  0  0  0  0  0  0
  -89.6984   25.8725   -1.2283 C   0  0  0  0  0  0  0  0  0  0  0  0
  -89.0640   24.7747   -1.8629 N   0  0  0  0  0  0  0  0  0  0  0  0
  -90.6949   26.3519   -1.8514 O   0  0  0  0  0  0  0  0  0  0  0  0
  -89.5784   23.9217   -2.2032 H   0  0  0  0  0  0  0  0  0  0  0  0
  -88.0223   24.8456   -1.9864 H   0  0  0  0  0  0  0  0  0  0  0  0
  -90.3385   27.1182    0.8458 C   0  0  0  0  0  0  0  0  0  0  0  0
  -90.2695   26.9734    2.3112 C   0  0  0  0  0  0  0  0  0  0  0  0
  -90.2887   28.0145    3.2154 C   0  0  0  0  0  0  0  0  0  0  0  0
  -90.2224   27.8127    4.5783 C   0  0  0  0  0  0  0  0  0  0  0  0
  -90.1324   26.5467    5.1140 C   0  0  0  0  0  0  0  0  0  0  0  0
  -90.1108   25.4837    4.2370 C   0  0  0  0  0  0  0  0  0  0  0  0
  -90.1774   25.6935    2.8772 C   0  0  0  0  0  0  0  0  0  0  0  0
  -85.4999   29.3135    1.1501 C   0  0  0  0  0  0  0  0  0  0  0  0
  -83.6293   30.6950    1.8073 C   0  0  0  0  0  0  0  0  0  0  0  0
  -84.0447   29.2423    1.4235 C   0  0  0  0  0  0  0  0  0  0  0  0
  -83.6345   28.4237    2.6155 C   0  0  0  0  0  0  0  0  0  0  0  0
 36 37  1  0  0  0
 37 38  1  0  0  0
 37 35  1  0  0  0
 35  1  1  0  0  0
  1  2  1  0  0  0
  2  3  1  0  0  0
  3  4  2  0  0  0
  3  6  1  0  0  0
  6  7  2  0  0  0
  7  8  1  0  0  0
  8  9  2  0  0  0
  9 10  1  0  0  0
 10 11  2  0  0  0
  9 12  1  0  0  0
 12 13  2  0  0  0
 13 14  1  0  0  0
 14 15  2  0  0  0
 15 16  1  0  0  0
 16 17  2  0  0  0
  1 18  1  0  0  0
 18 19  2  0  0  0
 18 20  1  0  0  0
 20 22  1  0  0  0
 22 28  1  0  0  0
 28 29  1  0  0  0
 29 30  2  0  0  0
 30 31  1  0  0  0
 31 32  2  0  0  0
 32 33  1  0  0  0
 33 34  2  0  0  0
 22 23  1  0  0  0
 23 24  1  0  0  0
 23 25  2  0  0  0
 11  6  1  0  0  0
 17 12  1  0  0  0
 34 29  1  0  0  0
  2  5  1  0  0  0
 20 21  1  0  0  0
 24 26  1  0  0  0
 24 27  1  0  0  0
M  END
> <minimizedAffinity>
-8.46523

> <CNNscore>
0.1614840478

> <CNNaffinity>
6.0315575600

> <CNN_VS>
0.9740003347

> <CNNaffinity_variance>
0.4407590330

$$$$
[H]c1c([H])c([H])c(-c2c([H])c([H])c(C(=O)N([H])[C@]([H])(C(=O)N([H])[C@]([H])(C(=O)N([H])[H])C([H])([H])c3c([H])c([H])c([H])c([H])c3[H])C([H])([H])C([H])(C([H])([H])[H])C([H])([H])[H])c([H])c2[H])c([H])c1[H]


 38 40  0  0  0  0  0  0  0  0999 V2000
  -87.1212   30.8185    0.0071 C   0  0  0  0  0  0  0  0  0  0  0  0
  -87.7750   29.5541    0.1169 N   0  0  0  0  0  0  0  0  0  0  0  0
  -87.7660   28.5636   -0.8802 C   0  0  0  0  0  0  0  0  0  0  0  0
  -87.1514   28.7706   -1.9549 O   0  0  0  0  0  0  0  0  0  0  0  0
  -88.2747   29.3582    1.0103 H   0  0  0  0  0  0  0  0  0  0  0  0
  -88.4596   27.3068   -0.6803 C   0  0  0  0  0  0  0  0  0  0  0  0
  -89.0775   26.6050   -1.6825 C   0  0  0  0  0  0  0  0  0  0  0  0
  -89.7270   25.3927   -1.4257 C   0  0  0  0  0  0  0  0  0  0  0  0
  -89.7754   24.8510   -0.1613 C   0  0  0  0  0  0  0  0  0  0  0  0
  -89.1489   25.5704    0.8348 C   0  0  0  0  0  0  0  0  0  0  0  0
  -88.5084   26.7556    0.6097 C   0  0  0  0  0  0  0  0  0  0  0  0
  -90.4502   23.5905    0.1062 C   0  0  0  0  0  0  0  0  0  0  0  0
  -91.7969   23.5820    0.3955 C   0  0  0  0  0  0  0  0  0  0  0  0
  -92.4882   22.4211    0.6548 C   0  0  0  0  0  0  0  0  0  0  0  0
  -91.7648   21.2395    0.6131 C   0  0  0  0  0  0  0  0  0  0  0  0
  -90.4107   21.2300    0.3239 C   0  0  0  0  0  0  0  0  0  0  0  0
  -89.7350   22.4248    0.0646 C   0  0  0  0  0  0  0  0  0  0  0  0
  -87.7852   31.6777   -0.9949 C   0  0  0  0  0  0  0  0  0  0  0  0
  -88.7193   32.4726   -0.6645 O   0  0  0  0  0  0  0  0  0  0  0  0
  -87.4123   31.6487   -2.3420 N   0  0  0  0  0  0  0  0  0  0  0  0
  -86.6530   31.0127   -2.6545 H   0  0  0  0  0  0  0  0  0  0  0  0
  -88.0546   32.4924   -3.3660 C   0  0  0  0  0  0  0  0  0  0  0  0
  -88.3122   31.6195   -4.5218 C   0  0  0  0  0  0  0  0  0  0  0  0
  -89.3406   31.8288   -5.4752 N   0  0  0  0  0  0  0  0  0  0  0  0
  -87.5933   30.5929   -4.7224 O   0  0  0  0  0  0  0  0  0  0  0  0
  -89.1778   31.8386   -6.5151 H   0  0  0  0  0  0  0  0  0  0  0  0
  -90.3080   31.9795   -5.0922 H   0  0  0  0  0  0  0  0  0  0  0  0
  -87.1398   33.6340   -3.6102 C   0  0  0  0  0  0  0  0  0  0  0  0
  -87.7460   34.8797   -4.1140 C   0  0  0  0  0  0  0  0  0  0  0  0
  -87.8697   35.2231   -5.4439 C   0  0  0  0  0  0  0  0  0  0  0  0
  -88.4496   36.4062   -5.8522 C   0  0  0  0  0  0  0  0  0  0  0  0
  -88.9413   37.3169   -4.9430 C   0  0  0  0  0  0  0  0  0  0  0  0
  -88.8331   37.0038   -3.6052 C   0  0  0  0  0  0  0  0  0  0  0  0
  -88.2526   35.8203   -3.2055 C   0  0  0  0  0  0  0  0  0  0  0  0
  -85.6577   30.6698   -0.2145 C   0  0  0  0  0  0  0  0  0  0  0  0
  -83.4504   30.8436    0.7538 C   0  0  0  0  0  0  0  0  0  0  0  0
  -84.7447   31.6476    0.4241 C   0  0  0  0  0  0  0  0  0  0  0  0
  -84.2589   32.7689   -0.4511 C   0  0  0  0  0  0  0  0  0  0  0  0
 36 37  1  0  0  0
 37 38  1  0  0  0
 37 35  1  0  0  0
 35  1  1  0  0  0
  1  2  1  0  0  0
  2  3  1  0  0  0
  3  4  2  0  0  0
  3  6  1  0  0  0
  6  7  2  0  0  0
  7  8  1  0  0  0
  8  9  2  0  0  0
  9 10  1  0  0  0
 10 11  2  0  0  0
  9 12  1  0  0  0
 12 13  2  0  0  0
 13 14  1  0  0  0
 14 15  2  0  0  0
 15 16  1  0  0  0
 16 17  2  0  0  0
  1 18  1  0  0  0
 18 19  2  0  0  0
 18 20  1  0  0  0
 20 22  1  0  0  0
 22 28  1  0  0  0
 28 29  1  0  0  0
 29 30  2  0  0  0
 30 31  1  0  0  0
 31 32  2  0  0  0
 32 33  1  0  0  0
 33 34  2  0  0  0
 22 23  1  0  0  0
 23 24  1  0  0  0
 23 25  2  0  0  0
 11  6  1  0  0  0
 17 12  1  0  0  0
 34 29  1  0  0  0
  2  5  1  0  0  0
 20 21  1  0  0  0
 24 26  1  0  0  0
 24 27  1  0  0  0
M  END
> <minimizedAffinity>
-7.84685

> <CNNscore>
0.1527304798

> <CNNaffinity>
5.8674983978

> <CNN_VS>
0.8961458206

> <CNNaffinity_variance>
0.2290570289

$$$$
[H]c1c([H])c([H])c(-c2c([H])c([H])c(C(=O)N([H])[C@]([H])(C(=O)N([H])[C@]([H])(C(=O)N([H])[H])C([H])([H])c3c([H])c([H])c([H])c([H])c3[H])C([H])([H])C([H])(C([H])([H])[H])C([H])([H])[H])c([H])c2[H])c([H])c1[H]


 38 40  0  0  0  0  0  0  0  0999 V2000
  -86.0158   28.5360    1.2045 C   0  0  0  0  0  0  0  0  0  0  0  0
  -86.5383   29.6863    0.5398 N   0  0  0  0  0  0  0  0  0  0  0  0
  -86.7633   29.7725   -0.8448 C   0  0  0  0  0  0  0  0  0  0  0  0
  -86.4974   28.7898   -1.5790 O   0  0  0  0  0  0  0  0  0  0  0  0
  -86.7821   30.5051    1.1369 H   0  0  0  0  0  0  0  0  0  0  0  0
  -87.2982   30.9844   -1.4331 C   0  0  0  0  0  0  0  0  0  0  0  0
  -88.2998   31.0042   -2.3686 C   0  0  0  0  0  0  0  0  0  0  0  0
  -88.7771   32.2093   -2.8953 C   0  0  0  0  0  0  0  0  0  0  0  0
  -88.2658   33.4248   -2.5005 C   0  0  0  0  0  0  0  0  0  0  0  0
  -87.2587   33.3861   -1.5590 C   0  0  0  0  0  0  0  0  0  0  0  0
  -86.7757   32.2232   -1.0298 C   0  0  0  0  0  0  0  0  0  0  0  0
  -88.7618   34.6780   -3.0475 C   0  0  0  0  0  0  0  0  0  0  0  0
  -87.9652   35.8014   -3.0188 C   0  0  0  0  0  0  0  0  0  0  0  0
  -88.3798   37.0125   -3.5226 C   0  0  0  0  0  0  0  0  0  0  0  0
  -89.6524   37.0601   -4.0697 C   0  0  0  0  0  0  0  0  0  0  0  0
  -90.4663   35.9405   -4.1067 C   0  0  0  0  0  0  0  0  0  0  0  0
  -90.0182   34.7236   -3.5874 C   0  0  0  0  0  0  0  0  0  0  0  0
  -86.9831   27.4195    1.1794 C   0  0  0  0  0  0  0  0  0  0  0  0
  -86.7864   26.3631    1.8570 O   0  0  0  0  0  0  0  0  0  0  0  0
  -88.1490   27.4820    0.4105 N   0  0  0  0  0  0  0  0  0  0  0  0
  -88.3480   28.3277   -0.1586 H   0  0  0  0  0  0  0  0  0  0  0  0
  -89.1335   26.3859    0.3634 C   0  0  0  0  0  0  0  0  0  0  0  0
  -89.3871   26.1159   -1.0603 C   0  0  0  0  0  0  0  0  0  0  0  0
  -88.9440   24.9601   -1.7517 N   0  0  0  0  0  0  0  0  0  0  0  0
  -90.0412   26.9459   -1.7635 O   0  0  0  0  0  0  0  0  0  0  0  0
  -89.5760   24.3505   -2.3324 H   0  0  0  0  0  0  0  0  0  0  0  0
  -87.9234   24.7246   -1.6606 H   0  0  0  0  0  0  0  0  0  0  0  0
  -90.3054   26.8338    1.1544 C   0  0  0  0  0  0  0  0  0  0  0  0
  -90.1885   26.7595    2.6220 C   0  0  0  0  0  0  0  0  0  0  0  0
  -90.0037   25.6015    3.3477 C   0  0  0  0  0  0  0  0  0  0  0  0
  -89.9002   25.5983    4.7232 C   0  0  0  0  0  0  0  0  0  0  0  0
  -89.9767   26.7646    5.4524 C   0  0  0  0  0  0  0  0  0  0  0  0
  -90.1614   27.9401    4.7569 C   0  0  0  0  0  0  0  0  0  0  0  0
  -90.2638   27.9349    3.3833 C   0  0  0  0  0  0  0  0  0  0  0  0
  -85.5185   28.8605    2.5685 C   0  0  0  0  0  0  0  0  0  0  0  0
  -83.4551   27.6109    2.7129 C   0  0  0  0  0  0  0  0  0  0  0  0
  -84.0607   29.0465    2.7620 C   0  0  0  0  0  0  0  0  0  0  0  0
  -83.3362   29.7805    1.6685 C   0  0  0  0  0  0  0  0  0  0  0  0
 36 37  1  0  0  0
 37 38  1  0  0  0
 37 35  1  0  0  0
 35  1  1  0  0  0
  1  2  1  0  0  0
  2  3  1  0  0  0
  3  4  2  0  0  0
  3  6  1  0  0  0
  6  7  2  0  0  0
  7  8  1  0  0  0
  8  9  2  0  0  0
  9 10  1  0  0  0
 10 11  2  0  0  0
  9 12  1  0  0  0
 12 13  2  0  0  0
 13 14  1  0  0  0
 14 15  2  0  0  0
 15 16  1  0  0  0
 16 17  2  0  0  0
  1 18  1  0  0  0
 18 19  2  0  0  0
 18 20  1  0  0  0
 20 22  1  0  0  0
 22 28  1  0  0  0
 28 29  1  0  0  0
 29 30  2  0  0  0
 30 31  1  0  0  0
 31 32  2  0  0  0
 32 33  1  0  0  0
 33 34  2  0  0  0
 22 23  1  0  0  0
 23 24  1  0  0  0
 23 25  2  0  0  0
 11  6  1  0  0  0
 17 12  1  0  0  0
 34 29  1  0  0  0
  2  5  1  0  0  0
 20 21  1  0  0  0
 24 26  1  0  0  0
 24 27  1  0  0  0
M  END
> <minimizedAffinity>
-9.18458

> <CNNscore>
0.1440925896

> <CNNaffinity>
6.2441477776

> <CNN_VS>
0.8997354507

> <CNNaffinity_variance>
0.2587888241

$$$$
[H]c1c([H])c([H])c(-c2c([H])c([H])c(C(=O)N([H])[C@]([H])(C(=O)N([H])[C@]([H])(C(=O)N([H])[H])C([H])([H])c3c([H])c([H])c([H])c([H])c3[H])C([H])([H])C([H])(C([H])([H])[H])C([H])([H])[H])c([H])c2[H])c([H])c1[H]


 38 40  0  0  0  0  0  0  0  0999 V2000
  -89.8527   27.3373    1.4441 C   0  0  0  0  0  0  0  0  0  0  0  0
  -89.7180   28.5592    0.7182 N   0  0  0  0  0  0  0  0  0  0  0  0
  -88.4921   29.1121    0.3098 C   0  0  0  0  0  0  0  0  0  0  0  0
  -87.4211   28.5182    0.5854 O   0  0  0  0  0  0  0  0  0  0  0  0
  -90.5985   29.0561    0.4648 H   0  0  0  0  0  0  0  0  0  0  0  0
  -88.4522   30.3606   -0.4252 C   0  0  0  0  0  0  0  0  0  0  0  0
  -87.3325   31.1416   -0.5482 C   0  0  0  0  0  0  0  0  0  0  0  0
  -87.3570   32.3357   -1.2769 C   0  0  0  0  0  0  0  0  0  0  0  0
  -88.5007   32.7794   -1.9011 C   0  0  0  0  0  0  0  0  0  0  0  0
  -89.6176   31.9816   -1.7667 C   0  0  0  0  0  0  0  0  0  0  0  0
  -89.6192   30.8121   -1.0611 C   0  0  0  0  0  0  0  0  0  0  0  0
  -88.5267   34.0207   -2.6591 C   0  0  0  0  0  0  0  0  0  0  0  0
  -89.7129   34.4722   -3.1942 C   0  0  0  0  0  0  0  0  0  0  0  0
  -89.7987   35.6390   -3.9179 C   0  0  0  0  0  0  0  0  0  0  0  0
  -88.6248   36.3555   -4.0912 C   0  0  0  0  0  0  0  0  0  0  0  0
  -87.4239   35.9161   -3.5602 C   0  0  0  0  0  0  0  0  0  0  0  0
  -87.3673   34.7270   -2.8294 C   0  0  0  0  0  0  0  0  0  0  0  0
  -90.6268   26.3416    0.6745 C   0  0  0  0  0  0  0  0  0  0  0  0
  -91.7962   26.6012    0.2516 O   0  0  0  0  0  0  0  0  0  0  0  0
  -90.1038   25.0782    0.3833 N   0  0  0  0  0  0  0  0  0  0  0  0
  -89.1512   24.8252    0.7108 H   0  0  0  0  0  0  0  0  0  0  0  0
  -90.8499   24.0627   -0.3815 C   0  0  0  0  0  0  0  0  0  0  0  0
  -90.5390   22.7649    0.2376 C   0  0  0  0  0  0  0  0  0  0  0  0
  -90.0078   22.6020    1.5421 N   0  0  0  0  0  0  0  0  0  0  0  0
  -90.7398   21.6860   -0.4002 O   0  0  0  0  0  0  0  0  0  0  0  0
  -90.4241   21.9597    2.2647 H   0  0  0  0  0  0  0  0  0  0  0  0
  -89.1509   23.1667    1.7706 H   0  0  0  0  0  0  0  0  0  0  0  0
  -90.4432   24.2156   -1.7995 C   0  0  0  0  0  0  0  0  0  0  0  0
  -91.4389   24.7913   -2.7215 C   0  0  0  0  0  0  0  0  0  0  0  0
  -91.4229   26.0830   -3.2042 C   0  0  0  0  0  0  0  0  0  0  0  0
  -92.3856   26.5626   -4.0680 C   0  0  0  0  0  0  0  0  0  0  0  0
  -93.4250   25.7677   -4.4987 C   0  0  0  0  0  0  0  0  0  0  0  0
  -93.4702   24.4707   -4.0345 C   0  0  0  0  0  0  0  0  0  0  0  0
  -92.5050   23.9994   -3.1721 C   0  0  0  0  0  0  0  0  0  0  0  0
  -90.3751   27.5624    2.8187 C   0  0  0  0  0  0  0  0  0  0  0  0
  -90.0329   27.5253    5.2107 C   0  0  0  0  0  0  0  0  0  0  0  0
  -89.8966   26.6790    3.9086 C   0  0  0  0  0  0  0  0  0  0  0  0
  -90.7285   25.4578    4.1842 C   0  0  0  0  0  0  0  0  0  0  0  0
 36 37  1  0  0  0
 37 38  1  0  0  0
 37 35  1  0  0  0
 35  1  1  0  0  0
  1  2  1  0  0  0
  2  3  1  0  0  0
  3  4  2  0  0  0
  3  6  1  0  0  0
  6  7  2  0  0  0
  7  8  1  0  0  0
  8  9  2  0  0  0
  9 10  1  0  0  0
 10 11  2  0  0  0
  9 12  1  0  0  0
 12 13  2  0  0  0
 13 14  1  0  0  0
 14 15  2  0  0  0
 15 16  1  0  0  0
 16 17  2  0  0  0
  1 18  1  0  0  0
 18 19  2  0  0  0
 18 20  1  0  0  0
 20 22  1  0  0  0
 22 28  1  0  0  0
 28 29  1  0  0  0
 29 30  2  0  0  0
 30 31  1  0  0  0
 31 32  2  0  0  0
 32 33  1  0  0  0
 33 34  2  0  0  0
 22 23  1  0  0  0
 23 24  1  0  0  0
 23 25  2  0  0  0
 11  6  1  0  0  0
 17 12  1  0  0  0
 34 29  1  0  0  0
  2  5  1  0  0  0
 20 21  1  0  0  0
 24 26  1  0  0  0
 24 27  1  0  0  0
M  END
> <minimizedAffinity>
-7.70312

> <CNNscore>
0.1215676069

> <CNNaffinity>
5.7058806419

> <CNN_VS>
0.6936502457

> <CNNaffinity_variance>
0.1828180254

$$$$
[H]c1c([H])c([H])c(-c2c([H])c([H])c(C(=O)N([H])[C@]([H])(C(=O)N([H])[C@]([H])(C(=O)N([H])[H])C([H])([H])c3c([H])c([H])c([H])c([H])c3[H])C([H])([H])C([H])(C([H])([H])[H])C([H])([H])[H])c([H])c2[H])c([H])c1[H]


 38 40  0  0  0  0  0  0  0  0999 V2000
  -87.7518   28.9282    0.4718 C   0  0  0  0  0  0  0  0  0  0  0  0
  -88.6357   27.8724    0.0946 N   0  0  0  0  0  0  0  0  0  0  0  0
  -88.8103   27.4119   -1.2217 C   0  0  0  0  0  0  0  0  0  0  0  0
  -88.1613   27.9426   -2.1560 O   0  0  0  0  0  0  0  0  0  0  0  0
  -89.1687   27.4080    0.8605 H   0  0  0  0  0  0  0  0  0  0  0  0
  -89.7323   26.3317   -1.5111 C   0  0  0  0  0  0  0  0  0  0  0  0
  -90.6756   26.3752   -2.5046 C   0  0  0  0  0  0  0  0  0  0  0  0
  -91.5343   25.2956   -2.7378 C   0  0  0  0  0  0  0  0  0  0  0  0
  -91.4722   24.1453   -1.9844 C   0  0  0  0  0  0  0  0  0  0  0  0
  -90.5176   24.1189   -0.9892 C   0  0  0  0  0  0  0  0  0  0  0  0
  -89.6680   25.1593   -0.7419 C   0  0  0  0  0  0  0  0  0  0  0  0
  -92.3645   23.0224   -2.2266 C   0  0  0  0  0  0  0  0  0  0  0  0
  -92.7774   22.2357   -1.1739 C   0  0  0  0  0  0  0  0  0  0  0  0
  -93.6217   21.1626   -1.3421 C   0  0  0  0  0  0  0  0  0  0  0  0
  -94.0483   20.8985   -2.6342 C   0  0  0  0  0  0  0  0  0  0  0  0
  -93.6430   21.6791   -3.7036 C   0  0  0  0  0  0  0  0  0  0  0  0
  -92.7850   22.7628   -3.5025 C   0  0  0  0  0  0  0  0  0  0  0  0
  -88.1488   30.2062   -0.1543 C   0  0  0  0  0  0  0  0  0  0  0  0
  -89.3335   30.6519   -0.0461 O   0  0  0  0  0  0  0  0  0  0  0  0
  -87.2386   30.9721   -0.8886 N   0  0  0  0  0  0  0  0  0  0  0  0
  -86.2598   30.6437   -1.0017 H   0  0  0  0  0  0  0  0  0  0  0  0
  -87.6028   32.2506   -1.5256 C   0  0  0  0  0  0  0  0  0  0  0  0
  -87.4319   32.0568   -2.9739 C   0  0  0  0  0  0  0  0  0  0  0  0
  -86.8557   33.0101   -3.8511 N   0  0  0  0  0  0  0  0  0  0  0  0
  -87.8130   30.9791   -3.5257 O   0  0  0  0  0  0  0  0  0  0  0  0
  -86.0781   32.7869   -4.5246 H   0  0  0  0  0  0  0  0  0  0  0  0
  -87.2476   33.9845   -3.8034 H   0  0  0  0  0  0  0  0  0  0  0  0
  -86.7459   33.2918   -0.9080 C   0  0  0  0  0  0  0  0  0  0  0  0
  -85.4274   32.8616   -0.4084 C   0  0  0  0  0  0  0  0  0  0  0  0
  -84.2235   33.0915   -1.0404 C   0  0  0  0  0  0  0  0  0  0  0  0
  -83.0202   32.6634   -0.5194 C   0  0  0  0  0  0  0  0  0  0  0  0
  -82.9569   31.9761    0.6728 C   0  0  0  0  0  0  0  0  0  0  0  0
  -84.1431   31.7298    1.3301 C   0  0  0  0  0  0  0  0  0  0  0  0
  -85.3407   32.1607    0.8032 C   0  0  0  0  0  0  0  0  0  0  0  0
  -86.3269   28.5699    0.2386 C   0  0  0  0  0  0  0  0  0  0  0  0
  -85.9080   28.9727    2.5843 C   0  0  0  0  0  0  0  0  0  0  0  0
  -85.5328   28.0565    1.3801 C   0  0  0  0  0  0  0  0  0  0  0  0
  -85.8784   26.6740    1.8582 C   0  0  0  0  0  0  0  0  0  0  0  0
 36 37  1  0  0  0
 37 38  1  0  0  0
 37 35  1  0  0  0
 35  1  1  0  0  0
  1  2  1  0  0  0
  2  3  1  0  0  0
  3  4  2  0  0  0
  3  6  1  0  0  0
  6  7  2  0  0  0
  7  8  1  0  0  0
  8  9  2  0  0  0
  9 10  1  0  0  0
 10 11  2  0  0  0
  9 12  1  0  0  0
 12 13  2  0  0  0
 13 14  1  0  0  0
 14 15  2  0  0  0
 15 16  1  0  0  0
 16 17  2  0  0  0
  1 18  1  0  0  0
 18 19  2  0  0  0
 18 20  1  0  0  0
 20 22  1  0  0  0
 22 28  1  0  0  0
 28 29  1  0  0  0
 29 30  2  0  0  0
 30 31  1  0  0  0
 31 32  2  0  0  0
 32 33  1  0  0  0
 33 34  2  0  0  0
 22 23  1  0  0  0
 23 24  1  0  0  0
 23 25  2  0  0  0
 11  6  1  0  0  0
 17 12  1  0  0  0
 34 29  1  0  0  0
  2  5  1  0  0  0
 20 21  1  0  0  0
 24 26  1  0  0  0
 24 27  1  0  0  0
M  END
> <minimizedAffinity>
-8.05214

> <CNNscore>
0.1170804799

> <CNNaffinity>
5.8395843506

> <CNN_VS>
0.6837013364

> <CNNaffinity_variance>
0.2830029130

$$$$
[H]c1c([H])c([H])c(-c2c([H])c([H])c(C(=O)N([H])[C@]([H])(C(=O)N([H])[C@]([H])(C(=O)N([H])[H])C([H])([H])C([H])(C([H])([H])[H])C([H])([H])[H])C([H])([H])c3c([H])c([H])c([H])c([H])c3[H])c([H])c2[H])c([H])c1[H]


 38 40  0  0  0  0  0  0  0  0999 V2000
  -88.2351   34.7670   -3.7152 C   0  0  0  0  0  0  0  0  0  0  0  0
  -90.4280   33.5292   -3.8473 N   0  0  0  0  0  0  0  0  0  0  0  0
  -89.1900   33.9243   -4.4616 C   0  0  0  0  0  0  0  0  0  0  0  0
  -88.8824   33.5704   -5.6273 O   0  0  0  0  0  0  0  0  0  0  0  0
  -90.5857   33.8981   -2.8686 H   0  0  0  0  0  0  0  0  0  0  0  0
  -91.3726   32.6871   -4.5164 C   0  0  0  0  0  0  0  0  0  0  0  0
  -92.7931   33.1263   -4.3557 C   0  0  0  0  0  0  0  0  0  0  0  0
  -93.0897   34.4926   -4.5510 N   0  0  0  0  0  0  0  0  0  0  0  0
  -93.7409   32.3734   -4.0614 O   0  0  0  0  0  0  0  0  0  0  0  0
  -92.5233   35.2138   -4.0834 H   0  0  0  0  0  0  0  0  0  0  0  0
  -93.8723   34.7628   -5.1615 H   0  0  0  0  0  0  0  0  0  0  0  0
  -91.2030   31.2248   -4.3282 C   0  0  0  0  0  0  0  0  0  0  0  0
  -91.4910   30.6114   -1.8794 C   0  0  0  0  0  0  0  0  0  0  0  0
  -90.5998   30.8155   -3.0361 C   0  0  0  0  0  0  0  0  0  0  0  0
  -89.6908   29.5858   -3.2537 C   0  0  0  0  0  0  0  0  0  0  0  0
  -87.4229   33.8918   -2.8954 N   0  0  0  0  0  0  0  0  0  0  0  0
  -87.8701   33.2461   -1.7342 C   0  0  0  0  0  0  0  0  0  0  0  0
  -89.0474   33.4089   -1.3466 O   0  0  0  0  0  0  0  0  0  0  0  0
  -86.4381   33.7405   -3.2012 H   0  0  0  0  0  0  0  0  0  0  0  0
  -86.9950   32.3899   -0.9689 C   0  0  0  0  0  0  0  0  0  0  0  0
  -87.2754   31.0189   -0.8922 C   0  0  0  0  0  0  0  0  0  0  0  0
  -86.4871   30.1646   -0.1831 C   0  0  0  0  0  0  0  0  0  0  0  0
  -85.3694   30.5999    0.4991 C   0  0  0  0  0  0  0  0  0  0  0  0
  -85.0916   31.9399    0.4266 C   0  0  0  0  0  0  0  0  0  0  0  0
  -85.8831   32.8123   -0.2883 C   0  0  0  0  0  0  0  0  0  0  0  0
  -84.5646   29.6458    1.2387 C   0  0  0  0  0  0  0  0  0  0  0  0
  -83.2262   29.8770    1.4099 C   0  0  0  0  0  0  0  0  0  0  0  0
  -82.4524   28.9689    2.1148 C   0  0  0  0  0  0  0  0  0  0  0  0
  -83.0375   27.8467    2.6341 C   0  0  0  0  0  0  0  0  0  0  0  0
  -84.3779   27.6077    2.4671 C   0  0  0  0  0  0  0  0  0  0  0  0
  -85.1523   28.5216    1.7585 C   0  0  0  0  0  0  0  0  0  0  0  0
  -87.4872   35.6432   -4.6526 C   0  0  0  0  0  0  0  0  0  0  0  0
  -87.2457   37.0216   -4.1610 C   0  0  0  0  0  0  0  0  0  0  0  0
  -87.9838   37.4700   -3.0646 C   0  0  0  0  0  0  0  0  0  0  0  0
  -87.7920   38.7470   -2.6042 C   0  0  0  0  0  0  0  0  0  0  0  0
  -86.8884   39.5987   -3.1974 C   0  0  0  0  0  0  0  0  0  0  0  0
  -86.1464   39.1847   -4.2803 C   0  0  0  0  0  0  0  0  0  0  0  0
  -86.3537   37.8820   -4.7370 C   0  0  0  0  0  0  0  0  0  0  0  0
 13 14  1  0  0  0
 14 15  1  0  0  0
 14 12  1  0  0  0
 12  6  1  0  0  0
  6  2  1  0  0  0
  2  3  1  0  0  0
  3  4  2  0  0  0
  3  1  1  0  0  0
  1 32  1  0  0  0
 32 33  1  0  0  0
 33 34  2  0  0  0
 34 35  1  0  0  0
 35 36  2  0  0  0
 36 37  1  0  0  0
 37 38  2  0  0  0
  1 16  1  0  0  0
 16 17  1  0  0  0
 17 18  2  0  0  0
 17 20  1  0  0  0
 20 21  2  0  0  0
 21 22  1  0  0  0
 22 23  2  0  0  0
 23 24  1  0  0  0
 24 25  2  0  0  0
 23 26  1  0  0  0
 26 27  2  0  0  0
 27 28  1  0  0  0
 28 29  2  0  0  0
 29 30  1  0  0  0
 30 31  2  0  0  0
  6  7  1  0  0  0
  7  8  1  0  0  0
  7  9  2  0  0  0
 38 33  1  0  0  0
 25 20  1  0  0  0
 31 26  1  0  0  0
  2  5  1  0  0  0
 16 19  1  0  0  0
  8 10  1  0  0  0
  8 11  1  0  0  0
M  END
> <minimizedAffinity>
-8.49349

> <CNNscore>
0.1916953772

> <CNNaffinity>
6.1741971970

> <CNN_VS>
1.1835650206

> <CNNaffinity_variance>
0.2257380784

$$$$
[H]c1c([H])c([H])c(-c2c([H])c([H])c(C(=O)N([H])[C@]([H])(C(=O)N([H])[C@]([H])(C(=O)N([H])[H])C([H])([H])C([H])(C([H])([H])[H])C([H])([H])[H])C([H])([H])c3c([H])c([H])c([H])c([H])c3[H])c([H])c2[H])c([H])c1[H]


 38 40  0  0  0  0  0  0  0  0999 V2000
  -88.2509   34.6792   -4.1429 C   0  0  0  0  0  0  0  0  0  0  0  0
  -90.2101   34.5369   -5.7240 N   0  0  0  0  0  0  0  0  0  0  0  0
  -89.0935   33.9052   -5.0756 C   0  0  0  0  0  0  0  0  0  0  0  0
  -88.8051   32.6982   -5.2722 O   0  0  0  0  0  0  0  0  0  0  0  0
  -90.3481   35.5600   -5.4932 H   0  0  0  0  0  0  0  0  0  0  0  0
  -91.0761   33.8223   -6.6119 C   0  0  0  0  0  0  0  0  0  0  0  0
  -91.1080   34.3764   -8.0005 C   0  0  0  0  0  0  0  0  0  0  0  0
  -90.4603   35.6083   -8.2367 N   0  0  0  0  0  0  0  0  0  0  0  0
  -91.6657   33.8300   -8.9712 O   0  0  0  0  0  0  0  0  0  0  0  0
  -90.6373   36.4098   -7.6156 H   0  0  0  0  0  0  0  0  0  0  0  0
  -89.8122   35.7002   -9.0302 H   0  0  0  0  0  0  0  0  0  0  0  0
  -92.4294   33.4985   -6.0957 C   0  0  0  0  0  0  0  0  0  0  0  0
  -93.6168   35.7368   -5.9062 C   0  0  0  0  0  0  0  0  0  0  0  0
  -93.0537   34.5437   -5.2480 C   0  0  0  0  0  0  0  0  0  0  0  0
  -94.0903   33.8958   -4.3039 C   0  0  0  0  0  0  0  0  0  0  0  0
  -87.5447   33.7356   -3.3010 N   0  0  0  0  0  0  0  0  0  0  0  0
  -88.0450   33.2072   -2.1028 C   0  0  0  0  0  0  0  0  0  0  0  0
  -89.1782   33.5471   -1.6989 O   0  0  0  0  0  0  0  0  0  0  0  0
  -86.5983   33.4371   -3.6199 H   0  0  0  0  0  0  0  0  0  0  0  0
  -87.2753   32.2714   -1.3176 C   0  0  0  0  0  0  0  0  0  0  0  0
  -86.0660   32.6903   -0.7467 C   0  0  0  0  0  0  0  0  0  0  0  0
  -85.2974   31.8508    0.0006 C   0  0  0  0  0  0  0  0  0  0  0  0
  -85.6653   30.5422    0.2378 C   0  0  0  0  0  0  0  0  0  0  0  0
  -86.8475   30.1286   -0.3187 C   0  0  0  0  0  0  0  0  0  0  0  0
  -87.6321   30.9705   -1.0764 C   0  0  0  0  0  0  0  0  0  0  0  0
  -84.8084   29.6913    1.0419 C   0  0  0  0  0  0  0  0  0  0  0  0
  -83.5014   30.0441    1.2451 C   0  0  0  0  0  0  0  0  0  0  0  0
  -82.6781   29.2349    2.0117 C   0  0  0  0  0  0  0  0  0  0  0  0
  -83.1831   28.0876    2.5594 C   0  0  0  0  0  0  0  0  0  0  0  0
  -84.4917   27.7271    2.3607 C   0  0  0  0  0  0  0  0  0  0  0  0
  -85.3160   28.5419    1.5901 C   0  0  0  0  0  0  0  0  0  0  0  0
  -87.3950   35.6297   -4.8977 C   0  0  0  0  0  0  0  0  0  0  0  0
  -87.2695   36.9763   -4.2885 C   0  0  0  0  0  0  0  0  0  0  0  0
  -86.3238   37.8550   -4.8188 C   0  0  0  0  0  0  0  0  0  0  0  0
  -86.1761   39.0982   -4.2601 C   0  0  0  0  0  0  0  0  0  0  0  0
  -86.9384   39.5014   -3.1877 C   0  0  0  0  0  0  0  0  0  0  0  0
  -87.8787   38.6565   -2.6431 C   0  0  0  0  0  0  0  0  0  0  0  0
  -88.0166   37.3943   -3.2232 C   0  0  0  0  0  0  0  0  0  0  0  0
 13 14  1  0  0  0
 14 15  1  0  0  0
 14 12  1  0  0  0
 12  6  1  0  0  0
  6  2  1  0  0  0
  2  3  1  0  0  0
  3  4  2  0  0  0
  3  1  1  0  0  0
  1 32  1  0  0  0
 32 33  1  0  0  0
 33 34  2  0  0  0
 34 35  1  0  0  0
 35 36  2  0  0  0
 36 37  1  0  0  0
 37 38  2  0  0  0
  1 16  1  0  0  0
 16 17  1  0  0  0
 17 18  2  0  0  0
 17 20  1  0  0  0
 20 21  2  0  0  0
 21 22  1  0  0  0
 22 23  2  0  0  0
 23 24  1  0  0  0
 24 25  2  0  0  0
 23 26  1  0  0  0
 26 27  2  0  0  0
 27 28  1  0  0  0
 28 29  2  0  0  0
 29 30  1  0  0  0
 30 31  2  0  0  0
  6  7  1  0  0  0
  7  8  1  0  0  0
  7  9  2  0  0  0
 38 33  1  0  0  0
 25 20  1  0  0  0
 31 26  1  0  0  0
  2  5  1  0  0  0
 16 19  1  0  0  0
  8 10  1  0  0  0
  8 11  1  0  0  0
M  END
> <minimizedAffinity>
-8.58775

> <CNNscore>
0.1647910327

> <CNNaffinity>
5.9842782021

> <CNN_VS>
0.9861553907

> <CNNaffinity_variance>
0.1306679100

$$$$
[H]c1c([H])c([H])c(-c2c([H])c([H])c(C(=O)N([H])[C@]([H])(C(=O)N([H])[C@]([H])(C(=O)N([H])[H])C([H])([H])C([H])(C([H])([H])[H])C([H])([H])[H])C([H])([H])c3c([H])c([H])c([H])c([H])c3[H])c([H])c2[H])c([H])c1[H]


 38 40  0  0  0  0  0  0  0  0999 V2000
  -87.7315   29.5017   -1.0525 C   0  0  0  0  0  0  0  0  0  0  0  0
  -87.9619   31.8970   -1.8059 N   0  0  0  0  0  0  0  0  0  0  0  0
  -87.8583   30.5009   -2.1316 C   0  0  0  0  0  0  0  0  0  0  0  0
  -87.8763   30.0912   -3.3193 O   0  0  0  0  0  0  0  0  0  0  0  0
  -87.9212   32.1253   -0.7738 H   0  0  0  0  0  0  0  0  0  0  0  0
  -88.1184   32.9020   -2.8132 C   0  0  0  0  0  0  0  0  0  0  0  0
  -87.0207   33.9176   -2.8288 C   0  0  0  0  0  0  0  0  0  0  0  0
  -85.6884   33.4531   -2.7848 N   0  0  0  0  0  0  0  0  0  0  0  0
  -87.1935   35.1503   -2.8785 O   0  0  0  0  0  0  0  0  0  0  0  0
  -85.4097   32.7562   -2.0802 H   0  0  0  0  0  0  0  0  0  0  0  0
  -84.9998   33.8133   -3.4587 H   0  0  0  0  0  0  0  0  0  0  0  0
  -89.4647   33.5155   -2.9303 C   0  0  0  0  0  0  0  0  0  0  0  0
  -89.5408   33.1088   -5.4372 C   0  0  0  0  0  0  0  0  0  0  0  0
  -90.2364   33.1305   -4.1373 C   0  0  0  0  0  0  0  0  0  0  0  0
  -90.9669   31.7937   -3.8822 C   0  0  0  0  0  0  0  0  0  0  0  0
  -88.5468   28.3597   -1.4118 N   0  0  0  0  0  0  0  0  0  0  0  0
  -89.3809   27.6655   -0.5244 C   0  0  0  0  0  0  0  0  0  0  0  0
  -89.4569   28.0279    0.6697 O   0  0  0  0  0  0  0  0  0  0  0  0
  -88.5001   28.0415   -2.4032 H   0  0  0  0  0  0  0  0  0  0  0  0
  -90.1612   26.5320   -0.9612 C   0  0  0  0  0  0  0  0  0  0  0  0
  -90.6486   25.6289   -0.0067 C   0  0  0  0  0  0  0  0  0  0  0  0
  -91.3873   24.5412   -0.3606 C   0  0  0  0  0  0  0  0  0  0  0  0
  -91.6972   24.2670   -1.6770 C   0  0  0  0  0  0  0  0  0  0  0  0
  -91.2225   25.1478   -2.6135 C   0  0  0  0  0  0  0  0  0  0  0  0
  -90.4743   26.2512   -2.2654 C   0  0  0  0  0  0  0  0  0  0  0  0
  -92.4882   23.0938   -1.9976 C   0  0  0  0  0  0  0  0  0  0  0  0
  -92.8027   22.8244   -3.3024 C   0  0  0  0  0  0  0  0  0  0  0  0
  -93.5586   21.7057   -3.6145 C   0  0  0  0  0  0  0  0  0  0  0  0
  -93.9836   20.8793   -2.6106 C   0  0  0  0  0  0  0  0  0  0  0  0
  -93.6726   21.1421   -1.3007 C   0  0  0  0  0  0  0  0  0  0  0  0
  -92.9134   22.2666   -0.9904 C   0  0  0  0  0  0  0  0  0  0  0  0
  -86.2985   29.2097   -0.7935 C   0  0  0  0  0  0  0  0  0  0  0  0
  -85.7844   29.7084    0.5053 C   0  0  0  0  0  0  0  0  0  0  0  0
  -85.8732   28.8685    1.6165 C   0  0  0  0  0  0  0  0  0  0  0  0
  -85.4222   29.3147    2.8319 C   0  0  0  0  0  0  0  0  0  0  0  0
  -84.8836   30.5719    2.9834 C   0  0  0  0  0  0  0  0  0  0  0  0
  -84.7833   31.4225    1.9058 C   0  0  0  0  0  0  0  0  0  0  0  0
  -85.2471   30.9534    0.6756 C   0  0  0  0  0  0  0  0  0  0  0  0
 13 14  1  0  0  0
 14 15  1  0  0  0
 14 12  1  0  0  0
 12  6  1  0  0  0
  6  2  1  0  0  0
  2  3  1  0  0  0
  3  4  2  0  0  0
  3  1  1  0  0  0
  1 32  1  0  0  0
 32 33  1  0  0  0
 33 34  2  0  0  0
 34 35  1  0  0  0
 35 36  2  0  0  0
 36 37  1  0  0  0
 37 38  2  0  0  0
  1 16  1  0  0  0
 16 17  1  0  0  0
 17 18  2  0  0  0
 17 20  1  0  0  0
 20 21  2  0  0  0
 21 22  1  0  0  0
 22 23  2  0  0  0
 23 24  1  0  0  0
 24 25  2  0  0  0
 23 26  1  0  0  0
 26 27  2  0  0  0
 27 28  1  0  0  0
 28 29  2  0  0  0
 29 30  1  0  0  0
 30 31  2  0  0  0
  6  7  1  0  0  0
  7  8  1  0  0  0
  7  9  2  0  0  0
 38 33  1  0  0  0
 25 20  1  0  0  0
 31 26  1  0  0  0
  2  5  1  0  0  0
 16 19  1  0  0  0
  8 10  1  0  0  0
  8 11  1  0  0  0
M  END
> <minimizedAffinity>
-7.51134

> <CNNscore>
0.1500216424

> <CNNaffinity>
5.6702866554

> <CNN_VS>
0.8506656885

> <CNNaffinity_variance>
0.4649059772

$$$$
[H]c1c([H])c([H])c(-c2c([H])c([H])c(C(=O)N([H])[C@]([H])(C(=O)N([H])[C@]([H])(C(=O)N([H])[H])C([H])([H])C([H])(C([H])([H])[H])C([H])([H])[H])C([H])([H])c3c([H])c([H])c([H])c([H])c3[H])c([H])c2[H])c([H])c1[H]


 38 40  0  0  0  0  0  0  0  0999 V2000
  -88.4233   29.2918   -0.5185 C   0  0  0  0  0  0  0  0  0  0  0  0
  -88.3467   30.7577   -2.5688 N   0  0  0  0  0  0  0  0  0  0  0  0
  -88.8669   30.4914   -1.2556 C   0  0  0  0  0  0  0  0  0  0  0  0
  -89.6951   31.2556   -0.6999 O   0  0  0  0  0  0  0  0  0  0  0  0
  -87.6667   30.0379   -2.9409 H   0  0  0  0  0  0  0  0  0  0  0  0
  -88.7205   31.9229   -3.3115 C   0  0  0  0  0  0  0  0  0  0  0  0
  -89.5308   31.6264   -4.5330 C   0  0  0  0  0  0  0  0  0  0  0  0
  -89.5891   32.6103   -5.5436 N   0  0  0  0  0  0  0  0  0  0  0  0
  -90.1619   30.5703   -4.7282 O   0  0  0  0  0  0  0  0  0  0  0  0
  -89.8056   33.5865   -5.2991 H   0  0  0  0  0  0  0  0  0  0  0  0
  -89.4144   32.3474   -6.5226 H   0  0  0  0  0  0  0  0  0  0  0  0
  -87.6474   32.9160   -3.5662 C   0  0  0  0  0  0  0  0  0  0  0  0
  -86.3537   33.7971   -1.5647 C   0  0  0  0  0  0  0  0  0  0  0  0
  -87.4719   33.9468   -2.5140 C   0  0  0  0  0  0  0  0  0  0  0  0
  -87.4618   35.3504   -3.1585 C   0  0  0  0  0  0  0  0  0  0  0  0
  -89.3115   28.2039   -0.8727 N   0  0  0  0  0  0  0  0  0  0  0  0
  -89.3774   27.6098   -2.1408 C   0  0  0  0  0  0  0  0  0  0  0  0
  -88.6314   28.0171   -3.0576 O   0  0  0  0  0  0  0  0  0  0  0  0
  -89.9413   27.8474   -0.1227 H   0  0  0  0  0  0  0  0  0  0  0  0
  -90.2947   26.5292   -2.4151 C   0  0  0  0  0  0  0  0  0  0  0  0
  -91.3638   26.7465   -3.2947 C   0  0  0  0  0  0  0  0  0  0  0  0
  -92.2613   25.7655   -3.5883 C   0  0  0  0  0  0  0  0  0  0  0  0
  -92.1690   24.5039   -3.0371 C   0  0  0  0  0  0  0  0  0  0  0  0
  -91.1248   24.2872   -2.1764 C   0  0  0  0  0  0  0  0  0  0  0  0
  -90.2115   25.2733   -1.8731 C   0  0  0  0  0  0  0  0  0  0  0  0
  -93.1528   23.4960   -3.3853 C   0  0  0  0  0  0  0  0  0  0  0  0
  -94.1639   23.8075   -4.2539 C   0  0  0  0  0  0  0  0  0  0  0  0
  -95.1069   22.8492   -4.5895 C   0  0  0  0  0  0  0  0  0  0  0  0
  -95.0161   21.5968   -4.0467 C   0  0  0  0  0  0  0  0  0  0  0  0
  -94.0059   21.2765   -3.1757 C   0  0  0  0  0  0  0  0  0  0  0  0
  -93.0604   22.2414   -2.8404 C   0  0  0  0  0  0  0  0  0  0  0  0
  -86.9795   29.0464   -0.7654 C   0  0  0  0  0  0  0  0  0  0  0  0
  -86.0831   29.4095    0.3591 C   0  0  0  0  0  0  0  0  0  0  0  0
  -85.6964   30.7442    0.4902 C   0  0  0  0  0  0  0  0  0  0  0  0
  -84.8528   31.1007    1.5104 C   0  0  0  0  0  0  0  0  0  0  0  0
  -84.3772   30.1737    2.4094 C   0  0  0  0  0  0  0  0  0  0  0  0
  -84.7408   28.8502    2.3051 C   0  0  0  0  0  0  0  0  0  0  0  0
  -85.6000   28.5035    1.2609 C   0  0  0  0  0  0  0  0  0  0  0  0
 13 14  1  0  0  0
 14 15  1  0  0  0
 14 12  1  0  0  0
 12  6  1  0  0  0
  6  2  1  0  0  0
  2  3  1  0  0  0
  3  4  2  0  0  0
  3  1  1  0  0  0
  1 32  1  0  0  0
 32 33  1  0  0  0
 33 34  2  0  0  0
 34 35  1  0  0  0
 35 36  2  0  0  0
 36 37  1  0  0  0
 37 38  2  0  0  0
  1 16  1  0  0  0
 16 17  1  0  0  0
 17 18  2  0  0  0
 17 20  1  0  0  0
 20 21  2  0  0  0
 21 22  1  0  0  0
 22 23  2  0  0  0
 23 24  1  0  0  0
 24 25  2  0  0  0
 23 26  1  0  0  0
 26 27  2  0  0  0
 27 28  1  0  0  0
 28 29  2  0  0  0
 29 30  1  0  0  0
 30 31  2  0  0  0
  6  7  1  0  0  0
  7  8  1  0  0  0
  7  9  2  0  0  0
 38 33  1  0  0  0
 25 20  1  0  0  0
 31 26  1  0  0  0
  2  5  1  0  0  0
 16 19  1  0  0  0
  8 10  1  0  0  0
  8 11  1  0  0  0
M  END
> <minimizedAffinity>
-7.91360

> <CNNscore>
0.1459544301

> <CNNaffinity>
5.6965608597

> <CNN_VS>
0.8314383030

> <CNNaffinity_variance>
0.3682272434

$$$$
[H]c1c([H])c([H])c(-c2c([H])c([H])c(C(=O)N([H])[C@]([H])(C(=O)N([H])[C@]([H])(C(=O)N([H])[H])C([H])([H])C([H])(C([H])([H])[H])C([H])([H])[H])C([H])([H])c3c([H])c([H])c([H])c([H])c3[H])c([H])c2[H])c([H])c1[H]


 38 40  0  0  0  0  0  0  0  0999 V2000
  -87.7678   29.5281   -0.4238 C   0  0  0  0  0  0  0  0  0  0  0  0
  -87.5765   31.2569   -2.2495 N   0  0  0  0  0  0  0  0  0  0  0  0
  -88.1584   30.8264   -1.0076 C   0  0  0  0  0  0  0  0  0  0  0  0
  -88.9973   31.5265   -0.3874 O   0  0  0  0  0  0  0  0  0  0  0  0
  -86.8929   30.5792   -2.6881 H   0  0  0  0  0  0  0  0  0  0  0  0
  -87.8978   32.5204   -2.8407 C   0  0  0  0  0  0  0  0  0  0  0  0
  -86.9419   33.6141   -2.4851 C   0  0  0  0  0  0  0  0  0  0  0  0
  -86.4446   34.4240   -3.5290 N   0  0  0  0  0  0  0  0  0  0  0  0
  -86.5488   33.8671   -1.3304 O   0  0  0  0  0  0  0  0  0  0  0  0
  -86.0620   33.9889   -4.3798 H   0  0  0  0  0  0  0  0  0  0  0  0
  -86.4669   35.4481   -3.4352 H   0  0  0  0  0  0  0  0  0  0  0  0
  -89.3154   32.9502   -2.7505 C   0  0  0  0  0  0  0  0  0  0  0  0
  -89.5468   32.9549   -5.2807 C   0  0  0  0  0  0  0  0  0  0  0  0
  -90.1378   32.6872   -3.9568 C   0  0  0  0  0  0  0  0  0  0  0  0
  -90.7134   31.2554   -3.8909 C   0  0  0  0  0  0  0  0  0  0  0  0
  -88.7639   28.5520   -0.8147 N   0  0  0  0  0  0  0  0  0  0  0  0
  -88.9423   28.0748   -2.1207 C   0  0  0  0  0  0  0  0  0  0  0  0
  -88.2081   28.4943   -3.0415 O   0  0  0  0  0  0  0  0  0  0  0  0
  -89.3861   28.1873   -0.0622 H   0  0  0  0  0  0  0  0  0  0  0  0
  -89.9630   27.1016   -2.4299 C   0  0  0  0  0  0  0  0  0  0  0  0
  -89.8110   25.7840   -1.9772 C   0  0  0  0  0  0  0  0  0  0  0  0
  -90.7396   24.8238   -2.2410 C   0  0  0  0  0  0  0  0  0  0  0  0
  -91.8811   25.0933   -2.9679 C   0  0  0  0  0  0  0  0  0  0  0  0
  -92.0336   26.3807   -3.4124 C   0  0  0  0  0  0  0  0  0  0  0  0
  -91.0997   27.3593   -3.1506 C   0  0  0  0  0  0  0  0  0  0  0  0
  -92.8379   24.0321   -3.2193 C   0  0  0  0  0  0  0  0  0  0  0  0
  -93.8052   24.2036   -4.1726 C   0  0  0  0  0  0  0  0  0  0  0  0
  -94.7222   23.1937   -4.4166 C   0  0  0  0  0  0  0  0  0  0  0  0
  -94.6499   22.0314   -3.6988 C   0  0  0  0  0  0  0  0  0  0  0  0
  -93.6836   21.8516   -2.7419 C   0  0  0  0  0  0  0  0  0  0  0  0
  -92.7642   22.8679   -2.4991 C   0  0  0  0  0  0  0  0  0  0  0  0
  -86.3684   29.2007   -0.7985 C   0  0  0  0  0  0  0  0  0  0  0  0
  -85.4147   29.1452    0.3361 C   0  0  0  0  0  0  0  0  0  0  0  0
  -84.3791   30.0801    0.3740 C   0  0  0  0  0  0  0  0  0  0  0  0
  -83.4739   30.0366    1.4026 C   0  0  0  0  0  0  0  0  0  0  0  0
  -83.5612   29.0924    2.3999 C   0  0  0  0  0  0  0  0  0  0  0  0
  -84.5713   28.1574    2.3890 C   0  0  0  0  0  0  0  0  0  0  0  0
  -85.4846   28.2150    1.3348 C   0  0  0  0  0  0  0  0  0  0  0  0
 13 14  1  0  0  0
 14 15  1  0  0  0
 14 12  1  0  0  0
 12  6  1  0  0  0
  6  2  1  0  0  0
  2  3  1  0  0  0
  3  4  2  0  0  0
  3  1  1  0  0  0
  1 32  1  0  0  0
 32 33  1  0  0  0
 33 34  2  0  0  0
 34 35  1  0  0  0
 35 36  2  0  0  0
 36 37  1  0  0  0
 37 38  2  0  0  0
  1 16  1  0  0  0
 16 17  1  0  0  0
 17 18  2  0  0  0
 17 20  1  0  0  0
 20 21  2  0  0  0
 21 22  1  0  0  0
 22 23  2  0  0  0
 23 24  1  0  0  0
 24 25  2  0  0  0
 23 26  1  0  0  0
 26 27  2  0  0  0
 27 28  1  0  0  0
 28 29  2  0  0  0
 29 30  1  0  0  0
 30 31  2  0  0  0
  6  7  1  0  0  0
  7  8  1  0  0  0
  7  9  2  0  0  0
 38 33  1  0  0  0
 25 20  1  0  0  0
 31 26  1  0  0  0
  2  5  1  0  0  0
 16 19  1  0  0  0
  8 10  1  0  0  0
  8 11  1  0  0  0
M  END
> <minimizedAffinity>
-8.08538

> <CNNscore>
0.1356771439

> <CNNaffinity>
5.5911455154

> <CNN_VS>
0.7585906386

> <CNNaffinity_variance>
0.5203703642

$$$$
[H]c1c([H])c([H])c(-c2c([H])c([H])c(C(=O)N([H])[C@]([H])(C(=O)N([H])[C@]([H])(C(=O)N([H])[H])C([H])([H])C([H])(C([H])([H])[H])C([H])([H])[H])C([H])([H])c3c([H])c([H])c([H])c([H])c3[H])c([H])c2[H])c([H])c1[H]


 38 40  0  0  0  0  0  0  0  0999 V2000
  -88.7979   34.4473   -3.6846 C   0  0  0  0  0  0  0  0  0  0  0  0
  -91.1005   33.4459   -3.9164 N   0  0  0  0  0  0  0  0  0  0  0  0
  -89.7409   33.5436   -4.3725 C   0  0  0  0  0  0  0  0  0  0  0  0
  -89.3160   32.8748   -5.3476 O   0  0  0  0  0  0  0  0  0  0  0  0
  -91.3485   34.0662   -3.0963 H   0  0  0  0  0  0  0  0  0  0  0  0
  -92.0449   32.5615   -4.5288 C   0  0  0  0  0  0  0  0  0  0  0  0
  -93.3771   33.1883   -4.7914 C   0  0  0  0  0  0  0  0  0  0  0  0
  -94.1425   33.6060   -3.6812 N   0  0  0  0  0  0  0  0  0  0  0  0
  -93.8658   33.3717   -5.9225 O   0  0  0  0  0  0  0  0  0  0  0  0
  -94.2899   32.9664   -2.8882 H   0  0  0  0  0  0  0  0  0  0  0  0
  -94.5506   34.5501   -3.6689 H   0  0  0  0  0  0  0  0  0  0  0  0
  -92.1595   31.2053   -3.9369 C   0  0  0  0  0  0  0  0  0  0  0  0
  -92.6593   29.3398   -5.5879 C   0  0  0  0  0  0  0  0  0  0  0  0
  -93.1454   30.3083   -4.5881 C   0  0  0  0  0  0  0  0  0  0  0  0
  -93.9983   29.6042   -3.5099 C   0  0  0  0  0  0  0  0  0  0  0  0
  -87.9079   33.6299   -2.8860 N   0  0  0  0  0  0  0  0  0  0  0  0
  -88.2721   32.9839   -1.6964 C   0  0  0  0  0  0  0  0  0  0  0  0
  -89.4391   33.0936   -1.2615 O   0  0  0  0  0  0  0  0  0  0  0  0
  -86.9303   33.5234   -3.2311 H   0  0  0  0  0  0  0  0  0  0  0  0
  -87.3227   32.1877   -0.9552 C   0  0  0  0  0  0  0  0  0  0  0  0
  -87.6110   30.8399   -0.7019 C   0  0  0  0  0  0  0  0  0  0  0  0
  -86.7545   30.0422   -0.0061 C   0  0  0  0  0  0  0  0  0  0  0  0
  -85.5561   30.5152    0.4882 C   0  0  0  0  0  0  0  0  0  0  0  0
  -85.2704   31.8328    0.2425 C   0  0  0  0  0  0  0  0  0  0  0  0
  -86.1305   32.6479   -0.4605 C   0  0  0  0  0  0  0  0  0  0  0  0
  -84.6809   29.6210    1.2226 C   0  0  0  0  0  0  0  0  0  0  0  0
  -83.3572   29.9374    1.3691 C   0  0  0  0  0  0  0  0  0  0  0  0
  -82.5164   29.0868    2.0690 C   0  0  0  0  0  0  0  0  0  0  0  0
  -83.0211   27.9353    2.6080 C   0  0  0  0  0  0  0  0  0  0  0  0
  -84.3463   27.6110    2.4658 C   0  0  0  0  0  0  0  0  0  0  0  0
  -85.1882   28.4673    1.7622 C   0  0  0  0  0  0  0  0  0  0  0  0
  -88.1364   35.3402   -4.6699 C   0  0  0  0  0  0  0  0  0  0  0  0
  -88.8286   36.6304   -4.9069 C   0  0  0  0  0  0  0  0  0  0  0  0
  -89.3567   37.3078   -3.8068 C   0  0  0  0  0  0  0  0  0  0  0  0
  -90.0178   38.4926   -4.0030 C   0  0  0  0  0  0  0  0  0  0  0  0
  -90.1738   39.0311   -5.2598 C   0  0  0  0  0  0  0  0  0  0  0  0
  -89.6642   38.3857   -6.3636 C   0  0  0  0  0  0  0  0  0  0  0  0
  -88.9942   37.1804   -6.1469 C   0  0  0  0  0  0  0  0  0  0  0  0
 13 14  1  0  0  0
 14 15  1  0  0  0
 14 12  1  0  0  0
 12  6  1  0  0  0
  6  2  1  0  0  0
  2  3  1  0  0  0
  3  4  2  0  0  0
  3  1  1  0  0  0
  1 32  1  0  0  0
 32 33  1  0  0  0
 33 34  2  0  0  0
 34 35  1  0  0  0
 35 36  2  0  0  0
 36 37  1  0  0  0
 37 38  2  0  0  0
  1 16  1  0  0  0
 16 17  1  0  0  0
 17 18  2  0  0  0
 17 20  1  0  0  0
 20 21  2  0  0  0
 21 22  1  0  0  0
 22 23  2  0  0  0
 23 24  1  0  0  0
 24 25  2  0  0  0
 23 26  1  0  0  0
 26 27  2  0  0  0
 27 28  1  0  0  0
 28 29  2  0  0  0
 29 30  1  0  0  0
 30 31  2  0  0  0
  6  7  1  0  0  0
  7  8  1  0  0  0
  7  9  2  0  0  0
 38 33  1  0  0  0
 25 20  1  0  0  0
 31 26  1  0  0  0
  2  5  1  0  0  0
 16 19  1  0  0  0
  8 10  1  0  0  0
  8 11  1  0  0  0
M  END
> <minimizedAffinity>
-8.16027

> <CNNscore>
0.1304639280

> <CNNaffinity>
5.8654646873

> <CNN_VS>
0.7652315497

> <CNNaffinity_variance>
0.3986742496

$$$$
[H]c1c([H])c([H])c(-c2c([H])c([H])c(C(=O)N([H])[C@]([H])(C(=O)N([H])[C@]([H])(C(=O)N([H])[H])C([H])([H])C([H])(C([H])([H])[H])C([H])([H])[H])C([H])([H])c3c([H])c([H])c([H])c([H])c3[H])c([H])c2[H])c([H])c1[H]


 38 40  0  0  0  0  0  0  0  0999 V2000
  -90.4713   33.4139   -4.5254 C   0  0  0  0  0  0  0  0  0  0  0  0
  -92.2990   32.0193   -3.4894 N   0  0  0  0  0  0  0  0  0  0  0  0
  -91.7423   32.6723   -4.6426 C   0  0  0  0  0  0  0  0  0  0  0  0
  -92.3032   32.6318   -5.7662 O   0  0  0  0  0  0  0  0  0  0  0  0
  -91.7470   32.1331   -2.5942 H   0  0  0  0  0  0  0  0  0  0  0  0
  -93.5115   31.2615   -3.5576 C   0  0  0  0  0  0  0  0  0  0  0  0
  -94.5547   31.7020   -2.5808 C   0  0  0  0  0  0  0  0  0  0  0  0
  -94.9015   33.0702   -2.5546 N   0  0  0  0  0  0  0  0  0  0  0  0
  -95.1454   30.9487   -1.7836 O   0  0  0  0  0  0  0  0  0  0  0  0
  -94.1639   33.7869   -2.5126 H   0  0  0  0  0  0  0  0  0  0  0  0
  -95.8921   33.3461   -2.5779 H   0  0  0  0  0  0  0  0  0  0  0  0
  -93.3657   29.7855   -3.6094 C   0  0  0  0  0  0  0  0  0  0  0  0
  -93.6347   28.9985   -6.0103 C   0  0  0  0  0  0  0  0  0  0  0  0
  -94.1796   29.1018   -4.6442 C   0  0  0  0  0  0  0  0  0  0  0  0
  -94.6250   27.7175   -4.1237 C   0  0  0  0  0  0  0  0  0  0  0  0
  -89.6005   32.6591   -3.6480 N   0  0  0  0  0  0  0  0  0  0  0  0
  -88.9028   33.2006   -2.5593 C   0  0  0  0  0  0  0  0  0  0  0  0
  -89.0155   34.4166   -2.2915 O   0  0  0  0  0  0  0  0  0  0  0  0
  -89.4933   31.6426   -3.8520 H   0  0  0  0  0  0  0  0  0  0  0  0
  -88.0498   32.3797   -1.7329 C   0  0  0  0  0  0  0  0  0  0  0  0
  -86.8834   32.9356   -1.1902 C   0  0  0  0  0  0  0  0  0  0  0  0
  -86.0403   32.2084   -0.4064 C   0  0  0  0  0  0  0  0  0  0  0  0
  -86.2863   30.8851   -0.1026 C   0  0  0  0  0  0  0  0  0  0  0  0
  -87.4260   30.3376   -0.6314 C   0  0  0  0  0  0  0  0  0  0  0  0
  -88.2854   31.0652   -1.4255 C   0  0  0  0  0  0  0  0  0  0  0  0
  -85.3541   30.1575    0.7380 C   0  0  0  0  0  0  0  0  0  0  0  0
  -84.0635   30.5978    0.8575 C   0  0  0  0  0  0  0  0  0  0  0  0
  -83.1685   29.9066    1.6584 C   0  0  0  0  0  0  0  0  0  0  0  0
  -83.5870   28.7869    2.3237 C   0  0  0  0  0  0  0  0  0  0  0  0
  -84.8785   28.3392    2.2094 C   0  0  0  0  0  0  0  0  0  0  0  0
  -85.7750   29.0356    1.4041 C   0  0  0  0  0  0  0  0  0  0  0  0
  -89.9245   33.7052   -5.8751 C   0  0  0  0  0  0  0  0  0  0  0  0
  -89.2426   35.0162   -6.0031 C   0  0  0  0  0  0  0  0  0  0  0  0
  -89.9299   36.0595   -6.6253 C   0  0  0  0  0  0  0  0  0  0  0  0
  -89.3131   37.2750   -6.7725 C   0  0  0  0  0  0  0  0  0  0  0  0
  -88.0312   37.4918   -6.3213 C   0  0  0  0  0  0  0  0  0  0  0  0
  -87.3285   36.4819   -5.7042 C   0  0  0  0  0  0  0  0  0  0  0  0
  -87.9704   35.2504   -5.5624 C   0  0  0  0  0  0  0  0  0  0  0  0
 13 14  1  0  0  0
 14 15  1  0  0  0
 14 12  1  0  0  0
 12  6  1  0  0  0
  6  2  1  0  0  0
  2  3  1  0  0  0
  3  4  2  0  0  0
  3  1  1  0  0  0
  1 32  1  0  0  0
 32 33  1  0  0  0
 33 34  2  0  0  0
 34 35  1  0  0  0
 35 36  2  0  0  0
 36 37  1  0  0  0
 37 38  2  0  0  0
  1 16  1  0  0  0
 16 17  1  0  0  0
 17 18  2  0  0  0
 17 20  1  0  0  0
 20 21  2  0  0  0
 21 22  1  0  0  0
 22 23  2  0  0  0
 23 24  1  0  0  0
 24 25  2  0  0  0
 23 26  1  0  0  0
 26 27  2  0  0  0
 27 28  1  0  0  0
 28 29  2  0  0  0
 29 30  1  0  0  0
 30 31  2  0  0  0
  6  7  1  0  0  0
  7  8  1  0  0  0
  7  9  2  0  0  0
 38 33  1  0  0  0
 25 20  1  0  0  0
 31 26  1  0  0  0
  2  5  1  0  0  0
 16 19  1  0  0  0
  8 10  1  0  0  0
  8 11  1  0  0  0
M  END
> <minimizedAffinity>
-7.94863

> <CNNscore>
0.1235256493

> <CNNaffinity>
5.7013788223

> <CNN_VS>
0.7042665482

> <CNNaffinity_variance>
0.4662830830

$$$$
[H]c1c([H])c([H])c(-c2c([H])c([H])c(C(=O)N([H])[C@]([H])(C(=O)N([H])[C@]([H])(C(=O)N([H])[H])C([H])([H])C([H])(C([H])([H])[H])C([H])([H])[H])C([H])([H])c3c([H])c([H])c([H])c([H])c3[H])c([H])c2[H])c([H])c1[H]


 38 40  0  0  0  0  0  0  0  0999 V2000
  -87.4774   28.6014   -0.2121 C   0  0  0  0  0  0  0  0  0  0  0  0
  -88.5751   26.4401   -0.9067 N   0  0  0  0  0  0  0  0  0  0  0  0
  -88.6319   27.6819   -0.1850 C   0  0  0  0  0  0  0  0  0  0  0  0
  -89.6451   28.0224    0.4755 O   0  0  0  0  0  0  0  0  0  0  0  0
  -87.6665   26.2532   -1.4152 H   0  0  0  0  0  0  0  0  0  0  0  0
  -89.6788   25.5292   -0.9382 C   0  0  0  0  0  0  0  0  0  0  0  0
  -89.6341   24.4888    0.1352 C   0  0  0  0  0  0  0  0  0  0  0  0
  -89.1393   23.2105   -0.2022 N   0  0  0  0  0  0  0  0  0  0  0  0
  -90.0020   24.6655    1.3121 O   0  0  0  0  0  0  0  0  0  0  0  0
  -89.4914   22.7274   -1.0403 H   0  0  0  0  0  0  0  0  0  0  0  0
  -88.4270   22.7658    0.3919 H   0  0  0  0  0  0  0  0  0  0  0  0
  -90.0318   24.9651   -2.2648 C   0  0  0  0  0  0  0  0  0  0  0  0
  -92.3258   23.8915   -2.4661 C   0  0  0  0  0  0  0  0  0  0  0  0
  -91.4624   25.0736   -2.6420 C   0  0  0  0  0  0  0  0  0  0  0  0
  -92.0850   26.3149   -1.9657 C   0  0  0  0  0  0  0  0  0  0  0  0
  -87.8119   29.7022   -1.0921 N   0  0  0  0  0  0  0  0  0  0  0  0
  -87.9930   29.5880   -2.4775 C   0  0  0  0  0  0  0  0  0  0  0  0
  -87.8685   28.4739   -3.0309 O   0  0  0  0  0  0  0  0  0  0  0  0
  -87.9221   30.6402   -0.6514 H   0  0  0  0  0  0  0  0  0  0  0  0
  -88.3227   30.7370   -3.2872 C   0  0  0  0  0  0  0  0  0  0  0  0
  -89.6290   30.8776   -3.7747 C   0  0  0  0  0  0  0  0  0  0  0  0
  -89.9963   31.9386   -4.5451 C   0  0  0  0  0  0  0  0  0  0  0  0
  -89.1043   32.9337   -4.8888 C   0  0  0  0  0  0  0  0  0  0  0  0
  -87.8257   32.8000   -4.4139 C   0  0  0  0  0  0  0  0  0  0  0  0
  -87.4444   31.7302   -3.6338 C   0  0  0  0  0  0  0  0  0  0  0  0
  -89.5496   34.0423   -5.7121 C   0  0  0  0  0  0  0  0  0  0  0  0
  -88.8273   35.2050   -5.7314 C   0  0  0  0  0  0  0  0  0  0  0  0
  -89.2482   36.2673   -6.5153 C   0  0  0  0  0  0  0  0  0  0  0  0
  -90.3859   36.1415   -7.2645 C   0  0  0  0  0  0  0  0  0  0  0  0
  -91.1152   34.9798   -7.2508 C   0  0  0  0  0  0  0  0  0  0  0  0
  -90.6899   33.9146   -6.4623 C   0  0  0  0  0  0  0  0  0  0  0  0
  -87.0951   28.9810    1.1718 C   0  0  0  0  0  0  0  0  0  0  0  0
  -85.6394   29.1643    1.3896 C   0  0  0  0  0  0  0  0  0  0  0  0
  -85.0044   30.2273    0.7454 C   0  0  0  0  0  0  0  0  0  0  0  0
  -83.6559   30.4055    0.9160 C   0  0  0  0  0  0  0  0  0  0  0  0
  -82.9119   29.5608    1.7077 C   0  0  0  0  0  0  0  0  0  0  0  0
  -83.5103   28.5038    2.3552 C   0  0  0  0  0  0  0  0  0  0  0  0
  -84.8839   28.3360    2.1710 C   0  0  0  0  0  0  0  0  0  0  0  0
 13 14  1  0  0  0
 14 15  1  0  0  0
 14 12  1  0  0  0
 12  6  1  0  0  0
  6  2  1  0  0  0
  2  3  1  0  0  0
  3  4  2  0  0  0
  3  1  1  0  0  0
  1 32  1  0  0  0
 32 33  1  0  0  0
 33 34  2  0  0  0
 34 35  1  0  0  0
 35 36  2  0  0  0
 36 37  1  0  0  0
 37 38  2  0  0  0
  1 16  1  0  0  0
 16 17  1  0  0  0
 17 18  2  0  0  0
 17 20  1  0  0  0
 20 21  2  0  0  0
 21 22  1  0  0  0
 22 23  2  0  0  0
 23 24  1  0  0  0
 24 25  2  0  0  0
 23 26  1  0  0  0
 26 27  2  0  0  0
 27 28  1  0  0  0
 28 29  2  0  0  0
 29 30  1  0  0  0
 30 31  2  0  0  0
  6  7  1  0  0  0
  7  8  1  0  0  0
  7  9  2  0  0  0
 38 33  1  0  0  0
 25 20  1  0  0  0
 31 26  1  0  0  0
  2  5  1  0  0  0
 16 19  1  0  0  0
  8 10  1  0  0  0
  8 11  1  0  0  0
M  END
> <minimizedAffinity>
-8.35773

> <CNNscore>
0.1219040751

> <CNNaffinity>
5.6397104263

> <CNN_VS>
0.6875036955

> <CNNaffinity_variance>
0.5197035074

$$$$
[H]c1c([H])c([H])c(-c2c([H])c([H])c(C(=O)N([H])[C@]([H])(C(=O)N([H])[C@]([H])(C(=O)N([H])[H])C([H])([H])C([H])(C([H])([H])[H])C([H])([H])[H])C([H])([H])c3c([H])c([H])c([H])c([H])c3[H])c([H])c2[H])c([H])c1[H]


 38 40  0  0  0  0  0  0  0  0999 V2000
  -89.5072   34.3900   -4.1514 C   0  0  0  0  0  0  0  0  0  0  0  0
  -91.1104   32.4600   -3.8999 N   0  0  0  0  0  0  0  0  0  0  0  0
  -90.8732   33.8371   -4.2369 C   0  0  0  0  0  0  0  0  0  0  0  0
  -91.7987   34.5996   -4.6120 O   0  0  0  0  0  0  0  0  0  0  0  0
  -90.2587   31.9181   -3.5838 H   0  0  0  0  0  0  0  0  0  0  0  0
  -92.4100   31.8678   -3.9967 C   0  0  0  0  0  0  0  0  0  0  0  0
  -92.7282   30.9237   -2.8813 C   0  0  0  0  0  0  0  0  0  0  0  0
  -91.6508   30.3189   -2.1984 N   0  0  0  0  0  0  0  0  0  0  0  0
  -93.8788   30.6289   -2.5060 O   0  0  0  0  0  0  0  0  0  0  0  0
  -90.8909   29.8720   -2.7299 H   0  0  0  0  0  0  0  0  0  0  0  0
  -91.6292   30.3273   -1.1700 H   0  0  0  0  0  0  0  0  0  0  0  0
  -92.7933   31.3300   -5.3258 C   0  0  0  0  0  0  0  0  0  0  0  0
  -94.7733   32.9110   -5.1366 C   0  0  0  0  0  0  0  0  0  0  0  0
  -94.0080   31.9311   -5.9291 C   0  0  0  0  0  0  0  0  0  0  0  0
  -93.6684   32.4980   -7.3251 C   0  0  0  0  0  0  0  0  0  0  0  0
  -88.7548   33.5642   -3.2295 N   0  0  0  0  0  0  0  0  0  0  0  0
  -87.5352   33.9315   -2.6441 C   0  0  0  0  0  0  0  0  0  0  0  0
  -87.0288   35.0436   -2.9083 O   0  0  0  0  0  0  0  0  0  0  0  0
  -89.1597   32.6331   -2.9938 H   0  0  0  0  0  0  0  0  0  0  0  0
  -86.8443   33.0478   -1.7351 C   0  0  0  0  0  0  0  0  0  0  0  0
  -87.3335   31.7492   -1.5397 C   0  0  0  0  0  0  0  0  0  0  0  0
  -86.7249   30.8737   -0.6929 C   0  0  0  0  0  0  0  0  0  0  0  0
  -85.5936   31.2152    0.0196 C   0  0  0  0  0  0  0  0  0  0  0  0
  -85.1119   32.4843   -0.1686 C   0  0  0  0  0  0  0  0  0  0  0  0
  -85.7206   33.3774   -1.0232 C   0  0  0  0  0  0  0  0  0  0  0  0
  -84.9855   30.2426    0.9080 C   0  0  0  0  0  0  0  0  0  0  0  0
  -83.6312   30.2601    1.1067 C   0  0  0  0  0  0  0  0  0  0  0  0
  -83.0447   29.3332    1.9535 C   0  0  0  0  0  0  0  0  0  0  0  0
  -83.8294   28.4070    2.5844 C   0  0  0  0  0  0  0  0  0  0  0  0
  -85.1872   28.3829    2.3907 C   0  0  0  0  0  0  0  0  0  0  0  0
  -85.7732   29.3152    1.5395 C   0  0  0  0  0  0  0  0  0  0  0  0
  -88.9257   34.5254   -5.5113 C   0  0  0  0  0  0  0  0  0  0  0  0
  -89.0093   35.8870   -6.0935 C   0  0  0  0  0  0  0  0  0  0  0  0
  -89.6676   36.0436   -7.3142 C   0  0  0  0  0  0  0  0  0  0  0  0
  -89.7409   37.2894   -7.8815 C   0  0  0  0  0  0  0  0  0  0  0  0
  -89.1804   38.3909   -7.2762 C   0  0  0  0  0  0  0  0  0  0  0  0
  -88.5245   38.2674   -6.0724 C   0  0  0  0  0  0  0  0  0  0  0  0
  -88.4585   36.9923   -5.5081 C   0  0  0  0  0  0  0  0  0  0  0  0
 13 14  1  0  0  0
 14 15  1  0  0  0
 14 12  1  0  0  0
 12  6  1  0  0  0
  6  2  1  0  0  0
  2  3  1  0  0  0
  3  4  2  0  0  0
  3  1  1  0  0  0
  1 32  1  0  0  0
 32 33  1  0  0  0
 33 34  2  0  0  0
 34 35  1  0  0  0
 35 36  2  0  0  0
 36 37  1  0  0  0
 37 38  2  0  0  0
  1 16  1  0  0  0
 16 17  1  0  0  0
 17 18  2  0  0  0
 17 20  1  0  0  0
 20 21  2  0  0  0
 21 22  1  0  0  0
 22 23  2  0  0  0
 23 24  1  0  0  0
 24 25  2  0  0  0
 23 26  1  0  0  0
 26 27  2  0  0  0
 27 28  1  0  0  0
 28 29  2  0  0  0
 29 30  1  0  0  0
 30 31  2  0  0  0
  6  7  1  0  0  0
  7  8  1  0  0  0
  7  9  2  0  0  0
 38 33  1  0  0  0
 25 20  1  0  0  0
 31 26  1  0  0  0
  2  5  1  0  0  0
 16 19  1  0  0  0
  8 10  1  0  0  0
  8 11  1  0  0  0
M  END
> <minimizedAffinity>
-7.64273

> <CNNscore>
0.1192293391

> <CNNaffinity>
5.7283349037

> <CNN_VS>
0.6829856038

> <CNNaffinity_variance>
0.3126175106

$$$$
[H]c1c([H])c([H])c(-c2c([H])c([H])c(C(=O)N3C([H])([H])C([H])([H])N(C(=O)c4c([H])c([H])c(-c5c([H])c([H])c([H])c([H])c5[H])c([H])c4[H])[C@]([H])(C([H])([H])[H])C3([H])[H])c([H])c2[H])c([H])c1[H]


 35 39  0  0  0  0  0  0  0  0999 V2000
  -91.0732   24.6660   -1.7527 C   0  0  0  0  0  0  0  0  0  0  0  0
  -90.1228   25.7240   -1.3756 C   0  0  0  0  0  0  0  0  0  0  0  0
  -89.7980   25.6952    0.1104 C   0  0  0  0  0  0  0  0  0  0  0  0
  -90.9337   26.0969    0.8630 N   0  0  0  0  0  0  0  0  0  0  0  0
  -92.0546   26.7560    0.1324 C   0  0  0  0  0  0  0  0  0  0  0  0
  -91.4315   27.7705   -0.8034 C   0  0  0  0  0  0  0  0  0  0  0  0
  -90.5612   27.0954   -1.7157 N   0  0  0  0  0  0  0  0  0  0  0  0
  -90.1396   27.6131   -2.9373 C   0  0  0  0  0  0  0  0  0  0  0  0
  -89.4479   26.7678   -3.6752 O   0  0  0  0  0  0  0  0  0  0  0  0
  -91.0895   25.9349    2.2432 C   0  0  0  0  0  0  0  0  0  0  0  0
  -92.2659   26.3651    2.6517 O   0  0  0  0  0  0  0  0  0  0  0  0
  -90.3571   28.9214   -3.4911 C   0  0  0  0  0  0  0  0  0  0  0  0
  -89.3870   29.9271   -3.2331 C   0  0  0  0  0  0  0  0  0  0  0  0
  -89.5335   31.2122   -3.6638 C   0  0  0  0  0  0  0  0  0  0  0  0
  -90.6293   31.6245   -4.3773 C   0  0  0  0  0  0  0  0  0  0  0  0
  -91.5779   30.6751   -4.6379 C   0  0  0  0  0  0  0  0  0  0  0  0
  -91.4428   29.3389   -4.1986 C   0  0  0  0  0  0  0  0  0  0  0  0
  -90.7347   33.0060   -4.8104 C   0  0  0  0  0  0  0  0  0  0  0  0
  -89.6924   33.6597   -5.4491 C   0  0  0  0  0  0  0  0  0  0  0  0
  -89.7959   34.9713   -5.8579 C   0  0  0  0  0  0  0  0  0  0  0  0
  -90.9545   35.6852   -5.6422 C   0  0  0  0  0  0  0  0  0  0  0  0
  -91.9940   35.0401   -5.0076 C   0  0  0  0  0  0  0  0  0  0  0  0
  -91.8900   33.7265   -4.5983 C   0  0  0  0  0  0  0  0  0  0  0  0
  -90.2126   25.3991    3.2188 C   0  0  0  0  0  0  0  0  0  0  0  0
  -90.0687   23.9934    3.2884 C   0  0  0  0  0  0  0  0  0  0  0  0
  -89.2816   23.3633    4.2162 C   0  0  0  0  0  0  0  0  0  0  0  0
  -88.5782   24.0860    5.1450 C   0  0  0  0  0  0  0  0  0  0  0  0
  -88.6935   25.4453    5.1084 C   0  0  0  0  0  0  0  0  0  0  0  0
  -89.5087   26.0952    4.1480 C   0  0  0  0  0  0  0  0  0  0  0  0
  -87.7233   23.4238    6.1471 C   0  0  0  0  0  0  0  0  0  0  0  0
  -87.7604   22.0642    6.3707 C   0  0  0  0  0  0  0  0  0  0  0  0
  -86.9386   21.4657    7.3245 C   0  0  0  0  0  0  0  0  0  0  0  0
  -86.0725   22.2471    8.0580 C   0  0  0  0  0  0  0  0  0  0  0  0
  -86.0330   23.6056    7.8375 C   0  0  0  0  0  0  0  0  0  0  0  0
  -86.8587   24.1979    6.8808 C   0  0  0  0  0  0  0  0  0  0  0  0
  1  2  1  0  0  0
  2  3  1  0  0  0
  3  4  1  0  0  0
  4  5  1  0  0  0
  5  6  1  0  0  0
  6  7  1  0  0  0
  7  8  1  0  0  0
  8  9  2  0  0  0
  8 12  1  0  0  0
 12 13  2  0  0  0
 13 14  1  0  0  0
 14 15  2  0  0  0
 15 16  1  0  0  0
 16 17  2  0  0  0
 15 18  1  0  0  0
 18 19  2  0  0  0
 19 20  1  0  0  0
 20 21  2  0  0  0
 21 22  1  0  0  0
 22 23  2  0  0  0
  4 10  1  0  0  0
 10 11  2  0  0  0
 10 24  1  0  0  0
 24 25  2  0  0  0
 25 26  1  0  0  0
 26 27  2  0  0  0
 27 28  1  0  0  0
 28 29  2  0  0  0
 27 30  1  0  0  0
 30 31  2  0  0  0
 31 32  1  0  0  0
 32 33  2  0  0  0
 33 34  1  0  0  0
 34 35  2  0  0  0
  7  2  1  0  0  0
 17 12  1  0  0  0
 23 18  1  0  0  0
 29 24  1  0  0  0
 35 30  1  0  0  0
M  END
> <minimizedAffinity>
-2.44205

> <CNNscore>
0.4025966823

> <CNNaffinity>
5.5784893036

> <CNN_VS>
2.2458813190

> <CNNaffinity_variance>
1.2573426962

$$$$
[H]c1c([H])c([H])c(-c2c([H])c([H])c(C(=O)N3C([H])([H])C([H])([H])N(C(=O)c4c([H])c([H])c(-c5c([H])c([H])c([H])c([H])c5[H])c([H])c4[H])[C@]([H])(C([H])([H])[H])C3([H])[H])c([H])c2[H])c([H])c1[H]


 35 39  0  0  0  0  0  0  0  0999 V2000
  -86.1742   27.4944   -1.9675 C   0  0  0  0  0  0  0  0  0  0  0  0
  -87.2557   28.0296   -1.1257 C   0  0  0  0  0  0  0  0  0  0  0  0
  -88.2684   26.9583   -0.7495 C   0  0  0  0  0  0  0  0  0  0  0  0
  -89.0109   26.5689   -1.8960 N   0  0  0  0  0  0  0  0  0  0  0  0
  -88.9284   27.4369   -3.1061 C   0  0  0  0  0  0  0  0  0  0  0  0
  -89.0626   28.8678   -2.6292 C   0  0  0  0  0  0  0  0  0  0  0  0
  -87.9970   29.1625   -1.7220 N   0  0  0  0  0  0  0  0  0  0  0  0
  -87.5630   30.4457   -1.4008 C   0  0  0  0  0  0  0  0  0  0  0  0
  -86.4825   30.4803   -0.6466 O   0  0  0  0  0  0  0  0  0  0  0  0
  -89.8272   25.4370   -1.9864 C   0  0  0  0  0  0  0  0  0  0  0  0
  -90.3532   25.3138   -3.1882 O   0  0  0  0  0  0  0  0  0  0  0  0
  -88.1249   31.7137   -1.7781 C   0  0  0  0  0  0  0  0  0  0  0  0
  -88.3134   31.9771   -3.1616 C   0  0  0  0  0  0  0  0  0  0  0  0
  -88.7828   33.1717   -3.6213 C   0  0  0  0  0  0  0  0  0  0  0  0
  -89.1065   34.2038   -2.7789 C   0  0  0  0  0  0  0  0  0  0  0  0
  -88.9331   33.9753   -1.4421 C   0  0  0  0  0  0  0  0  0  0  0  0
  -88.4469   32.7439   -0.9483 C   0  0  0  0  0  0  0  0  0  0  0  0
  -89.6014   35.4555   -3.3227 C   0  0  0  0  0  0  0  0  0  0  0  0
  -90.8009   35.5362   -4.0126 C   0  0  0  0  0  0  0  0  0  0  0  0
  -91.2669   36.7259   -4.5280 C   0  0  0  0  0  0  0  0  0  0  0  0
  -90.5458   37.8896   -4.3722 C   0  0  0  0  0  0  0  0  0  0  0  0
  -89.3524   37.8151   -3.6869 C   0  0  0  0  0  0  0  0  0  0  0  0
  -88.8860   36.6235   -3.1709 C   0  0  0  0  0  0  0  0  0  0  0  0
  -90.1533   24.4496   -1.0238 C   0  0  0  0  0  0  0  0  0  0  0  0
  -89.7710   23.1122   -1.2823 C   0  0  0  0  0  0  0  0  0  0  0  0
  -90.0682   22.0701   -0.4439 C   0  0  0  0  0  0  0  0  0  0  0  0
  -90.7689   22.2814    0.7155 C   0  0  0  0  0  0  0  0  0  0  0  0
  -91.1549   23.5596    0.9973 C   0  0  0  0  0  0  0  0  0  0  0  0
  -90.8469   24.6363    0.1284 C   0  0  0  0  0  0  0  0  0  0  0  0
  -91.0928   21.1718    1.6306 C   0  0  0  0  0  0  0  0  0  0  0  0
  -92.0492   20.2238    1.3368 C   0  0  0  0  0  0  0  0  0  0  0  0
  -92.3330   19.1846    2.2216 C   0  0  0  0  0  0  0  0  0  0  0  0
  -91.6448   19.1026    3.4126 C   0  0  0  0  0  0  0  0  0  0  0  0
  -90.6889   20.0479    3.7095 C   0  0  0  0  0  0  0  0  0  0  0  0
  -90.4100   21.0857    2.8188 C   0  0  0  0  0  0  0  0  0  0  0  0
  1  2  1  0  0  0
  2  3  1  0  0  0
  3  4  1  0  0  0
  4  5  1  0  0  0
  5  6  1  0  0  0
  6  7  1  0  0  0
  7  8  1  0  0  0
  8  9  2  0  0  0
  8 12  1  0  0  0
 12 13  2  0  0  0
 13 14  1  0  0  0
 14 15  2  0  0  0
 15 16  1  0  0  0
 16 17  2  0  0  0
 15 18  1  0  0  0
 18 19  2  0  0  0
 19 20  1  0  0  0
 20 21  2  0  0  0
 21 22  1  0  0  0
 22 23  2  0  0  0
  4 10  1  0  0  0
 10 11  2  0  0  0
 10 24  1  0  0  0
 24 25  2  0  0  0
 25 26  1  0  0  0
 26 27  2  0  0  0
 27 28  1  0  0  0
 28 29  2  0  0  0
 27 30  1  0  0  0
 30 31  2  0  0  0
 31 32  1  0  0  0
 32 33  2  0  0  0
 33 34  1  0  0  0
 34 35  2  0  0  0
  7  2  1  0  0  0
 17 12  1  0  0  0
 23 18  1  0  0  0
 29 24  1  0  0  0
 35 30  1  0  0  0
M  END
> <minimizedAffinity>
-4.18430

> <CNNscore>
0.3745606542

> <CNNaffinity>
5.5127649307

> <CNN_VS>
2.0648648739

> <CNNaffinity_variance>
1.0709574223

$$$$
[H]c1c([H])c([H])c(-c2c([H])c([H])c(C(=O)N3C([H])([H])C([H])([H])N(C(=O)c4c([H])c([H])c(-c5c([H])c([H])c([H])c([H])c5[H])c([H])c4[H])[C@]([H])(C([H])([H])[H])C3([H])[H])c([H])c2[H])c([H])c1[H]


 35 39  0  0  0  0  0  0  0  0999 V2000
  -93.4802   30.2721   -1.4958 C   0  0  0  0  0  0  0  0  0  0  0  0
  -92.0474   30.0558   -1.2403 C   0  0  0  0  0  0  0  0  0  0  0  0
  -91.1721   30.7967   -2.2400 C   0  0  0  0  0  0  0  0  0  0  0  0
  -91.2916   30.2014   -3.5240 N   0  0  0  0  0  0  0  0  0  0  0  0
  -91.9285   28.8555   -3.6102 C   0  0  0  0  0  0  0  0  0  0  0  0
  -91.3376   28.0186   -2.4950 C   0  0  0  0  0  0  0  0  0  0  0  0
  -91.6296   28.6367   -1.2387 N   0  0  0  0  0  0  0  0  0  0  0  0
  -91.6070   27.9820   -0.0104 C   0  0  0  0  0  0  0  0  0  0  0  0
  -92.0369   28.7102    1.0007 O   0  0  0  0  0  0  0  0  0  0  0  0
  -90.8518   30.7688   -4.7241 C   0  0  0  0  0  0  0  0  0  0  0  0
  -91.1386   30.0018   -5.7564 O   0  0  0  0  0  0  0  0  0  0  0  0
  -91.1877   26.6415    0.2949 C   0  0  0  0  0  0  0  0  0  0  0  0
  -92.1869   25.6380    0.4120 C   0  0  0  0  0  0  0  0  0  0  0  0
  -91.8947   24.3519    0.7572 C   0  0  0  0  0  0  0  0  0  0  0  0
  -90.6140   23.9365    1.0158 C   0  0  0  0  0  0  0  0  0  0  0  0
  -89.6342   24.8841    0.9106 C   0  0  0  0  0  0  0  0  0  0  0  0
  -89.9189   26.2216    0.5548 C   0  0  0  0  0  0  0  0  0  0  0  0
  -90.3597   22.5546    1.3804 C   0  0  0  0  0  0  0  0  0  0  0  0
  -90.0024   21.5986    0.4424 C   0  0  0  0  0  0  0  0  0  0  0  0
  -89.7628   20.2878    0.7922 C   0  0  0  0  0  0  0  0  0  0  0  0
  -89.8719   19.8792    2.1036 C   0  0  0  0  0  0  0  0  0  0  0  0
  -90.2269   20.8256    3.0404 C   0  0  0  0  0  0  0  0  0  0  0  0
  -90.4668   22.1384    2.6897 C   0  0  0  0  0  0  0  0  0  0  0  0
  -90.1788   31.9891   -4.9811 C   0  0  0  0  0  0  0  0  0  0  0  0
  -88.8071   32.0793   -4.6467 C   0  0  0  0  0  0  0  0  0  0  0  0
  -88.0665   33.2200   -4.8124 C   0  0  0  0  0  0  0  0  0  0  0  0
  -88.6364   34.3574   -5.3237 C   0  0  0  0  0  0  0  0  0  0  0  0
  -89.9587   34.3075   -5.6571 C   0  0  0  0  0  0  0  0  0  0  0  0
  -90.7234   33.1264   -5.4845 C   0  0  0  0  0  0  0  0  0  0  0  0
  -87.8523   35.5915   -5.5126 C   0  0  0  0  0  0  0  0  0  0  0  0
  -87.1349   36.1774   -4.4920 C   0  0  0  0  0  0  0  0  0  0  0  0
  -86.4014   37.3442   -4.7010 C   0  0  0  0  0  0  0  0  0  0  0  0
  -86.3925   37.9235   -5.9512 C   0  0  0  0  0  0  0  0  0  0  0  0
  -87.1082   37.3412   -6.9731 C   0  0  0  0  0  0  0  0  0  0  0  0
  -87.8404   36.1728   -6.7565 C   0  0  0  0  0  0  0  0  0  0  0  0
  1  2  1  0  0  0
  2  3  1  0  0  0
  3  4  1  0  0  0
  4  5  1  0  0  0
  5  6  1  0  0  0
  6  7  1  0  0  0
  7  8  1  0  0  0
  8  9  2  0  0  0
  8 12  1  0  0  0
 12 13  2  0  0  0
 13 14  1  0  0  0
 14 15  2  0  0  0
 15 16  1  0  0  0
 16 17  2  0  0  0
 15 18  1  0  0  0
 18 19  2  0  0  0
 19 20  1  0  0  0
 20 21  2  0  0  0
 21 22  1  0  0  0
 22 23  2  0  0  0
  4 10  1  0  0  0
 10 11  2  0  0  0
 10 24  1  0  0  0
 24 25  2  0  0  0
 25 26  1  0  0  0
 26 27  2  0  0  0
 27 28  1  0  0  0
 28 29  2  0  0  0
 27 30  1  0  0  0
 30 31  2  0  0  0
 31 32  1  0  0  0
 32 33  2  0  0  0
 33 34  1  0  0  0
 34 35  2  0  0  0
  7  2  1  0  0  0
 17 12  1  0  0  0
 23 18  1  0  0  0
 29 24  1  0  0  0
 35 30  1  0  0  0
M  END
> <minimizedAffinity>
-4.80269

> <CNNscore>
0.3307563961

> <CNNaffinity>
5.1976790428

> <CNN_VS>
1.7191655636

> <CNNaffinity_variance>
0.9469114542

$$$$
[H]c1c([H])c([H])c(-c2c([H])c([H])c(C(=O)N3C([H])([H])C([H])([H])N(C(=O)c4c([H])c([H])c(-c5c([H])c([H])c([H])c([H])c5[H])c([H])c4[H])[C@]([H])(C([H])([H])[H])C3([H])[H])c([H])c2[H])c([H])c1[H]


 35 39  0  0  0  0  0  0  0  0999 V2000
  -91.7460   28.8113   -3.0809 C   0  0  0  0  0  0  0  0  0  0  0  0
  -91.3870   29.3510   -1.7600 C   0  0  0  0  0  0  0  0  0  0  0  0
  -90.5754   30.6331   -1.8696 C   0  0  0  0  0  0  0  0  0  0  0  0
  -89.2830   30.3466   -2.3844 N   0  0  0  0  0  0  0  0  0  0  0  0
  -88.8442   28.9213   -2.4085 C   0  0  0  0  0  0  0  0  0  0  0  0
  -89.2200   28.3241   -1.0687 C   0  0  0  0  0  0  0  0  0  0  0  0
  -90.6368   28.4140   -0.8952 N   0  0  0  0  0  0  0  0  0  0  0  0
  -91.3763   27.6373   -0.0076 C   0  0  0  0  0  0  0  0  0  0  0  0
  -92.6813   27.7938   -0.1068 O   0  0  0  0  0  0  0  0  0  0  0  0
  -88.3746   31.2942   -2.8664 C   0  0  0  0  0  0  0  0  0  0  0  0
  -87.2753   30.7256   -3.3181 O   0  0  0  0  0  0  0  0  0  0  0  0
  -90.9140   26.7029    0.9819 C   0  0  0  0  0  0  0  0  0  0  0  0
  -89.9911   27.1645    1.9587 C   0  0  0  0  0  0  0  0  0  0  0  0
  -89.4498   26.3406    2.9004 C   0  0  0  0  0  0  0  0  0  0  0  0
  -89.7590   25.0068    2.9705 C   0  0  0  0  0  0  0  0  0  0  0  0
  -90.6447   24.5378    2.0406 C   0  0  0  0  0  0  0  0  0  0  0  0
  -91.2147   25.3772    1.0571 C   0  0  0  0  0  0  0  0  0  0  0  0
  -89.1522   24.1746    3.9937 C   0  0  0  0  0  0  0  0  0  0  0  0
  -88.4796   24.7140    5.0792 C   0  0  0  0  0  0  0  0  0  0  0  0
  -87.9043   23.9209    6.0477 C   0  0  0  0  0  0  0  0  0  0  0  0
  -87.9798   22.5475    5.9675 C   0  0  0  0  0  0  0  0  0  0  0  0
  -88.6474   22.0059    4.8903 C   0  0  0  0  0  0  0  0  0  0  0  0
  -89.2235   22.8004    3.9205 C   0  0  0  0  0  0  0  0  0  0  0  0
  -88.4598   32.7068   -2.9399 C   0  0  0  0  0  0  0  0  0  0  0  0
  -89.3019   33.2753   -3.9244 C   0  0  0  0  0  0  0  0  0  0  0  0
  -89.4309   34.6261   -4.1142 C   0  0  0  0  0  0  0  0  0  0  0  0
  -88.7307   35.5129   -3.3376 C   0  0  0  0  0  0  0  0  0  0  0  0
  -87.9075   35.0001   -2.3776 C   0  0  0  0  0  0  0  0  0  0  0  0
  -87.7750   33.6022   -2.1831 C   0  0  0  0  0  0  0  0  0  0  0  0
  -88.8617   36.9692   -3.5258 C   0  0  0  0  0  0  0  0  0  0  0  0
  -87.8340   37.8469   -3.2558 C   0  0  0  0  0  0  0  0  0  0  0  0
  -87.9869   39.2196   -3.4449 C   0  0  0  0  0  0  0  0  0  0  0  0
  -89.1878   39.7091   -3.9108 C   0  0  0  0  0  0  0  0  0  0  0  0
  -90.2168   38.8352   -4.1813 C   0  0  0  0  0  0  0  0  0  0  0  0
  -90.0564   37.4621   -3.9896 C   0  0  0  0  0  0  0  0  0  0  0  0
  1  2  1  0  0  0
  2  3  1  0  0  0
  3  4  1  0  0  0
  4  5  1  0  0  0
  5  6  1  0  0  0
  6  7  1  0  0  0
  7  8  1  0  0  0
  8  9  2  0  0  0
  8 12  1  0  0  0
 12 13  2  0  0  0
 13 14  1  0  0  0
 14 15  2  0  0  0
 15 16  1  0  0  0
 16 17  2  0  0  0
 15 18  1  0  0  0
 18 19  2  0  0  0
 19 20  1  0  0  0
 20 21  2  0  0  0
 21 22  1  0  0  0
 22 23  2  0  0  0
  4 10  1  0  0  0
 10 11  2  0  0  0
 10 24  1  0  0  0
 24 25  2  0  0  0
 25 26  1  0  0  0
 26 27  2  0  0  0
 27 28  1  0  0  0
 28 29  2  0  0  0
 27 30  1  0  0  0
 30 31  2  0  0  0
 31 32  1  0  0  0
 32 33  2  0  0  0
 33 34  1  0  0  0
 34 35  2  0  0  0
  7  2  1  0  0  0
 17 12  1  0  0  0
 23 18  1  0  0  0
 29 24  1  0  0  0
 35 30  1  0  0  0
M  END
> <minimizedAffinity>
-6.34331

> <CNNscore>
0.3078629076

> <CNNaffinity>
5.4416937828

> <CNN_VS>
1.6752957106

> <CNNaffinity_variance>
0.5488378406

$$$$
[H]c1c([H])c([H])c(-c2c([H])c([H])c(C(=O)N3C([H])([H])C([H])([H])N(C(=O)c4c([H])c([H])c(-c5c([H])c([H])c([H])c([H])c5[H])c([H])c4[H])[C@]([H])(C([H])([H])[H])C3([H])[H])c([H])c2[H])c([H])c1[H]


 35 39  0  0  0  0  0  0  0  0999 V2000
  -91.6546   27.4757   -4.2483 C   0  0  0  0  0  0  0  0  0  0  0  0
  -91.8818   28.3486   -3.0859 C   0  0  0  0  0  0  0  0  0  0  0  0
  -91.5656   29.8041   -3.3957 C   0  0  0  0  0  0  0  0  0  0  0  0
  -90.1653   29.9707   -3.5659 N   0  0  0  0  0  0  0  0  0  0  0  0
  -89.2732   28.8641   -3.1142 C   0  0  0  0  0  0  0  0  0  0  0  0
  -89.7729   28.4257   -1.7535 C   0  0  0  0  0  0  0  0  0  0  0  0
  -91.1231   27.9696   -1.8737 N   0  0  0  0  0  0  0  0  0  0  0  0
  -91.7630   27.1405   -0.9565 C   0  0  0  0  0  0  0  0  0  0  0  0
  -92.9609   26.7385   -1.3319 O   0  0  0  0  0  0  0  0  0  0  0  0
  -89.5445   31.0961   -4.1168 C   0  0  0  0  0  0  0  0  0  0  0  0
  -88.2375   30.9438   -4.1847 O   0  0  0  0  0  0  0  0  0  0  0  0
  -91.2979   26.6713    0.3199 C   0  0  0  0  0  0  0  0  0  0  0  0
  -90.9897   27.6367    1.3160 C   0  0  0  0  0  0  0  0  0  0  0  0
  -90.4858   27.2940    2.5355 C   0  0  0  0  0  0  0  0  0  0  0  0
  -90.2411   25.9914    2.8864 C   0  0  0  0  0  0  0  0  0  0  0  0
  -90.5288   25.0433    1.9444 C   0  0  0  0  0  0  0  0  0  0  0  0
  -91.0506   25.3805    0.6753 C   0  0  0  0  0  0  0  0  0  0  0  0
  -89.7027   25.6829    4.1988 C   0  0  0  0  0  0  0  0  0  0  0  0
  -89.9474   26.4846    5.3028 C   0  0  0  0  0  0  0  0  0  0  0  0
  -89.4339   26.1890    6.5466 C   0  0  0  0  0  0  0  0  0  0  0  0
  -88.6499   25.0718    6.7358 C   0  0  0  0  0  0  0  0  0  0  0  0
  -88.4034   24.2712    5.6415 C   0  0  0  0  0  0  0  0  0  0  0  0
  -88.9178   24.5676    4.3959 C   0  0  0  0  0  0  0  0  0  0  0  0
  -90.0879   32.3153   -4.5926 C   0  0  0  0  0  0  0  0  0  0  0  0
  -91.4780   32.5312   -4.4423 C   0  0  0  0  0  0  0  0  0  0  0  0
  -92.1183   33.6526   -4.9001 C   0  0  0  0  0  0  0  0  0  0  0  0
  -91.4222   34.6439   -5.5426 C   0  0  0  0  0  0  0  0  0  0  0  0
  -90.0788   34.4693   -5.7062 C   0  0  0  0  0  0  0  0  0  0  0  0
  -89.4182   33.3082   -5.2322 C   0  0  0  0  0  0  0  0  0  0  0  0
  -92.0953   35.8587   -6.0372 C   0  0  0  0  0  0  0  0  0  0  0  0
  -91.4114   36.8902   -6.6438 C   0  0  0  0  0  0  0  0  0  0  0  0
  -92.0755   38.0266   -7.1029 C   0  0  0  0  0  0  0  0  0  0  0  0
  -93.4415   38.1215   -6.9480 C   0  0  0  0  0  0  0  0  0  0  0  0
  -94.1279   37.0931   -6.3423 C   0  0  0  0  0  0  0  0  0  0  0  0
  -93.4563   35.9582   -5.8850 C   0  0  0  0  0  0  0  0  0  0  0  0
  1  2  1  0  0  0
  2  3  1  0  0  0
  3  4  1  0  0  0
  4  5  1  0  0  0
  5  6  1  0  0  0
  6  7  1  0  0  0
  7  8  1  0  0  0
  8  9  2  0  0  0
  8 12  1  0  0  0
 12 13  2  0  0  0
 13 14  1  0  0  0
 14 15  2  0  0  0
 15 16  1  0  0  0
 16 17  2  0  0  0
 15 18  1  0  0  0
 18 19  2  0  0  0
 19 20  1  0  0  0
 20 21  2  0  0  0
 21 22  1  0  0  0
 22 23  2  0  0  0
  4 10  1  0  0  0
 10 11  2  0  0  0
 10 24  1  0  0  0
 24 25  2  0  0  0
 25 26  1  0  0  0
 26 27  2  0  0  0
 27 28  1  0  0  0
 28 29  2  0  0  0
 27 30  1  0  0  0
 30 31  2  0  0  0
 31 32  1  0  0  0
 32 33  2  0  0  0
 33 34  1  0  0  0
 34 35  2  0  0  0
  7  2  1  0  0  0
 17 12  1  0  0  0
 23 18  1  0  0  0
 29 24  1  0  0  0
 35 30  1  0  0  0
M  END
> <minimizedAffinity>
-5.89943

> <CNNscore>
0.2651542425

> <CNNaffinity>
5.4183549881

> <CNN_VS>
1.4366998672

> <CNNaffinity_variance>
0.2388116568

$$$$
[H]c1c([H])c([H])c(-c2c([H])c([H])c(C(=O)N3C([H])([H])C([H])([H])N(C(=O)c4c([H])c([H])c(-c5c([H])c([H])c([H])c([H])c5[H])c([H])c4[H])[C@]([H])(C([H])([H])[H])C3([H])[H])c([H])c2[H])c([H])c1[H]


 35 39  0  0  0  0  0  0  0  0999 V2000
  -91.8135   29.3943   -4.1540 C   0  0  0  0  0  0  0  0  0  0  0  0
  -91.5460   30.3129   -3.0363 C   0  0  0  0  0  0  0  0  0  0  0  0
  -90.7871   31.5523   -3.4863 C   0  0  0  0  0  0  0  0  0  0  0  0
  -89.4589   31.2028   -3.8484 N   0  0  0  0  0  0  0  0  0  0  0  0
  -88.9572   29.8590   -3.4398 C   0  0  0  0  0  0  0  0  0  0  0  0
  -89.3739   29.6552   -1.9982 C   0  0  0  0  0  0  0  0  0  0  0  0
  -90.8002   29.7109   -1.9094 N   0  0  0  0  0  0  0  0  0  0  0  0
  -91.5491   29.1839   -0.8607 C   0  0  0  0  0  0  0  0  0  0  0  0
  -92.8530   29.2306   -1.0479 O   0  0  0  0  0  0  0  0  0  0  0  0
  -88.5697   32.0202   -4.5533 C   0  0  0  0  0  0  0  0  0  0  0  0
  -87.4249   31.4086   -4.7797 O   0  0  0  0  0  0  0  0  0  0  0  0
  -91.0969   28.6040    0.3743 C   0  0  0  0  0  0  0  0  0  0  0  0
  -90.4885   27.3208    0.3279 C   0  0  0  0  0  0  0  0  0  0  0  0
  -90.0822   26.6631    1.4508 C   0  0  0  0  0  0  0  0  0  0  0  0
  -90.2327   27.1952    2.7053 C   0  0  0  0  0  0  0  0  0  0  0  0
  -90.8165   28.4294    2.7767 C   0  0  0  0  0  0  0  0  0  0  0  0
  -91.2443   29.1249    1.6235 C   0  0  0  0  0  0  0  0  0  0  0  0
  -89.7828   26.4505    3.8675 C   0  0  0  0  0  0  0  0  0  0  0  0
  -89.1645   25.2148    3.7570 C   0  0  0  0  0  0  0  0  0  0  0  0
  -88.7398   24.5107    4.8624 C   0  0  0  0  0  0  0  0  0  0  0  0
  -88.9183   25.0190    6.1306 C   0  0  0  0  0  0  0  0  0  0  0  0
  -89.5326   26.2473    6.2462 C   0  0  0  0  0  0  0  0  0  0  0  0
  -89.9578   26.9522    5.1389 C   0  0  0  0  0  0  0  0  0  0  0  0
  -88.7130   33.3437   -5.0390 C   0  0  0  0  0  0  0  0  0  0  0  0
  -89.8200   33.6343   -5.8706 C   0  0  0  0  0  0  0  0  0  0  0  0
  -90.0372   34.8662   -6.4297 C   0  0  0  0  0  0  0  0  0  0  0  0
  -89.1678   35.9018   -6.2029 C   0  0  0  0  0  0  0  0  0  0  0  0
  -88.0875   35.6577   -5.4056 C   0  0  0  0  0  0  0  0  0  0  0  0
  -87.8643   34.3825   -4.8284 C   0  0  0  0  0  0  0  0  0  0  0  0
  -89.3895   37.2344   -6.7933 C   0  0  0  0  0  0  0  0  0  0  0  0
  -89.7305   38.3337   -6.0349 C   0  0  0  0  0  0  0  0  0  0  0  0
  -89.9324   39.5821   -6.6213 C   0  0  0  0  0  0  0  0  0  0  0  0
  -89.7886   39.7209   -7.9847 C   0  0  0  0  0  0  0  0  0  0  0  0
  -89.4483   38.6249   -8.7454 C   0  0  0  0  0  0  0  0  0  0  0  0
  -89.2476   37.3780   -8.1514 C   0  0  0  0  0  0  0  0  0  0  0  0
  1  2  1  0  0  0
  2  3  1  0  0  0
  3  4  1  0  0  0
  4  5  1  0  0  0
  5  6  1  0  0  0
  6  7  1  0  0  0
  7  8  1  0  0  0
  8  9  2  0  0  0
  8 12  1  0  0  0
 12 13  2  0  0  0
 13 14  1  0  0  0
 14 15  2  0  0  0
 15 16  1  0  0  0
 16 17  2  0  0  0
 15 18  1  0  0  0
 18 19  2  0  0  0
 19 20  1  0  0  0
 20 21  2  0  0  0
 21 22  1  0  0  0
 22 23  2  0  0  0
  4 10  1  0  0  0
 10 11  2  0  0  0
 10 24  1  0  0  0
 24 25  2  0  0  0
 25 26  1  0  0  0
 26 27  2  0  0  0
 27 28  1  0  0  0
 28 29  2  0  0  0
 27 30  1  0  0  0
 30 31  2  0  0  0
 31 32  1  0  0  0
 32 33  2  0  0  0
 33 34  1  0  0  0
 34 35  2  0  0  0
  7  2  1  0  0  0
 17 12  1  0  0  0
 23 18  1  0  0  0
 29 24  1  0  0  0
 35 30  1  0  0  0
M  END
> <minimizedAffinity>
-7.83623

> <CNNscore>
0.2603611052

> <CNNaffinity>
5.5585541725

> <CNN_VS>
1.4472312927

> <CNNaffinity_variance>
0.0779404491

$$$$
[H]c1c([H])c([H])c(-c2c([H])c([H])c(C(=O)N3C([H])([H])C([H])([H])N(C(=O)c4c([H])c([H])c(-c5c([H])c([H])c([H])c([H])c5[H])c([H])c4[H])[C@]([H])(C([H])([H])[H])C3([H])[H])c([H])c2[H])c([H])c1[H]


 35 39  0  0  0  0  0  0  0  0999 V2000
  -89.9014   29.7470   -1.0863 C   0  0  0  0  0  0  0  0  0  0  0  0
  -90.1522   29.0779   -2.3724 C   0  0  0  0  0  0  0  0  0  0  0  0
  -90.6617   30.0466   -3.4291 C   0  0  0  0  0  0  0  0  0  0  0  0
  -91.9781   30.4699   -3.1046 N   0  0  0  0  0  0  0  0  0  0  0  0
  -92.7180   29.7029   -2.0610 C   0  0  0  0  0  0  0  0  0  0  0  0
  -92.5009   28.2343   -2.3598 C   0  0  0  0  0  0  0  0  0  0  0  0
  -91.1014   27.9453   -2.3026 N   0  0  0  0  0  0  0  0  0  0  0  0
  -90.5623   26.6740   -2.1255 C   0  0  0  0  0  0  0  0  0  0  0  0
  -89.2534   26.6562   -1.9709 O   0  0  0  0  0  0  0  0  0  0  0  0
  -92.6502   31.5472   -3.6903 C   0  0  0  0  0  0  0  0  0  0  0  0
  -93.8409   31.7245   -3.1548 O   0  0  0  0  0  0  0  0  0  0  0  0
  -91.2319   25.4028   -2.0868 C   0  0  0  0  0  0  0  0  0  0  0  0
  -92.0606   25.0491   -3.1854 C   0  0  0  0  0  0  0  0  0  0  0  0
  -92.7832   23.8934   -3.2142 C   0  0  0  0  0  0  0  0  0  0  0  0
  -92.7604   22.9903   -2.1829 C   0  0  0  0  0  0  0  0  0  0  0  0
  -91.9706   23.3082   -1.1132 C   0  0  0  0  0  0  0  0  0  0  0  0
  -91.2158   24.5017   -1.0662 C   0  0  0  0  0  0  0  0  0  0  0  0
  -93.5506   21.7753   -2.2655 C   0  0  0  0  0  0  0  0  0  0  0  0
  -93.8658   21.1821   -3.4781 C   0  0  0  0  0  0  0  0  0  0  0  0
  -94.6169   20.0296   -3.5524 C   0  0  0  0  0  0  0  0  0  0  0  0
  -95.0853   19.4210   -2.4084 C   0  0  0  0  0  0  0  0  0  0  0  0
  -94.7748   20.0066   -1.2001 C   0  0  0  0  0  0  0  0  0  0  0  0
  -94.0226   21.1609   -1.1260 C   0  0  0  0  0  0  0  0  0  0  0  0
  -92.2568   32.4351   -4.7223 C   0  0  0  0  0  0  0  0  0  0  0  0
  -91.2754   33.4104   -4.4270 C   0  0  0  0  0  0  0  0  0  0  0  0
  -90.8484   34.3454   -5.3329 C   0  0  0  0  0  0  0  0  0  0  0  0
  -91.3669   34.3797   -6.6016 C   0  0  0  0  0  0  0  0  0  0  0  0
  -92.3169   33.4539   -6.9220 C   0  0  0  0  0  0  0  0  0  0  0  0
  -92.7577   32.4876   -5.9832 C   0  0  0  0  0  0  0  0  0  0  0  0
  -90.9150   35.3763   -7.5896 C   0  0  0  0  0  0  0  0  0  0  0  0
  -89.9818   36.3457   -7.2911 C   0  0  0  0  0  0  0  0  0  0  0  0
  -89.5727   37.2743   -8.2469 C   0  0  0  0  0  0  0  0  0  0  0  0
  -90.1106   37.2228   -9.5145 C   0  0  0  0  0  0  0  0  0  0  0  0
  -91.0433   36.2560   -9.8162 C   0  0  0  0  0  0  0  0  0  0  0  0
  -91.4482   35.3295   -8.8541 C   0  0  0  0  0  0  0  0  0  0  0  0
  1  2  1  0  0  0
  2  3  1  0  0  0
  3  4  1  0  0  0
  4  5  1  0  0  0
  5  6  1  0  0  0
  6  7  1  0  0  0
  7  8  1  0  0  0
  8  9  2  0  0  0
  8 12  1  0  0  0
 12 13  2  0  0  0
 13 14  1  0  0  0
 14 15  2  0  0  0
 15 16  1  0  0  0
 16 17  2  0  0  0
 15 18  1  0  0  0
 18 19  2  0  0  0
 19 20  1  0  0  0
 20 21  2  0  0  0
 21 22  1  0  0  0
 22 23  2  0  0  0
  4 10  1  0  0  0
 10 11  2  0  0  0
 10 24  1  0  0  0
 24 25  2  0  0  0
 25 26  1  0  0  0
 26 27  2  0  0  0
 27 28  1  0  0  0
 28 29  2  0  0  0
 27 30  1  0  0  0
 30 31  2  0  0  0
 31 32  1  0  0  0
 32 33  2  0  0  0
 33 34  1  0  0  0
 34 35  2  0  0  0
  7  2  1  0  0  0
 17 12  1  0  0  0
 23 18  1  0  0  0
 29 24  1  0  0  0
 35 30  1  0  0  0
M  END
> <minimizedAffinity>
-6.00268

> <CNNscore>
0.1846821457

> <CNNaffinity>
4.8775815964

> <CNN_VS>
0.9008022547

> <CNNaffinity_variance>
0.2550397217

$$$$
[H]c1c([H])c([H])c(-c2c([H])c([H])c(C(=O)N3C([H])([H])C([H])([H])N(C(=O)c4c([H])c([H])c(-c5c([H])c([H])c([H])c([H])c5[H])c([H])c4[H])[C@]([H])(C([H])([H])[H])C3([H])[H])c([H])c2[H])c([H])c1[H]


 35 39  0  0  0  0  0  0  0  0999 V2000
  -92.1973   29.5082   -3.9940 C   0  0  0  0  0  0  0  0  0  0  0  0
  -91.8202   30.4525   -2.9306 C   0  0  0  0  0  0  0  0  0  0  0  0
  -92.0492   31.8983   -3.3448 C   0  0  0  0  0  0  0  0  0  0  0  0
  -91.1179   32.2678   -4.3515 N   0  0  0  0  0  0  0  0  0  0  0  0
  -89.9463   31.3729   -4.5774 C   0  0  0  0  0  0  0  0  0  0  0  0
  -89.4035   31.0080   -3.2116 C   0  0  0  0  0  0  0  0  0  0  0  0
  -90.4204   30.3314   -2.4676 N   0  0  0  0  0  0  0  0  0  0  0  0
  -90.1834   29.5133   -1.3664 C   0  0  0  0  0  0  0  0  0  0  0  0
  -91.2521   28.8870   -0.9157 O   0  0  0  0  0  0  0  0  0  0  0  0
  -91.2000   33.4127   -5.1502 C   0  0  0  0  0  0  0  0  0  0  0  0
  -90.2156   33.4653   -6.0244 O   0  0  0  0  0  0  0  0  0  0  0  0
  -88.9506   29.2636   -0.6710 C   0  0  0  0  0  0  0  0  0  0  0  0
  -88.0558   30.3514   -0.4838 C   0  0  0  0  0  0  0  0  0  0  0  0
  -86.8374   30.2023    0.1096 C   0  0  0  0  0  0  0  0  0  0  0  0
  -86.3902   28.9901    0.5679 C   0  0  0  0  0  0  0  0  0  0  0  0
  -87.2330   27.9270    0.3987 C   0  0  0  0  0  0  0  0  0  0  0  0
  -88.4986   28.0632   -0.2148 C   0  0  0  0  0  0  0  0  0  0  0  0
  -85.0831   28.8880    1.1913 C   0  0  0  0  0  0  0  0  0  0  0  0
  -84.7457   27.8356    2.0280 C   0  0  0  0  0  0  0  0  0  0  0  0
  -83.5045   27.7427    2.6185 C   0  0  0  0  0  0  0  0  0  0  0  0
  -82.5453   28.7060    2.3934 C   0  0  0  0  0  0  0  0  0  0  0  0
  -82.8755   29.7546    1.5623 C   0  0  0  0  0  0  0  0  0  0  0  0
  -84.1187   29.8473    0.9710 C   0  0  0  0  0  0  0  0  0  0  0  0
  -92.1420   34.4713   -5.1594 C   0  0  0  0  0  0  0  0  0  0  0  0
  -93.3425   34.2915   -5.8861 C   0  0  0  0  0  0  0  0  0  0  0  0
  -94.3052   35.2598   -5.9987 C   0  0  0  0  0  0  0  0  0  0  0  0
  -94.1449   36.4808   -5.3959 C   0  0  0  0  0  0  0  0  0  0  0  0
  -92.9981   36.6903   -4.6866 C   0  0  0  0  0  0  0  0  0  0  0  0
  -92.0030   35.6874   -4.5717 C   0  0  0  0  0  0  0  0  0  0  0  0
  -95.1732   37.5317   -5.5034 C   0  0  0  0  0  0  0  0  0  0  0  0
  -95.9276   37.7169   -6.6420 C   0  0  0  0  0  0  0  0  0  0  0  0
  -96.8942   38.7187   -6.7139 C   0  0  0  0  0  0  0  0  0  0  0  0
  -97.1004   39.5398   -5.6267 C   0  0  0  0  0  0  0  0  0  0  0  0
  -96.3485   39.3580   -4.4878 C   0  0  0  0  0  0  0  0  0  0  0  0
  -95.3824   38.3528   -4.4230 C   0  0  0  0  0  0  0  0  0  0  0  0
  1  2  1  0  0  0
  2  3  1  0  0  0
  3  4  1  0  0  0
  4  5  1  0  0  0
  5  6  1  0  0  0
  6  7  1  0  0  0
  7  8  1  0  0  0
  8  9  2  0  0  0
  8 12  1  0  0  0
 12 13  2  0  0  0
 13 14  1  0  0  0
 14 15  2  0  0  0
 15 16  1  0  0  0
 16 17  2  0  0  0
 15 18  1  0  0  0
 18 19  2  0  0  0
 19 20  1  0  0  0
 20 21  2  0  0  0
 21 22  1  0  0  0
 22 23  2  0  0  0
  4 10  1  0  0  0
 10 11  2  0  0  0
 10 24  1  0  0  0
 24 25  2  0  0  0
 25 26  1  0  0  0
 26 27  2  0  0  0
 27 28  1  0  0  0
 28 29  2  0  0  0
 27 30  1  0  0  0
 30 31  2  0  0  0
 31 32  1  0  0  0
 32 33  2  0  0  0
 33 34  1  0  0  0
 34 35  2  0  0  0
  7  2  1  0  0  0
 17 12  1  0  0  0
 23 18  1  0  0  0
 29 24  1  0  0  0
 35 30  1  0  0  0
M  END
> <minimizedAffinity>
-8.01283

> <CNNscore>
0.1683350950

> <CNNaffinity>
5.3425617218

> <CNN_VS>
0.8993406296

> <CNNaffinity_variance>
0.4616586566

$$$$
[H]c1c([H])c([H])c(-c2c([H])c([H])c(C(=O)N3C([H])([H])C([H])([H])N(C(=O)c4c([H])c([H])c(-c5c([H])c([H])c([H])c([H])c5[H])c([H])c4[H])[C@]([H])(C([H])([H])[H])C3([H])[H])c([H])c2[H])c([H])c1[H]


 35 39  0  0  0  0  0  0  0  0999 V2000
  -90.3078   30.0261   -1.1584 C   0  0  0  0  0  0  0  0  0  0  0  0
  -90.2108   29.4961   -2.5275 C   0  0  0  0  0  0  0  0  0  0  0  0
  -90.3346   30.5937   -3.5737 C   0  0  0  0  0  0  0  0  0  0  0  0
  -91.6622   31.0983   -3.5925 N   0  0  0  0  0  0  0  0  0  0  0  0
  -92.7162   30.3093   -2.8917 C   0  0  0  0  0  0  0  0  0  0  0  0
  -92.5054   28.8593   -3.2741 C   0  0  0  0  0  0  0  0  0  0  0  0
  -91.2020   28.4474   -2.8535 N   0  0  0  0  0  0  0  0  0  0  0  0
  -90.8111   27.1239   -2.6697 C   0  0  0  0  0  0  0  0  0  0  0  0
  -89.6072   26.9805   -2.1527 O   0  0  0  0  0  0  0  0  0  0  0  0
  -92.0722   32.2765   -4.2244 C   0  0  0  0  0  0  0  0  0  0  0  0
  -93.3551   32.5077   -4.0332 O   0  0  0  0  0  0  0  0  0  0  0  0
  -91.5341   25.9163   -2.9610 C   0  0  0  0  0  0  0  0  0  0  0  0
  -92.5276   25.9594   -3.9759 C   0  0  0  0  0  0  0  0  0  0  0  0
  -93.3065   24.8834   -4.2828 C   0  0  0  0  0  0  0  0  0  0  0  0
  -93.1851   23.6827   -3.6323 C   0  0  0  0  0  0  0  0  0  0  0  0
  -92.2361   23.6160   -2.6505 C   0  0  0  0  0  0  0  0  0  0  0  0
  -91.4207   24.7213   -2.3187 C   0  0  0  0  0  0  0  0  0  0  0  0
  -94.0417   22.5695   -3.9991 C   0  0  0  0  0  0  0  0  0  0  0  0
  -93.7705   21.2691   -3.6029 C   0  0  0  0  0  0  0  0  0  0  0  0
  -94.5854   20.2152   -3.9537 C   0  0  0  0  0  0  0  0  0  0  0  0
  -95.7115   20.4224   -4.7202 C   0  0  0  0  0  0  0  0  0  0  0  0
  -95.9859   21.7134   -5.1169 C   0  0  0  0  0  0  0  0  0  0  0  0
  -95.1695   22.7688   -4.7653 C   0  0  0  0  0  0  0  0  0  0  0  0
  -91.3455   33.2143   -4.9994 C   0  0  0  0  0  0  0  0  0  0  0  0
  -90.4550   34.0868   -4.3308 C   0  0  0  0  0  0  0  0  0  0  0  0
  -89.7322   35.0587   -4.9714 C   0  0  0  0  0  0  0  0  0  0  0  0
  -89.8419   35.2349   -6.3266 C   0  0  0  0  0  0  0  0  0  0  0  0
  -90.6927   34.4112   -7.0048 C   0  0  0  0  0  0  0  0  0  0  0  0
  -91.4400   33.4066   -6.3402 C   0  0  0  0  0  0  0  0  0  0  0  0
  -89.0678   36.2727   -7.0317 C   0  0  0  0  0  0  0  0  0  0  0  0
  -89.6264   37.0919   -7.9890 C   0  0  0  0  0  0  0  0  0  0  0  0
  -88.8694   38.0660   -8.6382 C   0  0  0  0  0  0  0  0  0  0  0  0
  -87.5374   38.2135   -8.3174 C   0  0  0  0  0  0  0  0  0  0  0  0
  -86.9760   37.3968   -7.3617 C   0  0  0  0  0  0  0  0  0  0  0  0
  -87.7401   36.4237   -6.7158 C   0  0  0  0  0  0  0  0  0  0  0  0
  1  2  1  0  0  0
  2  3  1  0  0  0
  3  4  1  0  0  0
  4  5  1  0  0  0
  5  6  1  0  0  0
  6  7  1  0  0  0
  7  8  1  0  0  0
  8  9  2  0  0  0
  8 12  1  0  0  0
 12 13  2  0  0  0
 13 14  1  0  0  0
 14 15  2  0  0  0
 15 16  1  0  0  0
 16 17  2  0  0  0
 15 18  1  0  0  0
 18 19  2  0  0  0
 19 20  1  0  0  0
 20 21  2  0  0  0
 21 22  1  0  0  0
 22 23  2  0  0  0
  4 10  1  0  0  0
 10 11  2  0  0  0
 10 24  1  0  0  0
 24 25  2  0  0  0
 25 26  1  0  0  0
 26 27  2  0  0  0
 27 28  1  0  0  0
 28 29  2  0  0  0
 27 30  1  0  0  0
 30 31  2  0  0  0
 31 32  1  0  0  0
 32 33  2  0  0  0
 33 34  1  0  0  0
 34 35  2  0  0  0
  7  2  1  0  0  0
 17 12  1  0  0  0
 23 18  1  0  0  0
 29 24  1  0  0  0
 35 30  1  0  0  0
M  END
> <minimizedAffinity>
-6.82567

> <CNNscore>
0.1558293253

> <CNNaffinity>
4.9438028336

> <CNN_VS>
0.7703894377

> <CNNaffinity_variance>
0.2685381770

$$$$
[H]c1c([H])c([H])c(-c2c([H])c([H])c(C(=O)N([H])[C@]([H])(C(=O)N3C([H])([H])C([H])([H])N(C(=O)C([H])([H])[H])C([H])([H])C3([H])[H])C([H])([H])C([H])(C([H])([H])[H])C([H])([H])[H])c([H])c2[H])c([H])c1[H]


 32 34  0  0  0  0  0  0  0  0999 V2000
  -86.8998   29.6625   -0.5410 C   0  0  0  0  0  0  0  0  0  0  0  0
  -88.0566   29.0836    0.0613 C   0  0  0  0  0  0  0  0  0  0  0  0
  -88.9616   30.0445    0.3633 O   0  0  0  0  0  0  0  0  0  0  0  0
  -88.5517   27.8404    0.4436 N   0  0  0  0  0  0  0  0  0  0  0  0
  -87.9212   26.5646    0.4885 C   0  0  0  0  0  0  0  0  0  0  0  0
  -88.0708   25.8548    1.8541 C   0  0  0  0  0  0  0  0  0  0  0  0
  -89.3808   26.0333    2.3976 N   0  0  0  0  0  0  0  0  0  0  0  0
  -90.3925   26.5598    1.5215 C   0  0  0  0  0  0  0  0  0  0  0  0
  -90.0012   27.8039    0.8290 C   0  0  0  0  0  0  0  0  0  0  0  0
  -89.6793   25.7136    3.7278 C   0  0  0  0  0  0  0  0  0  0  0  0
  -91.0271   25.8830    4.3348 C   0  0  0  0  0  0  0  0  0  0  0  0
  -88.7302   25.2504    4.4502 O   0  0  0  0  0  0  0  0  0  0  0  0
  -87.2085   31.1094   -0.8253 N   0  0  0  0  0  0  0  0  0  0  0  0
  -87.5928   31.4577   -2.1215 C   0  0  0  0  0  0  0  0  0  0  0  0
  -87.6705   30.5594   -3.0168 O   0  0  0  0  0  0  0  0  0  0  0  0
  -87.1145   31.7684   -0.0264 H   0  0  0  0  0  0  0  0  0  0  0  0
  -87.9115   32.8151   -2.4981 C   0  0  0  0  0  0  0  0  0  0  0  0
  -86.9184   33.7511   -2.6155 C   0  0  0  0  0  0  0  0  0  0  0  0
  -87.2075   35.0685   -2.9771 C   0  0  0  0  0  0  0  0  0  0  0  0
  -88.5169   35.4180   -3.2168 C   0  0  0  0  0  0  0  0  0  0  0  0
  -89.5131   34.4831   -3.1001 C   0  0  0  0  0  0  0  0  0  0  0  0
  -89.2107   33.1940   -2.7438 C   0  0  0  0  0  0  0  0  0  0  0  0
  -88.8308   36.7787   -3.5897 C   0  0  0  0  0  0  0  0  0  0  0  0
  -88.0368   37.8470   -3.2265 C   0  0  0  0  0  0  0  0  0  0  0  0
  -88.3500   39.1444   -3.5905 C   0  0  0  0  0  0  0  0  0  0  0  0
  -89.4771   39.4143   -4.3354 C   0  0  0  0  0  0  0  0  0  0  0  0
  -90.2765   38.3645   -4.7043 C   0  0  0  0  0  0  0  0  0  0  0  0
  -89.9544   37.0705   -4.3353 C   0  0  0  0  0  0  0  0  0  0  0  0
  -85.5227   29.6202   -0.1172 C   0  0  0  0  0  0  0  0  0  0  0  0
  -85.2113   29.0999    2.2595 C   0  0  0  0  0  0  0  0  0  0  0  0
  -85.0744   30.1921    1.1717 C   0  0  0  0  0  0  0  0  0  0  0  0
  -83.5313   30.3810    1.0974 C   0  0  0  0  0  0  0  0  0  0  0  0
 30 31  1  0  0  0
 31 32  1  0  0  0
 31 29  1  0  0  0
 29  1  1  0  0  0
  1 13  1  0  0  0
 13 14  1  0  0  0
 14 15  2  0  0  0
 14 17  1  0  0  0
 17 18  2  0  0  0
 18 19  1  0  0  0
 19 20  2  0  0  0
 20 21  1  0  0  0
 21 22  2  0  0  0
 20 23  1  0  0  0
 23 24  2  0  0  0
 24 25  1  0  0  0
 25 26  2  0  0  0
 26 27  1  0  0  0
 27 28  2  0  0  0
  1  2  1  0  0  0
  2  3  2  0  0  0
  2  4  1  0  0  0
  4  5  1  0  0  0
  5  6  1  0  0  0
  6  7  1  0  0  0
  7  8  1  0  0  0
  8  9  1  0  0  0
  7 10  1  0  0  0
 10 11  1  0  0  0
 10 12  2  0  0  0
 22 17  1  0  0  0
 28 23  1  0  0  0
  9  4  1  0  0  0
 13 16  1  0  0  0
M  END
> <minimizedAffinity>
-8.13130

> <CNNscore>
0.1872116923

> <CNNaffinity>
5.9276490211

> <CNN_VS>
1.1097252369

> <CNNaffinity_variance>
0.1578467041

$$$$
[H]c1c([H])c([H])c(-c2c([H])c([H])c(C(=O)N([H])[C@]([H])(C(=O)N3C([H])([H])C([H])([H])N(C(=O)C([H])([H])[H])C([H])([H])C3([H])[H])C([H])([H])C([H])(C([H])([H])[H])C([H])([H])[H])c([H])c2[H])c([H])c1[H]


 32 34  0  0  0  0  0  0  0  0999 V2000
  -87.3267   31.9143   -1.5665 C   0  0  0  0  0  0  0  0  0  0  0  0
  -87.3484   32.7550   -2.7193 C   0  0  0  0  0  0  0  0  0  0  0  0
  -86.1181   32.8160   -3.2815 O   0  0  0  0  0  0  0  0  0  0  0  0
  -88.2346   33.5399   -3.4510 N   0  0  0  0  0  0  0  0  0  0  0  0
  -89.5769   33.9266   -3.1751 C   0  0  0  0  0  0  0  0  0  0  0  0
  -89.8089   35.4518   -3.2785 C   0  0  0  0  0  0  0  0  0  0  0  0
  -89.1082   36.0151   -4.3899 N   0  0  0  0  0  0  0  0  0  0  0  0
  -88.5655   35.1017   -5.3593 C   0  0  0  0  0  0  0  0  0  0  0  0
  -87.7325   34.0307   -4.7769 C   0  0  0  0  0  0  0  0  0  0  0  0
  -88.9487   37.3982   -4.5395 C   0  0  0  0  0  0  0  0  0  0  0  0
  -88.2279   38.0274   -5.6787 C   0  0  0  0  0  0  0  0  0  0  0  0
  -89.4569   38.1512   -3.6384 O   0  0  0  0  0  0  0  0  0  0  0  0
  -87.9534   30.5987   -1.9488 N   0  0  0  0  0  0  0  0  0  0  0  0
  -89.0596   30.1601   -1.2187 C   0  0  0  0  0  0  0  0  0  0  0  0
  -89.5035   30.8702   -0.2630 O   0  0  0  0  0  0  0  0  0  0  0  0
  -87.5162   30.0916   -2.7445 H   0  0  0  0  0  0  0  0  0  0  0  0
  -89.7341   28.9154   -1.5045 C   0  0  0  0  0  0  0  0  0  0  0  0
  -90.8275   28.5377   -0.7711 C   0  0  0  0  0  0  0  0  0  0  0  0
  -91.4916   27.3373   -1.0318 C   0  0  0  0  0  0  0  0  0  0  0  0
  -91.0287   26.5303   -2.0460 C   0  0  0  0  0  0  0  0  0  0  0  0
  -89.9345   26.9060   -2.7819 C   0  0  0  0  0  0  0  0  0  0  0  0
  -89.2946   28.0882   -2.5117 C   0  0  0  0  0  0  0  0  0  0  0  0
  -91.7052   25.2839   -2.3254 C   0  0  0  0  0  0  0  0  0  0  0  0
  -92.5613   25.1309   -3.3964 C   0  0  0  0  0  0  0  0  0  0  0  0
  -93.2022   23.9317   -3.6512 C   0  0  0  0  0  0  0  0  0  0  0  0
  -93.0039   22.8398   -2.8348 C   0  0  0  0  0  0  0  0  0  0  0  0
  -92.1566   22.9749   -1.7667 C   0  0  0  0  0  0  0  0  0  0  0  0
  -91.5204   24.1787   -1.5205 C   0  0  0  0  0  0  0  0  0  0  0  0
  -86.2362   31.5981   -0.6784 C   0  0  0  0  0  0  0  0  0  0  0  0
  -84.8557   31.8876    1.3282 C   0  0  0  0  0  0  0  0  0  0  0  0
  -85.5967   32.6176    0.1824 C   0  0  0  0  0  0  0  0  0  0  0  0
  -84.4168   33.2430   -0.6171 C   0  0  0  0  0  0  0  0  0  0  0  0
 30 31  1  0  0  0
 31 32  1  0  0  0
 31 29  1  0  0  0
 29  1  1  0  0  0
  1 13  1  0  0  0
 13 14  1  0  0  0
 14 15  2  0  0  0
 14 17  1  0  0  0
 17 18  2  0  0  0
 18 19  1  0  0  0
 19 20  2  0  0  0
 20 21  1  0  0  0
 21 22  2  0  0  0
 20 23  1  0  0  0
 23 24  2  0  0  0
 24 25  1  0  0  0
 25 26  2  0  0  0
 26 27  1  0  0  0
 27 28  2  0  0  0
  1  2  1  0  0  0
  2  3  2  0  0  0
  2  4  1  0  0  0
  4  5  1  0  0  0
  5  6  1  0  0  0
  6  7  1  0  0  0
  7  8  1  0  0  0
  8  9  1  0  0  0
  7 10  1  0  0  0
 10 11  1  0  0  0
 10 12  2  0  0  0
 22 17  1  0  0  0
 28 23  1  0  0  0
  9  4  1  0  0  0
 13 16  1  0  0  0
M  END
> <minimizedAffinity>
-6.16292

> <CNNscore>
0.1443041712

> <CNNaffinity>
5.6036310196

> <CNN_VS>
0.8086273074

> <CNNaffinity_variance>
0.1164331436

$$$$
[H]c1c([H])c([H])c(-c2c([H])c([H])c(C(=O)N([H])[C@]([H])(C(=O)N3C([H])([H])C([H])([H])N(C(=O)C([H])([H])[H])C([H])([H])C3([H])[H])C([H])([H])C([H])(C([H])([H])[H])C([H])([H])[H])c([H])c2[H])c([H])c1[H]


 32 34  0  0  0  0  0  0  0  0999 V2000
  -91.4799   30.5991   -3.0769 C   0  0  0  0  0  0  0  0  0  0  0  0
  -92.3977   29.5123   -2.9637 C   0  0  0  0  0  0  0  0  0  0  0  0
  -92.2094   28.8561   -1.7944 O   0  0  0  0  0  0  0  0  0  0  0  0
  -93.4267   28.9059   -3.6780 N   0  0  0  0  0  0  0  0  0  0  0  0
  -93.8815   29.1179   -5.0105 C   0  0  0  0  0  0  0  0  0  0  0  0
  -93.9753   27.8166   -5.8405 C   0  0  0  0  0  0  0  0  0  0  0  0
  -94.4937   26.7347   -5.0633 N   0  0  0  0  0  0  0  0  0  0  0  0
  -95.0902   27.0595   -3.7955 C   0  0  0  0  0  0  0  0  0  0  0  0
  -94.2373   27.8928   -2.9247 C   0  0  0  0  0  0  0  0  0  0  0  0
  -94.4283   25.4080   -5.5064 C   0  0  0  0  0  0  0  0  0  0  0  0
  -94.9543   24.2521   -4.7314 C   0  0  0  0  0  0  0  0  0  0  0  0
  -93.8830   25.1924   -6.6437 O   0  0  0  0  0  0  0  0  0  0  0  0
  -90.1635   30.1470   -2.5005 N   0  0  0  0  0  0  0  0  0  0  0  0
  -89.8137   30.5978   -1.2263 C   0  0  0  0  0  0  0  0  0  0  0  0
  -90.6020   31.3678   -0.5937 O   0  0  0  0  0  0  0  0  0  0  0  0
  -89.5887   29.5180   -3.0967 H   0  0  0  0  0  0  0  0  0  0  0  0
  -88.5761   30.2227   -0.5831 C   0  0  0  0  0  0  0  0  0  0  0  0
  -88.4785   29.0318    0.0863 C   0  0  0  0  0  0  0  0  0  0  0  0
  -87.2908   28.6529    0.7155 C   0  0  0  0  0  0  0  0  0  0  0  0
  -86.2081   29.5003    0.6534 C   0  0  0  0  0  0  0  0  0  0  0  0
  -86.3030   30.6931   -0.0161 C   0  0  0  0  0  0  0  0  0  0  0  0
  -87.4774   31.0489   -0.6280 C   0  0  0  0  0  0  0  0  0  0  0  0
  -84.9732   29.1218    1.3021 C   0  0  0  0  0  0  0  0  0  0  0  0
  -84.8593   27.9786    2.0661 C   0  0  0  0  0  0  0  0  0  0  0  0
  -83.6706   27.6292    2.6814 C   0  0  0  0  0  0  0  0  0  0  0  0
  -82.5502   28.4200    2.5496 C   0  0  0  0  0  0  0  0  0  0  0  0
  -82.6464   29.5588    1.7942 C   0  0  0  0  0  0  0  0  0  0  0  0
  -83.8399   29.8995    1.1827 C   0  0  0  0  0  0  0  0  0  0  0  0
  -91.1596   31.4181   -4.2190 C   0  0  0  0  0  0  0  0  0  0  0  0
  -89.8020   32.7612   -5.7582 C   0  0  0  0  0  0  0  0  0  0  0  0
  -89.8593   32.1110   -4.3550 C   0  0  0  0  0  0  0  0  0  0  0  0
  -89.8847   33.3575   -3.4234 C   0  0  0  0  0  0  0  0  0  0  0  0
 30 31  1  0  0  0
 31 32  1  0  0  0
 31 29  1  0  0  0
 29  1  1  0  0  0
  1 13  1  0  0  0
 13 14  1  0  0  0
 14 15  2  0  0  0
 14 17  1  0  0  0
 17 18  2  0  0  0
 18 19  1  0  0  0
 19 20  2  0  0  0
 20 21  1  0  0  0
 21 22  2  0  0  0
 20 23  1  0  0  0
 23 24  2  0  0  0
 24 25  1  0  0  0
 25 26  2  0  0  0
 26 27  1  0  0  0
 27 28  2  0  0  0
  1  2  1  0  0  0
  2  3  2  0  0  0
  2  4  1  0  0  0
  4  5  1  0  0  0
  5  6  1  0  0  0
  6  7  1  0  0  0
  7  8  1  0  0  0
  8  9  1  0  0  0
  7 10  1  0  0  0
 10 11  1  0  0  0
 10 12  2  0  0  0
 22 17  1  0  0  0
 28 23  1  0  0  0
  9  4  1  0  0  0
 13 16  1  0  0  0
M  END
> <minimizedAffinity>
-7.49633

> <CNNscore>
0.1423105150

> <CNNaffinity>
5.3743257523

> <CNN_VS>
0.7648230791

> <CNNaffinity_variance>
0.2122687846

$$$$
[H]c1c([H])c([H])c(-c2c([H])c([H])c(C(=O)N([H])[C@]([H])(C(=O)N3C([H])([H])C([H])([H])N(C(=O)C([H])([H])[H])C([H])([H])C3([H])[H])C([H])([H])C([H])(C([H])([H])[H])C([H])([H])[H])c([H])c2[H])c([H])c1[H]


 32 34  0  0  0  0  0  0  0  0999 V2000
  -86.1174   29.4287   -0.0672 C   0  0  0  0  0  0  0  0  0  0  0  0
  -87.1950   28.6329    0.4244 C   0  0  0  0  0  0  0  0  0  0  0  0
  -87.0104   28.3473    1.7351 O   0  0  0  0  0  0  0  0  0  0  0  0
  -88.3788   28.0497   -0.0174 N   0  0  0  0  0  0  0  0  0  0  0  0
  -88.9179   27.9238   -1.3292 C   0  0  0  0  0  0  0  0  0  0  0  0
  -89.3178   26.4746   -1.6910 C   0  0  0  0  0  0  0  0  0  0  0  0
  -89.9382   25.8105   -0.5877 N   0  0  0  0  0  0  0  0  0  0  0  0
  -90.3421   26.6222    0.5288 C   0  0  0  0  0  0  0  0  0  0  0  0
  -89.2759   27.4995    1.0520 C   0  0  0  0  0  0  0  0  0  0  0  0
  -90.1487   24.4261   -0.5813 C   0  0  0  0  0  0  0  0  0  0  0  0
  -90.7897   23.6939    0.5441 C   0  0  0  0  0  0  0  0  0  0  0  0
  -89.7634   23.7664   -1.6077 O   0  0  0  0  0  0  0  0  0  0  0  0
  -86.6012   30.1377   -1.3053 N   0  0  0  0  0  0  0  0  0  0  0  0
  -87.3673   31.2937   -1.1446 C   0  0  0  0  0  0  0  0  0  0  0  0
  -87.6347   31.7129    0.0248 O   0  0  0  0  0  0  0  0  0  0  0  0
  -86.3305   29.7152   -2.2163 H   0  0  0  0  0  0  0  0  0  0  0  0
  -87.8785   32.0480   -2.2652 C   0  0  0  0  0  0  0  0  0  0  0  0
  -89.1973   31.9485   -2.6213 C   0  0  0  0  0  0  0  0  0  0  0  0
  -89.7092   32.6689   -3.7024 C   0  0  0  0  0  0  0  0  0  0  0  0
  -88.8626   33.4890   -4.4130 C   0  0  0  0  0  0  0  0  0  0  0  0
  -87.5420   33.5906   -4.0587 C   0  0  0  0  0  0  0  0  0  0  0  0
  -87.0566   32.8756   -2.9941 C   0  0  0  0  0  0  0  0  0  0  0  0
  -89.3785   34.2387   -5.5359 C   0  0  0  0  0  0  0  0  0  0  0  0
  -90.4694   33.8174   -6.2680 C   0  0  0  0  0  0  0  0  0  0  0  0
  -90.9519   34.5455   -7.3407 C   0  0  0  0  0  0  0  0  0  0  0  0
  -90.3522   35.7275   -7.7165 C   0  0  0  0  0  0  0  0  0  0  0  0
  -89.2677   36.1601   -6.9999 C   0  0  0  0  0  0  0  0  0  0  0  0
  -88.7928   35.4246   -5.9285 C   0  0  0  0  0  0  0  0  0  0  0  0
  -85.2730   30.3662    0.6298 C   0  0  0  0  0  0  0  0  0  0  0  0
  -83.1940   31.6063    1.0246 C   0  0  0  0  0  0  0  0  0  0  0  0
  -83.8002   30.2285    0.6656 C   0  0  0  0  0  0  0  0  0  0  0  0
  -83.4321   29.3788    1.9166 C   0  0  0  0  0  0  0  0  0  0  0  0
 30 31  1  0  0  0
 31 32  1  0  0  0
 31 29  1  0  0  0
 29  1  1  0  0  0
  1 13  1  0  0  0
 13 14  1  0  0  0
 14 15  2  0  0  0
 14 17  1  0  0  0
 17 18  2  0  0  0
 18 19  1  0  0  0
 19 20  2  0  0  0
 20 21  1  0  0  0
 21 22  2  0  0  0
 20 23  1  0  0  0
 23 24  2  0  0  0
 24 25  1  0  0  0
 25 26  2  0  0  0
 26 27  1  0  0  0
 27 28  2  0  0  0
  1  2  1  0  0  0
  2  3  2  0  0  0
  2  4  1  0  0  0
  4  5  1  0  0  0
  5  6  1  0  0  0
  6  7  1  0  0  0
  7  8  1  0  0  0
  8  9  1  0  0  0
  7 10  1  0  0  0
 10 11  1  0  0  0
 10 12  2  0  0  0
 22 17  1  0  0  0
 28 23  1  0  0  0
  9  4  1  0  0  0
 13 16  1  0  0  0
M  END
> <minimizedAffinity>
-7.94465

> <CNNscore>
0.1349880695

> <CNNaffinity>
5.7333192825

> <CNN_VS>
0.7739297152

> <CNNaffinity_variance>
0.1819220036

$$$$
[H]c1c([H])c([H])c(-c2c([H])c([H])c(C(=O)N([H])[C@]([H])(C(=O)N3C([H])([H])C([H])([H])N(C(=O)C([H])([H])[H])C([H])([H])C3([H])[H])C([H])([H])C([H])(C([H])([H])[H])C([H])([H])[H])c([H])c2[H])c([H])c1[H]


 32 34  0  0  0  0  0  0  0  0999 V2000
  -88.6188   27.4509    2.1889 C   0  0  0  0  0  0  0  0  0  0  0  0
  -87.3487   27.9948    1.8322 C   0  0  0  0  0  0  0  0  0  0  0  0
  -86.4297   27.7107    2.7851 O   0  0  0  0  0  0  0  0  0  0  0  0
  -86.7517   28.7322    0.8140 N   0  0  0  0  0  0  0  0  0  0  0  0
  -87.3235   29.3987   -0.3067 C   0  0  0  0  0  0  0  0  0  0  0  0
  -86.8837   30.8759   -0.4312 C   0  0  0  0  0  0  0  0  0  0  0  0
  -85.4973   31.0383   -0.1236 N   0  0  0  0  0  0  0  0  0  0  0  0
  -84.6965   29.8468   -0.0371 C   0  0  0  0  0  0  0  0  0  0  0  0
  -85.2540   28.8103    0.8548 C   0  0  0  0  0  0  0  0  0  0  0  0
  -84.9299   32.3008    0.0884 C   0  0  0  0  0  0  0  0  0  0  0  0
  -83.4935   32.5166    0.4106 C   0  0  0  0  0  0  0  0  0  0  0  0
  -85.7017   33.3172   -0.0034 O   0  0  0  0  0  0  0  0  0  0  0  0
  -89.2614   26.9280    0.9306 N   0  0  0  0  0  0  0  0  0  0  0  0
  -90.3564   27.6226    0.4134 C   0  0  0  0  0  0  0  0  0  0  0  0
  -90.7787   28.6630    1.0085 O   0  0  0  0  0  0  0  0  0  0  0  0
  -88.8431   26.0691    0.5197 H   0  0  0  0  0  0  0  0  0  0  0  0
  -91.0429   27.2064   -0.7871 C   0  0  0  0  0  0  0  0  0  0  0  0
  -91.8259   26.0826   -0.7811 C   0  0  0  0  0  0  0  0  0  0  0  0
  -92.4960   25.6639   -1.9324 C   0  0  0  0  0  0  0  0  0  0  0  0
  -92.3583   26.4028   -3.0853 C   0  0  0  0  0  0  0  0  0  0  0  0
  -91.5753   27.5282   -3.0942 C   0  0  0  0  0  0  0  0  0  0  0  0
  -90.9244   27.9244   -1.9543 C   0  0  0  0  0  0  0  0  0  0  0  0
  -93.0445   25.9796   -4.2850 C   0  0  0  0  0  0  0  0  0  0  0  0
  -92.9760   26.6899   -5.4658 C   0  0  0  0  0  0  0  0  0  0  0  0
  -93.6385   26.2727   -6.6064 C   0  0  0  0  0  0  0  0  0  0  0  0
  -94.3962   25.1221   -6.5997 C   0  0  0  0  0  0  0  0  0  0  0  0
  -94.4747   24.4050   -5.4350 C   0  0  0  0  0  0  0  0  0  0  0  0
  -93.8082   24.8307   -4.2996 C   0  0  0  0  0  0  0  0  0  0  0  0
  -88.9598   26.5177    3.2332 C   0  0  0  0  0  0  0  0  0  0  0  0
  -90.8158   25.0691    3.9213 C   0  0  0  0  0  0  0  0  0  0  0  0
  -90.2828   26.5218    3.8960 C   0  0  0  0  0  0  0  0  0  0  0  0
  -90.0560   26.8080    5.4090 C   0  0  0  0  0  0  0  0  0  0  0  0
 30 31  1  0  0  0
 31 32  1  0  0  0
 31 29  1  0  0  0
 29  1  1  0  0  0
  1 13  1  0  0  0
 13 14  1  0  0  0
 14 15  2  0  0  0
 14 17  1  0  0  0
 17 18  2  0  0  0
 18 19  1  0  0  0
 19 20  2  0  0  0
 20 21  1  0  0  0
 21 22  2  0  0  0
 20 23  1  0  0  0
 23 24  2  0  0  0
 24 25  1  0  0  0
 25 26  2  0  0  0
 26 27  1  0  0  0
 27 28  2  0  0  0
  1  2  1  0  0  0
  2  3  2  0  0  0
  2  4  1  0  0  0
  4  5  1  0  0  0
  5  6  1  0  0  0
  6  7  1  0  0  0
  7  8  1  0  0  0
  8  9  1  0  0  0
  7 10  1  0  0  0
 10 11  1  0  0  0
 10 12  2  0  0  0
 22 17  1  0  0  0
 28 23  1  0  0  0
  9  4  1  0  0  0
 13 16  1  0  0  0
M  END
> <minimizedAffinity>
-7.42539

> <CNNscore>
0.1318921745

> <CNNaffinity>
5.7954668999

> <CNN_VS>
0.7643767595

> <CNNaffinity_variance>
0.0289062802

$$$$
[H]c1c([H])c([H])c(-c2c([H])c([H])c(C(=O)N([H])[C@]([H])(C(=O)N3C([H])([H])C([H])([H])N(C(=O)C([H])([H])[H])C([H])([H])C3([H])[H])C([H])([H])C([H])(C([H])([H])[H])C([H])([H])[H])c([H])c2[H])c([H])c1[H]


 32 34  0  0  0  0  0  0  0  0999 V2000
  -90.1110   23.5850    0.1426 C   0  0  0  0  0  0  0  0  0  0  0  0
  -90.8436   23.7712   -1.0677 C   0  0  0  0  0  0  0  0  0  0  0  0
  -90.4563   22.8659   -1.9971 O   0  0  0  0  0  0  0  0  0  0  0  0
  -91.8310   24.5939   -1.6015 N   0  0  0  0  0  0  0  0  0  0  0  0
  -92.4295   25.7789   -1.0869 C   0  0  0  0  0  0  0  0  0  0  0  0
  -92.4031   26.9613   -2.0831 C   0  0  0  0  0  0  0  0  0  0  0  0
  -92.6837   26.5301   -3.4167 N   0  0  0  0  0  0  0  0  0  0  0  0
  -93.2061   25.2007   -3.5843 C   0  0  0  0  0  0  0  0  0  0  0  0
  -92.4118   24.1527   -2.9126 C   0  0  0  0  0  0  0  0  0  0  0  0
  -92.4622   27.3586   -4.5237 C   0  0  0  0  0  0  0  0  0  0  0  0
  -92.7395   26.9518   -5.9277 C   0  0  0  0  0  0  0  0  0  0  0  0
  -91.9949   28.5286   -4.3004 O   0  0  0  0  0  0  0  0  0  0  0  0
  -88.9337   24.5245    0.1128 N   0  0  0  0  0  0  0  0  0  0  0  0
  -89.0650   25.7642    0.7413 C   0  0  0  0  0  0  0  0  0  0  0  0
  -90.1586   26.0658    1.3138 O   0  0  0  0  0  0  0  0  0  0  0  0
  -88.0837   24.1860   -0.3818 H   0  0  0  0  0  0  0  0  0  0  0  0
  -87.9971   26.7360    0.7714 C   0  0  0  0  0  0  0  0  0  0  0  0
  -86.9341   26.5687    1.6188 C   0  0  0  0  0  0  0  0  0  0  0  0
  -85.8932   27.4984    1.6630 C   0  0  0  0  0  0  0  0  0  0  0  0
  -85.9495   28.5965    0.8352 C   0  0  0  0  0  0  0  0  0  0  0  0
  -87.0123   28.7665   -0.0142 C   0  0  0  0  0  0  0  0  0  0  0  0
  -88.0258   27.8433   -0.0440 C   0  0  0  0  0  0  0  0  0  0  0  0
  -84.8800   29.5680    0.8720 C   0  0  0  0  0  0  0  0  0  0  0  0
  -83.7078   29.3515    1.5668 C   0  0  0  0  0  0  0  0  0  0  0  0
  -82.6927   30.2910    1.5934 C   0  0  0  0  0  0  0  0  0  0  0  0
  -82.8209   31.4858    0.9196 C   0  0  0  0  0  0  0  0  0  0  0  0
  -83.9788   31.7165    0.2246 C   0  0  0  0  0  0  0  0  0  0  0  0
  -84.9882   30.7704    0.2042 C   0  0  0  0  0  0  0  0  0  0  0  0
  -90.5767   23.5659    1.5066 C   0  0  0  0  0  0  0  0  0  0  0  0
  -90.1845   21.1446    1.4950 C   0  0  0  0  0  0  0  0  0  0  0  0
  -90.9133   22.3080    2.2094 C   0  0  0  0  0  0  0  0  0  0  0  0
  -90.2024   22.3316    3.5938 C   0  0  0  0  0  0  0  0  0  0  0  0
 30 31  1  0  0  0
 31 32  1  0  0  0
 31 29  1  0  0  0
 29  1  1  0  0  0
  1 13  1  0  0  0
 13 14  1  0  0  0
 14 15  2  0  0  0
 14 17  1  0  0  0
 17 18  2  0  0  0
 18 19  1  0  0  0
 19 20  2  0  0  0
 20 21  1  0  0  0
 21 22  2  0  0  0
 20 23  1  0  0  0
 23 24  2  0  0  0
 24 25  1  0  0  0
 25 26  2  0  0  0
 26 27  1  0  0  0
 27 28  2  0  0  0
  1  2  1  0  0  0
  2  3  2  0  0  0
  2  4  1  0  0  0
  4  5  1  0  0  0
  5  6  1  0  0  0
  6  7  1  0  0  0
  7  8  1  0  0  0
  8  9  1  0  0  0
  7 10  1  0  0  0
 10 11  1  0  0  0
 10 12  2  0  0  0
 22 17  1  0  0  0
 28 23  1  0  0  0
  9  4  1  0  0  0
 13 16  1  0  0  0
M  END
> <minimizedAffinity>
-9.05048

> <CNNscore>
0.1297282875

> <CNNaffinity>
5.4934873581

> <CNN_VS>
0.7126607299

> <CNNaffinity_variance>
0.3506268561

$$$$
[H]c1c([H])c([H])c(-c2c([H])c([H])c(C(=O)N([H])[C@]([H])(C(=O)N3C([H])([H])C([H])([H])N(C(=O)C([H])([H])[H])C([H])([H])C3([H])[H])C([H])([H])C([H])(C([H])([H])[H])C([H])([H])[H])c([H])c2[H])c([H])c1[H]


 32 34  0  0  0  0  0  0  0  0999 V2000
  -86.8913   31.1047   -0.4367 C   0  0  0  0  0  0  0  0  0  0  0  0
  -87.0852   32.1547   -1.3834 C   0  0  0  0  0  0  0  0  0  0  0  0
  -87.0299   33.3599   -0.7686 O   0  0  0  0  0  0  0  0  0  0  0  0
  -87.3190   32.3355   -2.7433 N   0  0  0  0  0  0  0  0  0  0  0  0
  -87.6181   31.3919   -3.7668 C   0  0  0  0  0  0  0  0  0  0  0  0
  -88.8754   31.7577   -4.5891 C   0  0  0  0  0  0  0  0  0  0  0  0
  -88.9365   33.1601   -4.8587 N   0  0  0  0  0  0  0  0  0  0  0  0
  -87.7520   33.9339   -4.6002 C   0  0  0  0  0  0  0  0  0  0  0  0
  -87.1914   33.7427   -3.2476 C   0  0  0  0  0  0  0  0  0  0  0  0
  -90.0968   33.7683   -5.3532 C   0  0  0  0  0  0  0  0  0  0  0  0
  -90.2051   35.2226   -5.6477 C   0  0  0  0  0  0  0  0  0  0  0  0
  -91.1134   33.0190   -5.5590 O   0  0  0  0  0  0  0  0  0  0  0  0
  -87.5608   29.8698   -0.9809 N   0  0  0  0  0  0  0  0  0  0  0  0
  -88.9090   29.6661   -0.6812 C   0  0  0  0  0  0  0  0  0  0  0  0
  -89.5291   30.5142    0.0336 O   0  0  0  0  0  0  0  0  0  0  0  0
  -86.9679   29.2363   -1.5543 H   0  0  0  0  0  0  0  0  0  0  0  0
  -89.6441   28.5164   -1.1543 C   0  0  0  0  0  0  0  0  0  0  0  0
  -89.3653   27.9748   -2.3811 C   0  0  0  0  0  0  0  0  0  0  0  0
  -90.0663   26.8643   -2.8559 C   0  0  0  0  0  0  0  0  0  0  0  0
  -91.0512   26.3151   -2.0668 C   0  0  0  0  0  0  0  0  0  0  0  0
  -91.3323   26.8551   -0.8382 C   0  0  0  0  0  0  0  0  0  0  0  0
  -90.6337   27.9458   -0.3882 C   0  0  0  0  0  0  0  0  0  0  0  0
  -91.7863   25.1669   -2.5467 C   0  0  0  0  0  0  0  0  0  0  0  0
  -91.5372   23.8874   -2.0945 C   0  0  0  0  0  0  0  0  0  0  0  0
  -92.2489   22.7977   -2.5633 C   0  0  0  0  0  0  0  0  0  0  0  0
  -93.2400   22.9567   -3.5069 C   0  0  0  0  0  0  0  0  0  0  0  0
  -93.4999   24.2209   -3.9665 C   0  0  0  0  0  0  0  0  0  0  0  0
  -92.7825   25.3044   -3.4912 C   0  0  0  0  0  0  0  0  0  0  0  0
  -85.6813   30.6569    0.2061 C   0  0  0  0  0  0  0  0  0  0  0  0
  -84.7842   31.2141    2.4199 C   0  0  0  0  0  0  0  0  0  0  0  0
  -84.7741   31.5846    0.9174 C   0  0  0  0  0  0  0  0  0  0  0  0
  -83.3149   31.2302    0.5081 C   0  0  0  0  0  0  0  0  0  0  0  0
 30 31  1  0  0  0
 31 32  1  0  0  0
 31 29  1  0  0  0
 29  1  1  0  0  0
  1 13  1  0  0  0
 13 14  1  0  0  0
 14 15  2  0  0  0
 14 17  1  0  0  0
 17 18  2  0  0  0
 18 19  1  0  0  0
 19 20  2  0  0  0
 20 21  1  0  0  0
 21 22  2  0  0  0
 20 23  1  0  0  0
 23 24  2  0  0  0
 24 25  1  0  0  0
 25 26  2  0  0  0
 26 27  1  0  0  0
 27 28  2  0  0  0
  1  2  1  0  0  0
  2  3  2  0  0  0
  2  4  1  0  0  0
  4  5  1  0  0  0
  5  6  1  0  0  0
  6  7  1  0  0  0
  7  8  1  0  0  0
  8  9  1  0  0  0
  7 10  1  0  0  0
 10 11  1  0  0  0
 10 12  2  0  0  0
 22 17  1  0  0  0
 28 23  1  0  0  0
  9  4  1  0  0  0
 13 16  1  0  0  0
M  END
> <minimizedAffinity>
-7.83435

> <CNNscore>
0.1275744885

> <CNNaffinity>
5.4039716721

> <CNN_VS>
0.6894088984

> <CNNaffinity_variance>
0.4190149307

$$$$
[H]c1c([H])c([H])c(-c2c([H])c([H])c(C(=O)N([H])[C@]([H])(C(=O)N3C([H])([H])C([H])([H])N(C(=O)C([H])([H])[H])C([H])([H])C3([H])[H])C([H])([H])C([H])(C([H])([H])[H])C([H])([H])[H])c([H])c2[H])c([H])c1[H]


 32 34  0  0  0  0  0  0  0  0999 V2000
  -91.3959   31.5103   -3.7633 C   0  0  0  0  0  0  0  0  0  0  0  0
  -91.1005   32.5849   -4.6545 C   0  0  0  0  0  0  0  0  0  0  0  0
  -89.8258   32.4898   -5.1014 O   0  0  0  0  0  0  0  0  0  0  0  0
  -91.7066   33.7078   -5.2099 N   0  0  0  0  0  0  0  0  0  0  0  0
  -92.9611   34.3197   -4.9286 C   0  0  0  0  0  0  0  0  0  0  0  0
  -92.8533   35.8356   -4.6432 C   0  0  0  0  0  0  0  0  0  0  0  0
  -91.9204   36.4698   -5.5211 N   0  0  0  0  0  0  0  0  0  0  0  0
  -91.4680   35.7160   -6.6593 C   0  0  0  0  0  0  0  0  0  0  0  0
  -90.9555   34.3719   -6.3261 C   0  0  0  0  0  0  0  0  0  0  0  0
  -91.4571   37.7713   -5.2926 C   0  0  0  0  0  0  0  0  0  0  0  0
  -90.4873   38.4697   -6.1787 C   0  0  0  0  0  0  0  0  0  0  0  0
  -91.9013   38.3825   -4.2599 O   0  0  0  0  0  0  0  0  0  0  0  0
  -90.2453   31.3879   -2.7985 N   0  0  0  0  0  0  0  0  0  0  0  0
  -89.5190   30.1956   -2.7885 C   0  0  0  0  0  0  0  0  0  0  0  0
  -89.8420   29.2563   -3.5810 O   0  0  0  0  0  0  0  0  0  0  0  0
  -90.0612   32.2114   -2.1906 H   0  0  0  0  0  0  0  0  0  0  0  0
  -88.3984   29.9769   -1.9041 C   0  0  0  0  0  0  0  0  0  0  0  0
  -87.7763   28.7572   -1.8654 C   0  0  0  0  0  0  0  0  0  0  0  0
  -86.6924   28.5267   -1.0157 C   0  0  0  0  0  0  0  0  0  0  0  0
  -86.2524   29.5516   -0.2095 C   0  0  0  0  0  0  0  0  0  0  0  0
  -86.8731   30.7736   -0.2462 C   0  0  0  0  0  0  0  0  0  0  0  0
  -87.9362   30.9820   -1.0867 C   0  0  0  0  0  0  0  0  0  0  0  0
  -85.1328   29.3262    0.6765 C   0  0  0  0  0  0  0  0  0  0  0  0
  -85.1098   28.2937    1.5913 C   0  0  0  0  0  0  0  0  0  0  0  0
  -84.0312   28.0903    2.4334 C   0  0  0  0  0  0  0  0  0  0  0  0
  -82.9334   28.9213    2.3849 C   0  0  0  0  0  0  0  0  0  0  0  0
  -82.9403   29.9516    1.4819 C   0  0  0  0  0  0  0  0  0  0  0  0
  -84.0240   30.1465    0.6441 C   0  0  0  0  0  0  0  0  0  0  0  0
  -92.5908   31.2492   -3.0005 C   0  0  0  0  0  0  0  0  0  0  0  0
  -93.0978   29.5419   -4.6870 C   0  0  0  0  0  0  0  0  0  0  0  0
  -93.4893   30.1132   -3.3031 C   0  0  0  0  0  0  0  0  0  0  0  0
  -93.1107   28.9408   -2.3519 C   0  0  0  0  0  0  0  0  0  0  0  0
 30 31  1  0  0  0
 31 32  1  0  0  0
 31 29  1  0  0  0
 29  1  1  0  0  0
  1 13  1  0  0  0
 13 14  1  0  0  0
 14 15  2  0  0  0
 14 17  1  0  0  0
 17 18  2  0  0  0
 18 19  1  0  0  0
 19 20  2  0  0  0
 20 21  1  0  0  0
 21 22  2  0  0  0
 20 23  1  0  0  0
 23 24  2  0  0  0
 24 25  1  0  0  0
 25 26  2  0  0  0
 26 27  1  0  0  0
 27 28  2  0  0  0
  1  2  1  0  0  0
  2  3  2  0  0  0
  2  4  1  0  0  0
  4  5  1  0  0  0
  5  6  1  0  0  0
  6  7  1  0  0  0
  7  8  1  0  0  0
  8  9  1  0  0  0
  7 10  1  0  0  0
 10 11  1  0  0  0
 10 12  2  0  0  0
 22 17  1  0  0  0
 28 23  1  0  0  0
  9  4  1  0  0  0
 13 16  1  0  0  0
M  END
> <minimizedAffinity>
-7.88561

> <CNNscore>
0.1114638448

> <CNNaffinity>
5.2996721268

> <CNN_VS>
0.5907218456

> <CNNaffinity_variance>
0.1509337276

$$$$
[H]c1c([H])c([H])c(-c2c([H])c([H])c(C(=O)N([H])[C@]([H])(C(=O)N3C([H])([H])C([H])([H])N(C(=O)C([H])([H])[H])C([H])([H])C3([H])[H])C([H])([H])C([H])(C([H])([H])[H])C([H])([H])[H])c([H])c2[H])c([H])c1[H]


 32 34  0  0  0  0  0  0  0  0999 V2000
  -90.0983   32.3730   -4.2631 C   0  0  0  0  0  0  0  0  0  0  0  0
  -89.4833   33.5134   -4.8609 C   0  0  0  0  0  0  0  0  0  0  0  0
  -88.1609   33.2915   -5.0490 O   0  0  0  0  0  0  0  0  0  0  0  0
  -89.8103   34.7894   -5.3100 N   0  0  0  0  0  0  0  0  0  0  0  0
  -91.0146   35.5381   -5.1812 C   0  0  0  0  0  0  0  0  0  0  0  0
  -90.7960   36.9559   -4.6042 C   0  0  0  0  0  0  0  0  0  0  0  0
  -89.6199   37.5655   -5.1412 N   0  0  0  0  0  0  0  0  0  0  0  0
  -89.0131   36.9360   -6.2832 C   0  0  0  0  0  0  0  0  0  0  0  0
  -88.7522   35.4933   -6.1075 C   0  0  0  0  0  0  0  0  0  0  0  0
  -89.0701   38.7276   -4.5862 C   0  0  0  0  0  0  0  0  0  0  0  0
  -87.8488   39.3953   -5.1118 C   0  0  0  0  0  0  0  0  0  0  0  0
  -89.6618   39.2329   -3.5705 O   0  0  0  0  0  0  0  0  0  0  0  0
  -89.0331   31.6248   -3.5047 N   0  0  0  0  0  0  0  0  0  0  0  0
  -88.7735   32.0055   -2.1869 C   0  0  0  0  0  0  0  0  0  0  0  0
  -89.4315   32.9603   -1.6672 O   0  0  0  0  0  0  0  0  0  0  0  0
  -88.5502   30.8600   -4.0180 H   0  0  0  0  0  0  0  0  0  0  0  0
  -87.7746   31.3529   -1.3730 C   0  0  0  0  0  0  0  0  0  0  0  0
  -87.7855   29.9913   -1.2251 C   0  0  0  0  0  0  0  0  0  0  0  0
  -86.8289   29.3429   -0.4411 C   0  0  0  0  0  0  0  0  0  0  0  0
  -85.8647   30.0977    0.1873 C   0  0  0  0  0  0  0  0  0  0  0  0
  -85.8513   31.4608    0.0409 C   0  0  0  0  0  0  0  0  0  0  0  0
  -86.7987   32.0806   -0.7328 C   0  0  0  0  0  0  0  0  0  0  0  0
  -84.8697   29.4399    1.0037 C   0  0  0  0  0  0  0  0  0  0  0  0
  -83.6139   29.9723    1.2115 C   0  0  0  0  0  0  0  0  0  0  0  0
  -82.6715   29.3310    1.9954 C   0  0  0  0  0  0  0  0  0  0  0  0
  -82.9597   28.1272    2.6001 C   0  0  0  0  0  0  0  0  0  0  0  0
  -84.2024   27.5848    2.4038 C   0  0  0  0  0  0  0  0  0  0  0  0
  -85.1380   28.2341    1.6181 C   0  0  0  0  0  0  0  0  0  0  0  0
  -91.2967   32.2850   -3.4670 C   0  0  0  0  0  0  0  0  0  0  0  0
  -92.2399   30.6759   -5.0599 C   0  0  0  0  0  0  0  0  0  0  0  0
  -92.5706   31.7645   -4.0108 C   0  0  0  0  0  0  0  0  0  0  0  0
  -93.2616   30.9332   -2.8910 C   0  0  0  0  0  0  0  0  0  0  0  0
 30 31  1  0  0  0
 31 32  1  0  0  0
 31 29  1  0  0  0
 29  1  1  0  0  0
  1 13  1  0  0  0
 13 14  1  0  0  0
 14 15  2  0  0  0
 14 17  1  0  0  0
 17 18  2  0  0  0
 18 19  1  0  0  0
 19 20  2  0  0  0
 20 21  1  0  0  0
 21 22  2  0  0  0
 20 23  1  0  0  0
 23 24  2  0  0  0
 24 25  1  0  0  0
 25 26  2  0  0  0
 26 27  1  0  0  0
 27 28  2  0  0  0
  1  2  1  0  0  0
  2  3  2  0  0  0
  2  4  1  0  0  0
  4  5  1  0  0  0
  5  6  1  0  0  0
  6  7  1  0  0  0
  7  8  1  0  0  0
  8  9  1  0  0  0
  7 10  1  0  0  0
 10 11  1  0  0  0
 10 12  2  0  0  0
 22 17  1  0  0  0
 28 23  1  0  0  0
  9  4  1  0  0  0
 13 16  1  0  0  0
M  END
> <minimizedAffinity>
-8.11635

> <CNNscore>
0.1074009687

> <CNNaffinity>
5.6674709320

> <CNN_VS>
0.6086918712

> <CNNaffinity_variance>
0.1176453456

$$$$
[H]c1c([H])c([H])c(-c2c([H])c([H])c(C(=O)N([H])C3([H])C([H])([H])C([H])([H])N(C(=O)c4c([H])c(OC([H])([H])[H])c(OC([H])([H])[H])c(OC([H])([H])[H])c4[H])C([H])([H])C3([H])[H])c([H])c2[H])c([H])c1[H]


 36 39  0  0  0  0  0  0  0  0999 V2000
  -87.5476   31.2413   -2.9122 C   0  0  0  0  0  0  0  0  0  0  0  0
  -86.4852   32.0141   -2.9027 O   0  0  0  0  0  0  0  0  0  0  0  0
  -87.4137   29.9917   -2.2936 N   0  0  0  0  0  0  0  0  0  0  0  0
  -88.3768   28.9492   -2.1031 C   0  0  0  0  0  0  0  0  0  0  0  0
  -87.8360   27.9221   -1.0802 C   0  0  0  0  0  0  0  0  0  0  0  0
  -87.4271   28.7389    0.1100 C   0  0  0  0  0  0  0  0  0  0  0  0
  -86.1317   29.4374   -0.2622 C   0  0  0  0  0  0  0  0  0  0  0  0
  -86.0602   29.6433   -1.7460 C   0  0  0  0  0  0  0  0  0  0  0  0
  -90.8966   31.7933   -4.5660 C   0  0  0  0  0  0  0  0  0  0  0  0
  -89.7994   31.1545   -3.9756 C   0  0  0  0  0  0  0  0  0  0  0  0
  -88.6900   31.8286   -3.5695 C   0  0  0  0  0  0  0  0  0  0  0  0
  -88.6984   33.2130   -3.7762 C   0  0  0  0  0  0  0  0  0  0  0  0
  -89.7397   33.8821   -4.3462 C   0  0  0  0  0  0  0  0  0  0  0  0
  -90.8320   33.1420   -4.7333 C   0  0  0  0  0  0  0  0  0  0  0  0
  -92.3092   29.8489   -4.2315 C   0  0  0  0  0  0  0  0  0  0  0  0
  -91.9714   31.0134   -4.9403 O   0  0  0  0  0  0  0  0  0  0  0  0
  -89.7304   35.2613   -4.5438 O   0  0  0  0  0  0  0  0  0  0  0  0
  -89.8745   35.7278   -5.8713 C   0  0  0  0  0  0  0  0  0  0  0  0
  -91.9322   33.7686   -5.3225 O   0  0  0  0  0  0  0  0  0  0  0  0
  -93.2278   33.5377   -4.7939 C   0  0  0  0  0  0  0  0  0  0  0  0
  -87.2644   27.9840    1.3251 N   0  0  0  0  0  0  0  0  0  0  0  0
  -88.3569   27.3039    1.8791 C   0  0  0  0  0  0  0  0  0  0  0  0
  -89.4756   27.3678    1.2992 O   0  0  0  0  0  0  0  0  0  0  0  0
  -86.3195   27.9358    1.8093 H   0  0  0  0  0  0  0  0  0  0  0  0
  -88.2727   26.5118    3.1106 C   0  0  0  0  0  0  0  0  0  0  0  0
  -89.1623   25.5018    3.4009 C   0  0  0  0  0  0  0  0  0  0  0  0
  -89.0485   24.7662    4.5885 C   0  0  0  0  0  0  0  0  0  0  0  0
  -88.0490   25.0255    5.5021 C   0  0  0  0  0  0  0  0  0  0  0  0
  -87.1652   26.0374    5.2012 C   0  0  0  0  0  0  0  0  0  0  0  0
  -87.2719   26.7636    4.0362 C   0  0  0  0  0  0  0  0  0  0  0  0
  -87.9266   24.2566    6.7546 C   0  0  0  0  0  0  0  0  0  0  0  0
  -89.0243   23.7650    7.4238 C   0  0  0  0  0  0  0  0  0  0  0  0
  -88.8681   23.0473    8.5960 C   0  0  0  0  0  0  0  0  0  0  0  0
  -87.6122   22.8008    9.1327 C   0  0  0  0  0  0  0  0  0  0  0  0
  -86.5052   23.2868    8.4731 C   0  0  0  0  0  0  0  0  0  0  0  0
  -86.6819   23.9986    7.3080 C   0  0  0  0  0  0  0  0  0  0  0  0
 15 16  1  0  0  0
 16  9  1  0  0  0
  9 10  2  0  0  0
 10 11  1  0  0  0
 11 12  2  0  0  0
 12 13  1  0  0  0
 13 17  1  0  0  0
 17 18  1  0  0  0
 13 14  2  0  0  0
 14 19  1  0  0  0
 19 20  1  0  0  0
 11  1  1  0  0  0
  1  2  2  0  0  0
  1  3  1  0  0  0
  3  4  1  0  0  0
  4  5  1  0  0  0
  5  6  1  0  0  0
  6  7  1  0  0  0
  7  8  1  0  0  0
  6 21  1  0  0  0
 21 22  1  0  0  0
 22 23  2  0  0  0
 22 25  1  0  0  0
 25 26  2  0  0  0
 26 27  1  0  0  0
 27 28  2  0  0  0
 28 29  1  0  0  0
 29 30  2  0  0  0
 28 31  1  0  0  0
 31 32  2  0  0  0
 32 33  1  0  0  0
 33 34  2  0  0  0
 34 35  1  0  0  0
 35 36  2  0  0  0
 14  9  1  0  0  0
  8  3  1  0  0  0
 30 25  1  0  0  0
 36 31  1  0  0  0
 21 24  1  0  0  0
M  END
> <minimizedAffinity>
11.79530

> <CNNscore>
0.4057293832

> <CNNaffinity>
5.8324756622

> <CNN_VS>
2.3664066792

> <CNNaffinity_variance>
2.2527978420

$$$$
[H]c1c([H])c([H])c(-c2c([H])c([H])c(C(=O)N([H])C3([H])C([H])([H])C([H])([H])N(C(=O)c4c([H])c(OC([H])([H])[H])c(OC([H])([H])[H])c(OC([H])([H])[H])c4[H])C([H])([H])C3([H])[H])c([H])c2[H])c([H])c1[H]


 36 39  0  0  0  0  0  0  0  0999 V2000
  -90.9065   26.8100   -2.6328 C   0  0  0  0  0  0  0  0  0  0  0  0
  -89.8939   26.1926   -3.1981 O   0  0  0  0  0  0  0  0  0  0  0  0
  -90.5866   27.8263   -1.7234 N   0  0  0  0  0  0  0  0  0  0  0  0
  -91.4425   28.7002   -0.9787 C   0  0  0  0  0  0  0  0  0  0  0  0
  -90.6087   29.8564   -0.3773 C   0  0  0  0  0  0  0  0  0  0  0  0
  -89.8443   30.4264   -1.5358 C   0  0  0  0  0  0  0  0  0  0  0  0
  -88.7310   29.4440   -1.8518 C   0  0  0  0  0  0  0  0  0  0  0  0
  -89.1301   28.0573   -1.4434 C   0  0  0  0  0  0  0  0  0  0  0  0
  -94.2431   26.3980   -4.3513 C   0  0  0  0  0  0  0  0  0  0  0  0
  -93.0219   26.9475   -3.9425 C   0  0  0  0  0  0  0  0  0  0  0  0
  -92.1969   26.3244   -3.0586 C   0  0  0  0  0  0  0  0  0  0  0  0
  -92.6367   25.0892   -2.5686 C   0  0  0  0  0  0  0  0  0  0  0  0
  -93.8156   24.5117   -2.9339 C   0  0  0  0  0  0  0  0  0  0  0  0
  -94.6028   25.1929   -3.8322 C   0  0  0  0  0  0  0  0  0  0  0  0
  -94.6328   28.4101   -5.6503 C   0  0  0  0  0  0  0  0  0  0  0  0
  -95.0024   27.1146   -5.2533 O   0  0  0  0  0  0  0  0  0  0  0  0
  -94.2371   23.2807   -2.4356 O   0  0  0  0  0  0  0  0  0  0  0  0
  -93.5945   22.7970   -1.2721 C   0  0  0  0  0  0  0  0  0  0  0  0
  -95.8225   24.6540   -4.2474 O   0  0  0  0  0  0  0  0  0  0  0  0
  -95.9191   23.2597   -4.4882 C   0  0  0  0  0  0  0  0  0  0  0  0
  -89.3084   31.7430   -1.3079 N   0  0  0  0  0  0  0  0  0  0  0  0
  -88.2263   31.9177   -0.4352 C   0  0  0  0  0  0  0  0  0  0  0  0
  -87.7376   30.9085    0.1433 O   0  0  0  0  0  0  0  0  0  0  0  0
  -89.7260   32.5890   -1.7973 H   0  0  0  0  0  0  0  0  0  0  0  0
  -87.6217   33.2237   -0.1525 C   0  0  0  0  0  0  0  0  0  0  0  0
  -88.3752   34.3606    0.0360 C   0  0  0  0  0  0  0  0  0  0  0  0
  -87.7606   35.5911    0.3053 C   0  0  0  0  0  0  0  0  0  0  0  0
  -86.3893   35.7066    0.3904 C   0  0  0  0  0  0  0  0  0  0  0  0
  -85.6461   34.5633    0.2004 C   0  0  0  0  0  0  0  0  0  0  0  0
  -86.2442   33.3516   -0.0645 C   0  0  0  0  0  0  0  0  0  0  0  0
  -85.7373   36.9994    0.6704 C   0  0  0  0  0  0  0  0  0  0  0  0
  -86.3444   38.2028    0.3915 C   0  0  0  0  0  0  0  0  0  0  0  0
  -85.7002   39.3949    0.6697 C   0  0  0  0  0  0  0  0  0  0  0  0
  -84.4323   39.4188    1.2335 C   0  0  0  0  0  0  0  0  0  0  0  0
  -83.8133   38.2218    1.5178 C   0  0  0  0  0  0  0  0  0  0  0  0
  -84.4713   37.0465    1.2335 C   0  0  0  0  0  0  0  0  0  0  0  0
 15 16  1  0  0  0
 16  9  1  0  0  0
  9 10  2  0  0  0
 10 11  1  0  0  0
 11 12  2  0  0  0
 12 13  1  0  0  0
 13 17  1  0  0  0
 17 18  1  0  0  0
 13 14  2  0  0  0
 14 19  1  0  0  0
 19 20  1  0  0  0
 11  1  1  0  0  0
  1  2  2  0  0  0
  1  3  1  0  0  0
  3  4  1  0  0  0
  4  5  1  0  0  0
  5  6  1  0  0  0
  6  7  1  0  0  0
  7  8  1  0  0  0
  6 21  1  0  0  0
 21 22  1  0  0  0
 22 23  2  0  0  0
 22 25  1  0  0  0
 25 26  2  0  0  0
 26 27  1  0  0  0
 27 28  2  0  0  0
 28 29  1  0  0  0
 29 30  2  0  0  0
 28 31  1  0  0  0
 31 32  2  0  0  0
 32 33  1  0  0  0
 33 34  2  0  0  0
 34 35  1  0  0  0
 35 36  2  0  0  0
 14  9  1  0  0  0
  8  3  1  0  0  0
 30 25  1  0  0  0
 36 31  1  0  0  0
 21 24  1  0  0  0
M  END
> <minimizedAffinity>
36.37202

> <CNNscore>
0.3899172246

> <CNNaffinity>
5.2345190048

> <CNN_VS>
2.0410292149

> <CNNaffinity_variance>
0.8613204956

$$$$
[H]c1c([H])c([H])c(-c2c([H])c([H])c(C(=O)N([H])C3([H])C([H])([H])C([H])([H])N(C(=O)c4c([H])c(OC([H])([H])[H])c(OC([H])([H])[H])c(OC([H])([H])[H])c4[H])C([H])([H])C3([H])[H])c([H])c2[H])c([H])c1[H]


 36 39  0  0  0  0  0  0  0  0999 V2000
  -85.1151   29.6762   -0.3776 C   0  0  0  0  0  0  0  0  0  0  0  0
  -84.1989   28.8853    0.1334 O   0  0  0  0  0  0  0  0  0  0  0  0
  -86.0875   29.0653   -1.1797 N   0  0  0  0  0  0  0  0  0  0  0  0
  -87.2241   29.6307   -1.8425 C   0  0  0  0  0  0  0  0  0  0  0  0
  -88.1642   28.4983   -2.3198 C   0  0  0  0  0  0  0  0  0  0  0  0
  -88.3984   27.6508   -1.1041 C   0  0  0  0  0  0  0  0  0  0  0  0
  -87.1282   26.8513   -0.8761 C   0  0  0  0  0  0  0  0  0  0  0  0
  -85.9436   27.5910   -1.4225 C   0  0  0  0  0  0  0  0  0  0  0  0
  -83.7234   33.1326    0.2325 C   0  0  0  0  0  0  0  0  0  0  0  0
  -83.7990   31.7728   -0.0923 C   0  0  0  0  0  0  0  0  0  0  0  0
  -84.9569   31.0634   -0.0132 C   0  0  0  0  0  0  0  0  0  0  0  0
  -86.0857   31.7700    0.4177 C   0  0  0  0  0  0  0  0  0  0  0  0
  -86.0654   33.0924    0.7458 C   0  0  0  0  0  0  0  0  0  0  0  0
  -84.8633   33.7519    0.6428 C   0  0  0  0  0  0  0  0  0  0  0  0
  -82.3084   34.8322   -0.7660 C   0  0  0  0  0  0  0  0  0  0  0  0
  -82.4980   33.7558    0.1159 O   0  0  0  0  0  0  0  0  0  0  0  0
  -87.1998   33.7796    1.1727 O   0  0  0  0  0  0  0  0  0  0  0  0
  -88.4481   33.3512    0.6639 C   0  0  0  0  0  0  0  0  0  0  0  0
  -84.7764   35.1084    0.9634 O   0  0  0  0  0  0  0  0  0  0  0  0
  -85.3173   35.5673    2.1915 C   0  0  0  0  0  0  0  0  0  0  0  0
  -89.5378   26.7757   -1.1965 N   0  0  0  0  0  0  0  0  0  0  0  0
  -89.5675   25.5839   -0.4604 C   0  0  0  0  0  0  0  0  0  0  0  0
  -88.5845   25.2945    0.2756 O   0  0  0  0  0  0  0  0  0  0  0  0
  -90.3618   27.0248   -1.8197 H   0  0  0  0  0  0  0  0  0  0  0  0
  -90.6909   24.6417   -0.4974 C   0  0  0  0  0  0  0  0  0  0  0  0
  -91.6944   24.7261   -1.4364 C   0  0  0  0  0  0  0  0  0  0  0  0
  -92.7516   23.8060   -1.4398 C   0  0  0  0  0  0  0  0  0  0  0  0
  -92.8244   22.7906   -0.5099 C   0  0  0  0  0  0  0  0  0  0  0  0
  -91.8154   22.7159    0.4240 C   0  0  0  0  0  0  0  0  0  0  0  0
  -90.7742   23.6170    0.4325 C   0  0  0  0  0  0  0  0  0  0  0  0
  -93.9362   21.8216   -0.5071 C   0  0  0  0  0  0  0  0  0  0  0  0
  -94.3484   21.1815    0.6396 C   0  0  0  0  0  0  0  0  0  0  0  0
  -95.3964   20.2794    0.6014 C   0  0  0  0  0  0  0  0  0  0  0  0
  -96.0614   19.9910   -0.5821 C   0  0  0  0  0  0  0  0  0  0  0  0
  -95.6591   20.6245   -1.7368 C   0  0  0  0  0  0  0  0  0  0  0  0
  -94.6143   21.5190   -1.6778 C   0  0  0  0  0  0  0  0  0  0  0  0
 15 16  1  0  0  0
 16  9  1  0  0  0
  9 10  2  0  0  0
 10 11  1  0  0  0
 11 12  2  0  0  0
 12 13  1  0  0  0
 13 17  1  0  0  0
 17 18  1  0  0  0
 13 14  2  0  0  0
 14 19  1  0  0  0
 19 20  1  0  0  0
 11  1  1  0  0  0
  1  2  2  0  0  0
  1  3  1  0  0  0
  3  4  1  0  0  0
  4  5  1  0  0  0
  5  6  1  0  0  0
  6  7  1  0  0  0
  7  8  1  0  0  0
  6 21  1  0  0  0
 21 22  1  0  0  0
 22 23  2  0  0  0
 22 25  1  0  0  0
 25 26  2  0  0  0
 26 27  1  0  0  0
 27 28  2  0  0  0
 28 29  1  0  0  0
 29 30  2  0  0  0
 28 31  1  0  0  0
 31 32  2  0  0  0
 32 33  1  0  0  0
 33 34  2  0  0  0
 34 35  1  0  0  0
 35 36  2  0  0  0
 14  9  1  0  0  0
  8  3  1  0  0  0
 30 25  1  0  0  0
 36 31  1  0  0  0
 21 24  1  0  0  0
M  END
> <minimizedAffinity>
20.65753

> <CNNscore>
0.3847547472

> <CNNaffinity>
5.7959327698

> <CNN_VS>
2.2300126553

> <CNNaffinity_variance>
1.1118887663

$$$$
[H]c1c([H])c([H])c(-c2c([H])c([H])c(C(=O)N([H])C3([H])C([H])([H])C([H])([H])N(C(=O)c4c([H])c(OC([H])([H])[H])c(OC([H])([H])[H])c(OC([H])([H])[H])c4[H])C([H])([H])C3([H])[H])c([H])c2[H])c([H])c1[H]


 36 39  0  0  0  0  0  0  0  0999 V2000
  -88.5207   31.7099   -3.4130 C   0  0  0  0  0  0  0  0  0  0  0  0
  -87.4570   32.4781   -3.4804 O   0  0  0  0  0  0  0  0  0  0  0  0
  -88.3344   30.4361   -2.8609 N   0  0  0  0  0  0  0  0  0  0  0  0
  -89.2812   29.3901   -2.6154 C   0  0  0  0  0  0  0  0  0  0  0  0
  -88.6476   28.3211   -1.6937 C   0  0  0  0  0  0  0  0  0  0  0  0
  -88.1148   29.0882   -0.5195 C   0  0  0  0  0  0  0  0  0  0  0  0
  -86.8583   29.7966   -0.9929 C   0  0  0  0  0  0  0  0  0  0  0  0
  -86.9352   30.0614   -2.4670 C   0  0  0  0  0  0  0  0  0  0  0  0
  -91.8933   32.3281   -4.9939 C   0  0  0  0  0  0  0  0  0  0  0  0
  -90.7326   31.6762   -4.5598 C   0  0  0  0  0  0  0  0  0  0  0  0
  -89.7191   32.3270   -3.9278 C   0  0  0  0  0  0  0  0  0  0  0  0
  -89.8952   33.7017   -3.7320 C   0  0  0  0  0  0  0  0  0  0  0  0
  -91.0044   34.3829   -4.1352 C   0  0  0  0  0  0  0  0  0  0  0  0
  -91.9930   33.6659   -4.7670 C   0  0  0  0  0  0  0  0  0  0  0  0
  -93.4064   31.9663   -6.8560 C   0  0  0  0  0  0  0  0  0  0  0  0
  -92.8598   31.5715   -5.6240 O   0  0  0  0  0  0  0  0  0  0  0  0
  -91.1624   35.7522   -3.9312 O   0  0  0  0  0  0  0  0  0  0  0  0
  -91.2713   36.5711   -5.0793 C   0  0  0  0  0  0  0  0  0  0  0  0
  -93.1551   34.3055   -5.2036 O   0  0  0  0  0  0  0  0  0  0  0  0
  -94.2785   34.3689   -4.3402 C   0  0  0  0  0  0  0  0  0  0  0  0
  -87.8360   28.2848    0.6421 N   0  0  0  0  0  0  0  0  0  0  0  0
  -88.8831   27.6487    1.3219 C   0  0  0  0  0  0  0  0  0  0  0  0
  -90.0637   27.7949    0.9015 O   0  0  0  0  0  0  0  0  0  0  0  0
  -86.8393   28.1672    0.9918 H   0  0  0  0  0  0  0  0  0  0  0  0
  -88.6821   26.8120    2.5095 C   0  0  0  0  0  0  0  0  0  0  0  0
  -89.2754   27.0933    3.7197 C   0  0  0  0  0  0  0  0  0  0  0  0
  -89.0595   26.2688    4.8324 C   0  0  0  0  0  0  0  0  0  0  0  0
  -88.2511   25.1545    4.7558 C   0  0  0  0  0  0  0  0  0  0  0  0
  -87.6633   24.8829    3.5407 C   0  0  0  0  0  0  0  0  0  0  0  0
  -87.8716   25.6892    2.4441 C   0  0  0  0  0  0  0  0  0  0  0  0
  -88.0181   24.2854    5.9242 C   0  0  0  0  0  0  0  0  0  0  0  0
  -87.9208   24.7857    7.2028 C   0  0  0  0  0  0  0  0  0  0  0  0
  -87.7026   23.9374    8.2735 C   0  0  0  0  0  0  0  0  0  0  0  0
  -87.5750   22.5667    8.0975 C   0  0  0  0  0  0  0  0  0  0  0  0
  -87.6704   22.0527    6.8234 C   0  0  0  0  0  0  0  0  0  0  0  0
  -87.8880   22.9136    5.7713 C   0  0  0  0  0  0  0  0  0  0  0  0
 15 16  1  0  0  0
 16  9  1  0  0  0
  9 10  2  0  0  0
 10 11  1  0  0  0
 11 12  2  0  0  0
 12 13  1  0  0  0
 13 17  1  0  0  0
 17 18  1  0  0  0
 13 14  2  0  0  0
 14 19  1  0  0  0
 19 20  1  0  0  0
 11  1  1  0  0  0
  1  2  2  0  0  0
  1  3  1  0  0  0
  3  4  1  0  0  0
  4  5  1  0  0  0
  5  6  1  0  0  0
  6  7  1  0  0  0
  7  8  1  0  0  0
  6 21  1  0  0  0
 21 22  1  0  0  0
 22 23  2  0  0  0
 22 25  1  0  0  0
 25 26  2  0  0  0
 26 27  1  0  0  0
 27 28  2  0  0  0
 28 29  1  0  0  0
 29 30  2  0  0  0
 28 31  1  0  0  0
 31 32  2  0  0  0
 32 33  1  0  0  0
 33 34  2  0  0  0
 34 35  1  0  0  0
 35 36  2  0  0  0
 14  9  1  0  0  0
  8  3  1  0  0  0
 30 25  1  0  0  0
 36 31  1  0  0  0
 21 24  1  0  0  0
M  END
> <minimizedAffinity>
-1.91384

> <CNNscore>
0.3836385310

> <CNNaffinity>
5.6265158653

> <CNN_VS>
2.1585483551

> <CNNaffinity_variance>
1.6288821697

$$$$
[H]c1c([H])c([H])c(-c2c([H])c([H])c(C(=O)N([H])C3([H])C([H])([H])C([H])([H])N(C(=O)c4c([H])c(OC([H])([H])[H])c(OC([H])([H])[H])c(OC([H])([H])[H])c4[H])C([H])([H])C3([H])[H])c([H])c2[H])c([H])c1[H]


 36 39  0  0  0  0  0  0  0  0999 V2000
  -86.4492   31.2353    0.3235 C   0  0  0  0  0  0  0  0  0  0  0  0
  -86.1521   32.4025   -0.2013 O   0  0  0  0  0  0  0  0  0  0  0  0
  -87.7420   30.7544    0.0800 N   0  0  0  0  0  0  0  0  0  0  0  0
  -88.3562   29.5216    0.4719 C   0  0  0  0  0  0  0  0  0  0  0  0
  -89.6709   29.3211   -0.3188 C   0  0  0  0  0  0  0  0  0  0  0  0
  -89.2882   29.4990   -1.7586 C   0  0  0  0  0  0  0  0  0  0  0  0
  -89.0817   30.9871   -1.9763 C   0  0  0  0  0  0  0  0  0  0  0  0
  -88.6670   31.6471   -0.6951 C   0  0  0  0  0  0  0  0  0  0  0  0
  -84.4075   29.1096    2.6834 C   0  0  0  0  0  0  0  0  0  0  0  0
  -85.5041   29.6809    2.0264 C   0  0  0  0  0  0  0  0  0  0  0  0
  -85.3683   30.6405    1.0719 C   0  0  0  0  0  0  0  0  0  0  0  0
  -84.0587   31.0364    0.7762 C   0  0  0  0  0  0  0  0  0  0  0  0
  -82.9587   30.5126    1.3864 C   0  0  0  0  0  0  0  0  0  0  0  0
  -83.1647   29.5451    2.3414 C   0  0  0  0  0  0  0  0  0  0  0  0
  -83.9403   26.9364    3.6562 C   0  0  0  0  0  0  0  0  0  0  0  0
  -84.6588   28.1430    3.6352 O   0  0  0  0  0  0  0  0  0  0  0  0
  -81.6620   30.9191    1.0785 O   0  0  0  0  0  0  0  0  0  0  0  0
  -81.4135   31.3485   -0.2460 C   0  0  0  0  0  0  0  0  0  0  0  0
  -82.0784   28.9679    3.0025 O   0  0  0  0  0  0  0  0  0  0  0  0
  -81.8770   27.5668    2.9144 C   0  0  0  0  0  0  0  0  0  0  0  0
  -90.2447   28.9774   -2.6997 N   0  0  0  0  0  0  0  0  0  0  0  0
  -90.4666   27.5964   -2.7806 C   0  0  0  0  0  0  0  0  0  0  0  0
  -89.8160   26.8265   -2.0219 O   0  0  0  0  0  0  0  0  0  0  0  0
  -90.7882   29.6316   -3.3370 H   0  0  0  0  0  0  0  0  0  0  0  0
  -91.4246   26.9872   -3.7093 C   0  0  0  0  0  0  0  0  0  0  0  0
  -91.7557   27.5667   -4.9136 C   0  0  0  0  0  0  0  0  0  0  0  0
  -92.6755   26.9533   -5.7750 C   0  0  0  0  0  0  0  0  0  0  0  0
  -93.2774   25.7562   -5.4499 C   0  0  0  0  0  0  0  0  0  0  0  0
  -92.9385   25.1859   -4.2435 C   0  0  0  0  0  0  0  0  0  0  0  0
  -92.0357   25.7838   -3.3929 C   0  0  0  0  0  0  0  0  0  0  0  0
  -94.2482   25.1080   -6.3513 C   0  0  0  0  0  0  0  0  0  0  0  0
  -94.1475   23.7819   -6.7063 C   0  0  0  0  0  0  0  0  0  0  0  0
  -95.0790   23.2098   -7.5540 C   0  0  0  0  0  0  0  0  0  0  0  0
  -96.1362   23.9454   -8.0710 C   0  0  0  0  0  0  0  0  0  0  0  0
  -96.2489   25.2734   -7.7238 C   0  0  0  0  0  0  0  0  0  0  0  0
  -95.3117   25.8238   -6.8788 C   0  0  0  0  0  0  0  0  0  0  0  0
 15 16  1  0  0  0
 16  9  1  0  0  0
  9 10  2  0  0  0
 10 11  1  0  0  0
 11 12  2  0  0  0
 12 13  1  0  0  0
 13 17  1  0  0  0
 17 18  1  0  0  0
 13 14  2  0  0  0
 14 19  1  0  0  0
 19 20  1  0  0  0
 11  1  1  0  0  0
  1  2  2  0  0  0
  1  3  1  0  0  0
  3  4  1  0  0  0
  4  5  1  0  0  0
  5  6  1  0  0  0
  6  7  1  0  0  0
  7  8  1  0  0  0
  6 21  1  0  0  0
 21 22  1  0  0  0
 22 23  2  0  0  0
 22 25  1  0  0  0
 25 26  2  0  0  0
 26 27  1  0  0  0
 27 28  2  0  0  0
 28 29  1  0  0  0
 29 30  2  0  0  0
 28 31  1  0  0  0
 31 32  2  0  0  0
 32 33  1  0  0  0
 33 34  2  0  0  0
 34 35  1  0  0  0
 35 36  2  0  0  0
 14  9  1  0  0  0
  8  3  1  0  0  0
 30 25  1  0  0  0
 36 31  1  0  0  0
 21 24  1  0  0  0
M  END
> <minimizedAffinity>
0.67004

> <CNNscore>
0.3288099468

> <CNNaffinity>
5.8273139000

> <CNN_VS>
1.9160788059

> <CNNaffinity_variance>
0.7339320183

$$$$
[H]c1c([H])c([H])c(-c2c([H])c([H])c(C(=O)N([H])C3([H])C([H])([H])C([H])([H])N(C(=O)c4c([H])c(OC([H])([H])[H])c(OC([H])([H])[H])c(OC([H])([H])[H])c4[H])C([H])([H])C3([H])[H])c([H])c2[H])c([H])c1[H]


 36 39  0  0  0  0  0  0  0  0999 V2000
  -92.7000   26.2516   -1.3516 C   0  0  0  0  0  0  0  0  0  0  0  0
  -93.9995   26.2198   -1.1606 O   0  0  0  0  0  0  0  0  0  0  0  0
  -92.2586   26.8749   -2.5258 N   0  0  0  0  0  0  0  0  0  0  0  0
  -90.9283   27.1052   -3.0034 C   0  0  0  0  0  0  0  0  0  0  0  0
  -90.9637   28.1173   -4.1730 C   0  0  0  0  0  0  0  0  0  0  0  0
  -91.7442   29.2871   -3.6499 C   0  0  0  0  0  0  0  0  0  0  0  0
  -93.2028   28.8666   -3.6297 C   0  0  0  0  0  0  0  0  0  0  0  0
  -93.3127   27.3798   -3.4676 C   0  0  0  0  0  0  0  0  0  0  0  0
  -90.5369   25.6218    1.6783 C   0  0  0  0  0  0  0  0  0  0  0  0
  -91.2147   26.2861    0.6488 C   0  0  0  0  0  0  0  0  0  0  0  0
  -91.9400   25.6282   -0.2952 C   0  0  0  0  0  0  0  0  0  0  0  0
  -91.9741   24.2331   -0.1865 C   0  0  0  0  0  0  0  0  0  0  0  0
  -91.3323   23.5392    0.7951 C   0  0  0  0  0  0  0  0  0  0  0  0
  -90.6174   24.2642    1.7192 C   0  0  0  0  0  0  0  0  0  0  0  0
  -88.4914   26.7396    2.3523 C   0  0  0  0  0  0  0  0  0  0  0  0
  -89.8310   26.3871    2.5837 O   0  0  0  0  0  0  0  0  0  0  0  0
  -91.3778   22.1497    0.8876 O   0  0  0  0  0  0  0  0  0  0  0  0
  -90.2985   21.4263    0.3288 C   0  0  0  0  0  0  0  0  0  0  0  0
  -89.9381   23.6123    2.7506 O   0  0  0  0  0  0  0  0  0  0  0  0
  -90.6409   23.2616    3.9315 C   0  0  0  0  0  0  0  0  0  0  0  0
  -91.5777   30.5018   -4.4046 N   0  0  0  0  0  0  0  0  0  0  0  0
  -90.4487   31.3055   -4.1985 C   0  0  0  0  0  0  0  0  0  0  0  0
  -89.5909   30.9485   -3.3451 O   0  0  0  0  0  0  0  0  0  0  0  0
  -92.3051   30.7973   -5.1208 H   0  0  0  0  0  0  0  0  0  0  0  0
  -90.2046   32.5542   -4.9281 C   0  0  0  0  0  0  0  0  0  0  0  0
  -89.0593   33.2985   -4.7547 C   0  0  0  0  0  0  0  0  0  0  0  0
  -88.8618   34.4868   -5.4712 C   0  0  0  0  0  0  0  0  0  0  0  0
  -89.8003   34.9498   -6.3690 C   0  0  0  0  0  0  0  0  0  0  0  0
  -90.9413   34.1972   -6.5343 C   0  0  0  0  0  0  0  0  0  0  0  0
  -91.1411   33.0291   -5.8332 C   0  0  0  0  0  0  0  0  0  0  0  0
  -89.5988   36.2010   -7.1232 C   0  0  0  0  0  0  0  0  0  0  0  0
  -88.5602   37.0623   -6.8512 C   0  0  0  0  0  0  0  0  0  0  0  0
  -88.4044   38.2264   -7.5821 C   0  0  0  0  0  0  0  0  0  0  0  0
  -89.2809   38.5631   -8.6040 C   0  0  0  0  0  0  0  0  0  0  0  0
  -90.3244   37.7100   -8.8868 C   0  0  0  0  0  0  0  0  0  0  0  0
  -90.4621   36.5565   -8.1481 C   0  0  0  0  0  0  0  0  0  0  0  0
 15 16  1  0  0  0
 16  9  1  0  0  0
  9 10  2  0  0  0
 10 11  1  0  0  0
 11 12  2  0  0  0
 12 13  1  0  0  0
 13 17  1  0  0  0
 17 18  1  0  0  0
 13 14  2  0  0  0
 14 19  1  0  0  0
 19 20  1  0  0  0
 11  1  1  0  0  0
  1  2  2  0  0  0
  1  3  1  0  0  0
  3  4  1  0  0  0
  4  5  1  0  0  0
  5  6  1  0  0  0
  6  7  1  0  0  0
  7  8  1  0  0  0
  6 21  1  0  0  0
 21 22  1  0  0  0
 22 23  2  0  0  0
 22 25  1  0  0  0
 25 26  2  0  0  0
 26 27  1  0  0  0
 27 28  2  0  0  0
 28 29  1  0  0  0
 29 30  2  0  0  0
 28 31  1  0  0  0
 31 32  2  0  0  0
 32 33  1  0  0  0
 33 34  2  0  0  0
 34 35  1  0  0  0
 35 36  2  0  0  0
 14  9  1  0  0  0
  8  3  1  0  0  0
 30 25  1  0  0  0
 36 31  1  0  0  0
 21 24  1  0  0  0
M  END
> <minimizedAffinity>
-4.81262

> <CNNscore>
0.2882464230

> <CNNaffinity>
5.0892772675

> <CNN_VS>
1.4669659138

> <CNNaffinity_variance>
0.6903447509

$$$$
[H]c1c([H])c([H])c(-c2c([H])c([H])c(C(=O)N([H])C3([H])C([H])([H])C([H])([H])N(C(=O)c4c([H])c(OC([H])([H])[H])c(OC([H])([H])[H])c(OC([H])([H])[H])c4[H])C([H])([H])C3([H])[H])c([H])c2[H])c([H])c1[H]


 36 39  0  0  0  0  0  0  0  0999 V2000
  -84.3674   30.3180    0.4668 C   0  0  0  0  0  0  0  0  0  0  0  0
  -84.9816   31.4687    0.3088 O   0  0  0  0  0  0  0  0  0  0  0  0
  -85.1520   29.2515    0.9242 N   0  0  0  0  0  0  0  0  0  0  0  0
  -84.8008   27.8834    1.1602 C   0  0  0  0  0  0  0  0  0  0  0  0
  -86.0856   27.0399    1.3375 C   0  0  0  0  0  0  0  0  0  0  0  0
  -86.9287   27.3613    0.1388 C   0  0  0  0  0  0  0  0  0  0  0  0
  -87.4997   28.7497    0.3644 C   0  0  0  0  0  0  0  0  0  0  0  0
  -86.5875   29.5497    1.2458 C   0  0  0  0  0  0  0  0  0  0  0  0
  -80.9897   29.6729   -1.0923 C   0  0  0  0  0  0  0  0  0  0  0  0
  -82.3489   29.5533   -0.7781 C   0  0  0  0  0  0  0  0  0  0  0  0
  -82.9644   30.3552    0.1320 C   0  0  0  0  0  0  0  0  0  0  0  0
  -82.1592   31.3190    0.7501 C   0  0  0  0  0  0  0  0  0  0  0  0
  -80.8328   31.4762    0.4805 C   0  0  0  0  0  0  0  0  0  0  0  0
  -80.2718   30.6343   -0.4507 C   0  0  0  0  0  0  0  0  0  0  0  0
  -80.7305   28.9724   -3.4009 C   0  0  0  0  0  0  0  0  0  0  0  0
  -80.4668   28.8079   -2.0313 O   0  0  0  0  0  0  0  0  0  0  0  0
  -80.0468   32.4419    1.1058 O   0  0  0  0  0  0  0  0  0  0  0  0
  -79.6285   33.5441    0.3242 C   0  0  0  0  0  0  0  0  0  0  0  0
  -78.9173   30.7451   -0.7723 O   0  0  0  0  0  0  0  0  0  0  0  0
  -78.5242   31.5950   -1.8375 C   0  0  0  0  0  0  0  0  0  0  0  0
  -87.9833   26.4161   -0.1206 N   0  0  0  0  0  0  0  0  0  0  0  0
  -89.1777   26.4814    0.6088 C   0  0  0  0  0  0  0  0  0  0  0  0
  -89.3084   27.3744    1.4905 O   0  0  0  0  0  0  0  0  0  0  0  0
  -87.8658   25.6653   -0.8636 H   0  0  0  0  0  0  0  0  0  0  0  0
  -90.2991   25.5588    0.4029 C   0  0  0  0  0  0  0  0  0  0  0  0
  -90.5586   24.9728   -0.8157 C   0  0  0  0  0  0  0  0  0  0  0  0
  -91.6400   24.0951   -0.9729 C   0  0  0  0  0  0  0  0  0  0  0  0
  -92.4767   23.7891    0.0793 C   0  0  0  0  0  0  0  0  0  0  0  0
  -92.2075   24.3807    1.2930 C   0  0  0  0  0  0  0  0  0  0  0  0
  -91.1467   25.2438    1.4537 C   0  0  0  0  0  0  0  0  0  0  0  0
  -93.6178   22.8687   -0.0814 C   0  0  0  0  0  0  0  0  0  0  0  0
  -94.7603   23.2282   -0.7598 C   0  0  0  0  0  0  0  0  0  0  0  0
  -95.8092   22.3357   -0.8898 C   0  0  0  0  0  0  0  0  0  0  0  0
  -95.7469   21.0604   -0.3461 C   0  0  0  0  0  0  0  0  0  0  0  0
  -94.6095   20.6876    0.3351 C   0  0  0  0  0  0  0  0  0  0  0  0
  -93.5768   21.5903    0.4533 C   0  0  0  0  0  0  0  0  0  0  0  0
 15 16  1  0  0  0
 16  9  1  0  0  0
  9 10  2  0  0  0
 10 11  1  0  0  0
 11 12  2  0  0  0
 12 13  1  0  0  0
 13 17  1  0  0  0
 17 18  1  0  0  0
 13 14  2  0  0  0
 14 19  1  0  0  0
 19 20  1  0  0  0
 11  1  1  0  0  0
  1  2  2  0  0  0
  1  3  1  0  0  0
  3  4  1  0  0  0
  4  5  1  0  0  0
  5  6  1  0  0  0
  6  7  1  0  0  0
  7  8  1  0  0  0
  6 21  1  0  0  0
 21 22  1  0  0  0
 22 23  2  0  0  0
 22 25  1  0  0  0
 25 26  2  0  0  0
 26 27  1  0  0  0
 27 28  2  0  0  0
 28 29  1  0  0  0
 29 30  2  0  0  0
 28 31  1  0  0  0
 31 32  2  0  0  0
 32 33  1  0  0  0
 33 34  2  0  0  0
 34 35  1  0  0  0
 35 36  2  0  0  0
 14  9  1  0  0  0
  8  3  1  0  0  0
 30 25  1  0  0  0
 36 31  1  0  0  0
 21 24  1  0  0  0
M  END
> <minimizedAffinity>
33.19574

> <CNNscore>
0.2459157705

> <CNNaffinity>
5.7092604637

> <CNN_VS>
1.4039971828

> <CNNaffinity_variance>
0.1469019502

$$$$
[H]c1c([H])c([H])c(-c2c([H])c([H])c(C(=O)N([H])C3([H])C([H])([H])C([H])([H])N(C(=O)c4c([H])c(OC([H])([H])[H])c(OC([H])([H])[H])c(OC([H])([H])[H])c4[H])C([H])([H])C3([H])[H])c([H])c2[H])c([H])c1[H]


 36 39  0  0  0  0  0  0  0  0999 V2000
  -94.7153   25.5013   -2.0642 C   0  0  0  0  0  0  0  0  0  0  0  0
  -95.6426   26.2671   -1.5352 O   0  0  0  0  0  0  0  0  0  0  0  0
  -93.6194   26.1577   -2.6389 N   0  0  0  0  0  0  0  0  0  0  0  0
  -92.4427   25.6217   -3.2543 C   0  0  0  0  0  0  0  0  0  0  0  0
  -91.3901   26.7423   -3.4276 C   0  0  0  0  0  0  0  0  0  0  0  0
  -91.2611   27.3664   -2.0693 C   0  0  0  0  0  0  0  0  0  0  0  0
  -92.5038   28.2118   -1.8560 C   0  0  0  0  0  0  0  0  0  0  0  0
  -93.6510   27.6584   -2.6476 C   0  0  0  0  0  0  0  0  0  0  0  0
  -95.7611   21.9432   -2.7726 C   0  0  0  0  0  0  0  0  0  0  0  0
  -95.5618   23.3209   -2.9234 C   0  0  0  0  0  0  0  0  0  0  0  0
  -94.9933   24.0896   -1.9559 C   0  0  0  0  0  0  0  0  0  0  0  0
  -94.6139   23.4258   -0.7834 C   0  0  0  0  0  0  0  0  0  0  0  0
  -94.7860   22.0885   -0.5868 C   0  0  0  0  0  0  0  0  0  0  0  0
  -95.3654   21.3682   -1.6047 C   0  0  0  0  0  0  0  0  0  0  0  0
  -95.7341   21.1929   -5.0800 C   0  0  0  0  0  0  0  0  0  0  0  0
  -96.3464   21.2587   -3.8178 O   0  0  0  0  0  0  0  0  0  0  0  0
  -94.4015   21.4446    0.5875 O   0  0  0  0  0  0  0  0  0  0  0  0
  -93.0307   21.1289    0.7358 C   0  0  0  0  0  0  0  0  0  0  0  0
  -95.5683   19.9935   -1.4656 O   0  0  0  0  0  0  0  0  0  0  0  0
  -94.4817   19.1067   -1.6759 C   0  0  0  0  0  0  0  0  0  0  0  0
  -90.0726   28.1579   -1.8860 N   0  0  0  0  0  0  0  0  0  0  0  0
  -89.2728   27.9685   -0.7513 C   0  0  0  0  0  0  0  0  0  0  0  0
  -89.6130   27.1012    0.0995 O   0  0  0  0  0  0  0  0  0  0  0  0
  -89.7927   28.8879   -2.6059 H   0  0  0  0  0  0  0  0  0  0  0  0
  -88.0468   28.7312   -0.4932 C   0  0  0  0  0  0  0  0  0  0  0  0
  -87.1573   28.3850    0.4990 C   0  0  0  0  0  0  0  0  0  0  0  0
  -85.9955   29.1387    0.7146 C   0  0  0  0  0  0  0  0  0  0  0  0
  -85.7036   30.2459   -0.0535 C   0  0  0  0  0  0  0  0  0  0  0  0
  -86.6001   30.5824   -1.0427 C   0  0  0  0  0  0  0  0  0  0  0  0
  -87.7432   29.8459   -1.2593 C   0  0  0  0  0  0  0  0  0  0  0  0
  -84.4841   31.0442    0.1712 C   0  0  0  0  0  0  0  0  0  0  0  0
  -83.3596   30.5151    0.7628 C   0  0  0  0  0  0  0  0  0  0  0  0
  -82.2345   31.2965    0.9554 C   0  0  0  0  0  0  0  0  0  0  0  0
  -82.2009   32.6273    0.5634 C   0  0  0  0  0  0  0  0  0  0  0  0
  -83.3192   33.1695   -0.0299 C   0  0  0  0  0  0  0  0  0  0  0  0
  -84.4287   32.3752   -0.2128 C   0  0  0  0  0  0  0  0  0  0  0  0
 15 16  1  0  0  0
 16  9  1  0  0  0
  9 10  2  0  0  0
 10 11  1  0  0  0
 11 12  2  0  0  0
 12 13  1  0  0  0
 13 17  1  0  0  0
 17 18  1  0  0  0
 13 14  2  0  0  0
 14 19  1  0  0  0
 19 20  1  0  0  0
 11  1  1  0  0  0
  1  2  2  0  0  0
  1  3  1  0  0  0
  3  4  1  0  0  0
  4  5  1  0  0  0
  5  6  1  0  0  0
  6  7  1  0  0  0
  7  8  1  0  0  0
  6 21  1  0  0  0
 21 22  1  0  0  0
 22 23  2  0  0  0
 22 25  1  0  0  0
 25 26  2  0  0  0
 26 27  1  0  0  0
 27 28  2  0  0  0
 28 29  1  0  0  0
 29 30  2  0  0  0
 28 31  1  0  0  0
 31 32  2  0  0  0
 32 33  1  0  0  0
 33 34  2  0  0  0
 34 35  1  0  0  0
 35 36  2  0  0  0
 14  9  1  0  0  0
  8  3  1  0  0  0
 30 25  1  0  0  0
 36 31  1  0  0  0
 21 24  1  0  0  0
M  END
> <minimizedAffinity>
-6.11457

> <CNNscore>
0.2015716583

> <CNNaffinity>
5.6095876694

> <CNN_VS>
1.1307338476

> <CNNaffinity_variance>
1.0946046114

$$$$
[H]c1c([H])c([H])c(-c2c([H])c([H])c(C(=O)N([H])C3([H])C([H])([H])C([H])([H])N(C(=O)c4c([H])c(OC([H])([H])[H])c(OC([H])([H])[H])c(OC([H])([H])[H])c4[H])C([H])([H])C3([H])[H])c([H])c2[H])c([H])c1[H]


 36 39  0  0  0  0  0  0  0  0999 V2000
  -90.7187   26.5622   -1.7413 C   0  0  0  0  0  0  0  0  0  0  0  0
  -89.5928   26.0408   -2.1731 O   0  0  0  0  0  0  0  0  0  0  0  0
  -90.7852   27.9611   -1.7105 N   0  0  0  0  0  0  0  0  0  0  0  0
  -91.8639   28.8248   -1.3348 C   0  0  0  0  0  0  0  0  0  0  0  0
  -91.5540   30.2712   -1.7883 C   0  0  0  0  0  0  0  0  0  0  0  0
  -91.2092   30.1555   -3.2440 C   0  0  0  0  0  0  0  0  0  0  0  0
  -89.8152   29.5588   -3.3178 C   0  0  0  0  0  0  0  0  0  0  0  0
  -89.5480   28.7116   -2.1096 C   0  0  0  0  0  0  0  0  0  0  0  0
  -92.6489   23.8435    0.0303 C   0  0  0  0  0  0  0  0  0  0  0  0
  -91.6273   24.7407   -0.3042 C   0  0  0  0  0  0  0  0  0  0  0  0
  -91.7104   25.5822   -1.3696 C   0  0  0  0  0  0  0  0  0  0  0  0
  -92.8842   25.5041   -2.1280 C   0  0  0  0  0  0  0  0  0  0  0  0
  -93.9069   24.6491   -1.8454 C   0  0  0  0  0  0  0  0  0  0  0  0
  -93.7607   23.8259   -0.7538 C   0  0  0  0  0  0  0  0  0  0  0  0
  -91.6181   23.4238    2.1865 C   0  0  0  0  0  0  0  0  0  0  0  0
  -92.4613   23.0353    1.1326 O   0  0  0  0  0  0  0  0  0  0  0  0
  -95.0687   24.5856   -2.6120 O   0  0  0  0  0  0  0  0  0  0  0  0
  -94.9299   24.7193   -4.0132 C   0  0  0  0  0  0  0  0  0  0  0  0
  -94.7735   22.9277   -0.4105 O   0  0  0  0  0  0  0  0  0  0  0  0
  -95.6889   23.2732    0.6162 C   0  0  0  0  0  0  0  0  0  0  0  0
  -91.2682   31.3960   -3.9722 N   0  0  0  0  0  0  0  0  0  0  0  0
  -90.1161   31.9026   -4.5879 C   0  0  0  0  0  0  0  0  0  0  0  0
  -89.0360   31.2578   -4.4900 O   0  0  0  0  0  0  0  0  0  0  0  0
  -92.1810   31.9348   -4.0493 H   0  0  0  0  0  0  0  0  0  0  0  0
  -90.0942   33.1559   -5.3494 C   0  0  0  0  0  0  0  0  0  0  0  0
  -89.0732   34.0724   -5.2333 C   0  0  0  0  0  0  0  0  0  0  0  0
  -89.0875   35.2591   -5.9789 C   0  0  0  0  0  0  0  0  0  0  0  0
  -90.1168   35.5494   -6.8491 C   0  0  0  0  0  0  0  0  0  0  0  0
  -91.1320   34.6256   -6.9572 C   0  0  0  0  0  0  0  0  0  0  0  0
  -91.1236   33.4581   -6.2272 C   0  0  0  0  0  0  0  0  0  0  0  0
  -90.1383   36.7979   -7.6337 C   0  0  0  0  0  0  0  0  0  0  0  0
  -89.0057   37.3153   -8.2203 C   0  0  0  0  0  0  0  0  0  0  0  0
  -89.0668   38.4891   -8.9496 C   0  0  0  0  0  0  0  0  0  0  0  0
  -90.2598   39.1791   -9.1131 C   0  0  0  0  0  0  0  0  0  0  0  0
  -91.4008   38.6725   -8.5316 C   0  0  0  0  0  0  0  0  0  0  0  0
  -91.3189   37.5030   -7.8099 C   0  0  0  0  0  0  0  0  0  0  0  0
 15 16  1  0  0  0
 16  9  1  0  0  0
  9 10  2  0  0  0
 10 11  1  0  0  0
 11 12  2  0  0  0
 12 13  1  0  0  0
 13 17  1  0  0  0
 17 18  1  0  0  0
 13 14  2  0  0  0
 14 19  1  0  0  0
 19 20  1  0  0  0
 11  1  1  0  0  0
  1  2  2  0  0  0
  1  3  1  0  0  0
  3  4  1  0  0  0
  4  5  1  0  0  0
  5  6  1  0  0  0
  6  7  1  0  0  0
  7  8  1  0  0  0
  6 21  1  0  0  0
 21 22  1  0  0  0
 22 23  2  0  0  0
 22 25  1  0  0  0
 25 26  2  0  0  0
 26 27  1  0  0  0
 27 28  2  0  0  0
 28 29  1  0  0  0
 29 30  2  0  0  0
 28 31  1  0  0  0
 31 32  2  0  0  0
 32 33  1  0  0  0
 33 34  2  0  0  0
 34 35  1  0  0  0
 35 36  2  0  0  0
 14  9  1  0  0  0
  8  3  1  0  0  0
 30 25  1  0  0  0
 36 31  1  0  0  0
 21 24  1  0  0  0
M  END
> <minimizedAffinity>
-4.90503

> <CNNscore>
0.1837763488

> <CNNaffinity>
4.8870491982

> <CNN_VS>
0.8981240392

> <CNNaffinity_variance>
0.4100261629

$$$$
[H]c1c([H])c([H])c(-c2c([H])c([H])c(C(=O)N([H])[C@]([H])(C(=O)N3C([H])([H])C([H])([H])C([H])(N(C([H])([H])[H])C([H])([H])[H])C([H])([H])C3([H])[H])C([H])([H])C([H])(C([H])([H])[H])C([H])([H])[H])c([H])c2[H])c([H])c1[H]


 32 34  0  0  0  0  0  0  0  0999 V2000
  -88.3796   35.2108   -3.2476 C   0  0  0  0  0  0  0  0  0  0  0  0
  -88.9658   34.6165   -4.4636 C   0  0  0  0  0  0  0  0  0  0  0  0
  -88.2110   33.8027   -5.0933 O   0  0  0  0  0  0  0  0  0  0  0  0
  -90.2550   34.8560   -4.9828 N   0  0  0  0  0  0  0  0  0  0  0  0
  -90.6092   34.2261   -6.2829 C   0  0  0  0  0  0  0  0  0  0  0  0
  -90.8882   35.4320   -7.1878 C   0  0  0  0  0  0  0  0  0  0  0  0
  -92.0943   36.1880   -6.7071 C   0  0  0  0  0  0  0  0  0  0  0  0
  -91.8271   36.7041   -5.3056 C   0  0  0  0  0  0  0  0  0  0  0  0
  -91.3202   35.6043   -4.4013 C   0  0  0  0  0  0  0  0  0  0  0  0
  -92.2782   37.3684   -7.5330 N   0  0  0  0  0  0  0  0  0  0  0  0
  -92.7264   38.5068   -6.7562 C   0  0  0  0  0  0  0  0  0  0  0  0
  -91.0370   37.7644   -8.1743 C   0  0  0  0  0  0  0  0  0  0  0  0
  -87.6187   34.2612   -2.4819 N   0  0  0  0  0  0  0  0  0  0  0  0
  -88.1139   33.2276   -1.6654 C   0  0  0  0  0  0  0  0  0  0  0  0
  -89.3491   33.0555   -1.5576 O   0  0  0  0  0  0  0  0  0  0  0  0
  -86.5509   34.3240   -2.5224 H   0  0  0  0  0  0  0  0  0  0  0  0
  -87.2521   32.3316   -0.9261 C   0  0  0  0  0  0  0  0  0  0  0  0
  -86.0073   32.7065   -0.4971 C   0  0  0  0  0  0  0  0  0  0  0  0
  -85.1723   31.8397    0.2057 C   0  0  0  0  0  0  0  0  0  0  0  0
  -85.6352   30.5760    0.4634 C   0  0  0  0  0  0  0  0  0  0  0  0
  -86.8757   30.1488    0.0559 C   0  0  0  0  0  0  0  0  0  0  0  0
  -87.6688   31.0551   -0.6423 C   0  0  0  0  0  0  0  0  0  0  0  0
  -84.7792   29.6546    1.1981 C   0  0  0  0  0  0  0  0  0  0  0  0
  -83.4401   30.0062    1.3519 C   0  0  0  0  0  0  0  0  0  0  0  0
  -82.6115   29.1666    2.0315 C   0  0  0  0  0  0  0  0  0  0  0  0
  -83.0857   27.9797    2.5640 C   0  0  0  0  0  0  0  0  0  0  0  0
  -84.4067   27.6296    2.4141 C   0  0  0  0  0  0  0  0  0  0  0  0
  -85.2402   28.4737    1.7311 C   0  0  0  0  0  0  0  0  0  0  0  0
  -87.6054   36.4488   -3.5899 C   0  0  0  0  0  0  0  0  0  0  0  0
  -87.8936   38.7980   -2.7870 C   0  0  0  0  0  0  0  0  0  0  0  0
  -88.3869   37.7053   -3.7177 C   0  0  0  0  0  0  0  0  0  0  0  0
  -88.6046   38.2699   -5.0679 C   0  0  0  0  0  0  0  0  0  0  0  0
 30 31  1  0  0  0
 31 32  1  0  0  0
 31 29  1  0  0  0
 29  1  1  0  0  0
  1 13  1  0  0  0
 13 14  1  0  0  0
 14 15  2  0  0  0
 14 17  1  0  0  0
 17 18  2  0  0  0
 18 19  1  0  0  0
 19 20  2  0  0  0
 20 21  1  0  0  0
 21 22  2  0  0  0
 20 23  1  0  0  0
 23 24  2  0  0  0
 24 25  1  0  0  0
 25 26  2  0  0  0
 26 27  1  0  0  0
 27 28  2  0  0  0
  1  2  1  0  0  0
  2  3  2  0  0  0
  2  4  1  0  0  0
  4  5  1  0  0  0
  5  6  1  0  0  0
  6  7  1  0  0  0
  7  8  1  0  0  0
  8  9  1  0  0  0
  7 10  1  0  0  0
 10 11  1  0  0  0
 10 12  1  0  0  0
 22 17  1  0  0  0
 28 23  1  0  0  0
  9  4  1  0  0  0
 13 16  1  0  0  0
M  END
> <minimizedAffinity>
-8.82191

> <CNNscore>
0.2186194807

> <CNNaffinity>
5.7535500526

> <CNN_VS>
1.2578381300

> <CNNaffinity_variance>
0.1312159598

$$$$
[H]c1c([H])c([H])c(-c2c([H])c([H])c(C(=O)N([H])[C@]([H])(C(=O)N3C([H])([H])C([H])([H])C([H])(N(C([H])([H])[H])C([H])([H])[H])C([H])([H])C3([H])[H])C([H])([H])C([H])(C([H])([H])[H])C([H])([H])[H])c([H])c2[H])c([H])c1[H]


 32 34  0  0  0  0  0  0  0  0999 V2000
  -86.3035   29.3187   -0.0771 C   0  0  0  0  0  0  0  0  0  0  0  0
  -87.2057   28.1583    0.0452 C   0  0  0  0  0  0  0  0  0  0  0  0
  -86.6604   27.0831    0.4637 O   0  0  0  0  0  0  0  0  0  0  0  0
  -88.5849   28.1270   -0.2481 N   0  0  0  0  0  0  0  0  0  0  0  0
  -89.2872   26.8195   -0.1498 C   0  0  0  0  0  0  0  0  0  0  0  0
  -89.7887   26.5870   -1.5800 C   0  0  0  0  0  0  0  0  0  0  0  0
  -90.8094   27.6223   -1.9589 C   0  0  0  0  0  0  0  0  0  0  0  0
  -90.1644   28.9945   -1.9044 C   0  0  0  0  0  0  0  0  0  0  0  0
  -89.4427   29.2119   -0.5944 C   0  0  0  0  0  0  0  0  0  0  0  0
  -91.1982   27.4247   -3.3443 N   0  0  0  0  0  0  0  0  0  0  0  0
  -91.8152   26.1300   -3.5528 C   0  0  0  0  0  0  0  0  0  0  0  0
  -92.1654   28.4205   -3.7700 C   0  0  0  0  0  0  0  0  0  0  0  0
  -86.9216   30.4286   -0.7501 N   0  0  0  0  0  0  0  0  0  0  0  0
  -86.3982   31.7235   -0.9225 C   0  0  0  0  0  0  0  0  0  0  0  0
  -85.2652   32.0036   -0.4700 O   0  0  0  0  0  0  0  0  0  0  0  0
  -87.8900   30.2787   -1.1808 H   0  0  0  0  0  0  0  0  0  0  0  0
  -87.1159   32.7736   -1.6113 C   0  0  0  0  0  0  0  0  0  0  0  0
  -86.4772   33.8491   -2.1674 C   0  0  0  0  0  0  0  0  0  0  0  0
  -87.1695   34.8666   -2.8215 C   0  0  0  0  0  0  0  0  0  0  0  0
  -88.5338   34.7642   -2.8973 C   0  0  0  0  0  0  0  0  0  0  0  0
  -89.2241   33.7066   -2.3568 C   0  0  0  0  0  0  0  0  0  0  0  0
  -88.4833   32.7182   -1.7147 C   0  0  0  0  0  0  0  0  0  0  0  0
  -89.2766   35.8160   -3.5783 C   0  0  0  0  0  0  0  0  0  0  0  0
  -90.5358   35.4922   -4.0782 C   0  0  0  0  0  0  0  0  0  0  0  0
  -91.2564   36.4511   -4.7222 C   0  0  0  0  0  0  0  0  0  0  0  0
  -90.7514   37.7304   -4.8817 C   0  0  0  0  0  0  0  0  0  0  0  0
  -89.5091   38.0534   -4.3896 C   0  0  0  0  0  0  0  0  0  0  0  0
  -88.7843   37.0896   -3.7416 C   0  0  0  0  0  0  0  0  0  0  0  0
  -85.7335   29.6831    1.2615 C   0  0  0  0  0  0  0  0  0  0  0  0
  -83.3432   30.2985    1.6535 C   0  0  0  0  0  0  0  0  0  0  0  0
  -84.3673   29.1824    1.5587 C   0  0  0  0  0  0  0  0  0  0  0  0
  -84.1858   28.2502    2.6933 C   0  0  0  0  0  0  0  0  0  0  0  0
 30 31  1  0  0  0
 31 32  1  0  0  0
 31 29  1  0  0  0
 29  1  1  0  0  0
  1 13  1  0  0  0
 13 14  1  0  0  0
 14 15  2  0  0  0
 14 17  1  0  0  0
 17 18  2  0  0  0
 18 19  1  0  0  0
 19 20  2  0  0  0
 20 21  1  0  0  0
 21 22  2  0  0  0
 20 23  1  0  0  0
 23 24  2  0  0  0
 24 25  1  0  0  0
 25 26  2  0  0  0
 26 27  1  0  0  0
 27 28  2  0  0  0
  1  2  1  0  0  0
  2  3  2  0  0  0
  2  4  1  0  0  0
  4  5  1  0  0  0
  5  6  1  0  0  0
  6  7  1  0  0  0
  7  8  1  0  0  0
  8  9  1  0  0  0
  7 10  1  0  0  0
 10 11  1  0  0  0
 10 12  1  0  0  0
 22 17  1  0  0  0
 28 23  1  0  0  0
  9  4  1  0  0  0
 13 16  1  0  0  0
M  END
> <minimizedAffinity>
-8.08661

> <CNNscore>
0.1855411083

> <CNNaffinity>
5.9903688431

> <CNN_VS>
1.1114597321

> <CNNaffinity_variance>
0.1665243655

$$$$
[H]c1c([H])c([H])c(-c2c([H])c([H])c(C(=O)N([H])[C@]([H])(C(=O)N3C([H])([H])C([H])([H])C([H])(N(C([H])([H])[H])C([H])([H])[H])C([H])([H])C3([H])[H])C([H])([H])C([H])(C([H])([H])[H])C([H])([H])[H])c([H])c2[H])c([H])c1[H]


 32 34  0  0  0  0  0  0  0  0999 V2000
  -86.0064   29.3213    0.7061 C   0  0  0  0  0  0  0  0  0  0  0  0
  -86.9754   28.5068    1.4631 C   0  0  0  0  0  0  0  0  0  0  0  0
  -86.6888   28.3173    2.6921 O   0  0  0  0  0  0  0  0  0  0  0  0
  -88.1643   27.9324    0.9674 N   0  0  0  0  0  0  0  0  0  0  0  0
  -88.9487   27.0597    1.8816 C   0  0  0  0  0  0  0  0  0  0  0  0
  -88.9355   25.7050    1.1635 C   0  0  0  0  0  0  0  0  0  0  0  0
  -89.6832   25.7869   -0.1371 C   0  0  0  0  0  0  0  0  0  0  0  0
  -89.0010   26.8014   -1.0355 C   0  0  0  0  0  0  0  0  0  0  0  0
  -88.7675   28.1080   -0.3124 C   0  0  0  0  0  0  0  0  0  0  0  0
  -89.5778   24.5143   -0.8291 N   0  0  0  0  0  0  0  0  0  0  0  0
  -90.0259   23.4113   -0.0028 C   0  0  0  0  0  0  0  0  0  0  0  0
  -90.3954   24.4949   -2.0290 C   0  0  0  0  0  0  0  0  0  0  0  0
  -86.6441   30.3121   -0.1177 N   0  0  0  0  0  0  0  0  0  0  0  0
  -86.3279   31.6802   -0.2099 C   0  0  0  0  0  0  0  0  0  0  0  0
  -85.3880   32.1503    0.4703 O   0  0  0  0  0  0  0  0  0  0  0  0
  -87.4532   29.9987   -0.7445 H   0  0  0  0  0  0  0  0  0  0  0  0
  -87.0475   32.5947   -1.0690 C   0  0  0  0  0  0  0  0  0  0  0  0
  -86.4100   33.5546   -1.8081 C   0  0  0  0  0  0  0  0  0  0  0  0
  -87.1039   34.4430   -2.6275 C   0  0  0  0  0  0  0  0  0  0  0  0
  -88.4687   34.3318   -2.6782 C   0  0  0  0  0  0  0  0  0  0  0  0
  -89.1579   33.3869   -1.9574 C   0  0  0  0  0  0  0  0  0  0  0  0
  -88.4154   32.5249   -1.1551 C   0  0  0  0  0  0  0  0  0  0  0  0
  -89.2134   35.2493   -3.5298 C   0  0  0  0  0  0  0  0  0  0  0  0
  -90.2780   34.7266   -4.2603 C   0  0  0  0  0  0  0  0  0  0  0  0
  -90.9941   35.5561   -5.0681 C   0  0  0  0  0  0  0  0  0  0  0  0
  -90.6744   36.8997   -5.1672 C   0  0  0  0  0  0  0  0  0  0  0  0
  -89.6243   37.4189   -4.4476 C   0  0  0  0  0  0  0  0  0  0  0  0
  -88.9043   36.5852   -3.6350 C   0  0  0  0  0  0  0  0  0  0  0  0
  -84.9721   29.8964    1.6274 C   0  0  0  0  0  0  0  0  0  0  0  0
  -82.5790   30.5282    1.2804 C   0  0  0  0  0  0  0  0  0  0  0  0
  -83.5822   29.4027    1.4544 C   0  0  0  0  0  0  0  0  0  0  0  0
  -83.0541   28.4185    2.4249 C   0  0  0  0  0  0  0  0  0  0  0  0
 30 31  1  0  0  0
 31 32  1  0  0  0
 31 29  1  0  0  0
 29  1  1  0  0  0
  1 13  1  0  0  0
 13 14  1  0  0  0
 14 15  2  0  0  0
 14 17  1  0  0  0
 17 18  2  0  0  0
 18 19  1  0  0  0
 19 20  2  0  0  0
 20 21  1  0  0  0
 21 22  2  0  0  0
 20 23  1  0  0  0
 23 24  2  0  0  0
 24 25  1  0  0  0
 25 26  2  0  0  0
 26 27  1  0  0  0
 27 28  2  0  0  0
  1  2  1  0  0  0
  2  3  2  0  0  0
  2  4  1  0  0  0
  4  5  1  0  0  0
  5  6  1  0  0  0
  6  7  1  0  0  0
  7  8  1  0  0  0
  8  9  1  0  0  0
  7 10  1  0  0  0
 10 11  1  0  0  0
 10 12  1  0  0  0
 22 17  1  0  0  0
 28 23  1  0  0  0
  9  4  1  0  0  0
 13 16  1  0  0  0
M  END
> <minimizedAffinity>
-8.80187

> <CNNscore>
0.1855017990

> <CNNaffinity>
6.0871896744

> <CNN_VS>
1.1291846037

> <CNNaffinity_variance>
0.1303471178

$$$$
[H]c1c([H])c([H])c(-c2c([H])c([H])c(C(=O)N([H])[C@]([H])(C(=O)N3C([H])([H])C([H])([H])C([H])(N(C([H])([H])[H])C([H])([H])[H])C([H])([H])C3([H])[H])C([H])([H])C([H])(C([H])([H])[H])C([H])([H])[H])c([H])c2[H])c([H])c1[H]


 32 34  0  0  0  0  0  0  0  0999 V2000
  -86.8698   31.7072   -0.8924 C   0  0  0  0  0  0  0  0  0  0  0  0
  -85.5484   31.8033   -0.2442 C   0  0  0  0  0  0  0  0  0  0  0  0
  -84.6442   32.3876   -0.9294 O   0  0  0  0  0  0  0  0  0  0  0  0
  -85.1989   31.3226    1.0348 N   0  0  0  0  0  0  0  0  0  0  0  0
  -83.7767   31.4360    1.4555 C   0  0  0  0  0  0  0  0  0  0  0  0
  -83.3604   29.9756    1.6673 C   0  0  0  0  0  0  0  0  0  0  0  0
  -84.1236   29.3669    2.8094 C   0  0  0  0  0  0  0  0  0  0  0  0
  -85.6047   29.3903    2.4813 C   0  0  0  0  0  0  0  0  0  0  0  0
  -86.0480   30.7646    2.0349 C   0  0  0  0  0  0  0  0  0  0  0  0
  -83.7684   27.9635    2.9266 N   0  0  0  0  0  0  0  0  0  0  0  0
  -84.6626   27.1145    2.1651 C   0  0  0  0  0  0  0  0  0  0  0  0
  -82.4287   27.7128    2.4258 C   0  0  0  0  0  0  0  0  0  0  0  0
  -87.0007   32.5999   -2.0117 N   0  0  0  0  0  0  0  0  0  0  0  0
  -88.1295   33.3582   -2.3737 C   0  0  0  0  0  0  0  0  0  0  0  0
  -89.1684   33.3012   -1.6777 O   0  0  0  0  0  0  0  0  0  0  0  0
  -86.1562   32.7220   -2.6581 H   0  0  0  0  0  0  0  0  0  0  0  0
  -88.1548   34.2208   -3.5345 C   0  0  0  0  0  0  0  0  0  0  0  0
  -89.0980   34.0914   -4.5182 C   0  0  0  0  0  0  0  0  0  0  0  0
  -89.1161   34.9153   -5.6421 C   0  0  0  0  0  0  0  0  0  0  0  0
  -88.1474   35.8793   -5.7428 C   0  0  0  0  0  0  0  0  0  0  0  0
  -87.1781   36.0521   -4.7847 C   0  0  0  0  0  0  0  0  0  0  0  0
  -87.2067   35.2019   -3.6827 C   0  0  0  0  0  0  0  0  0  0  0  0
  -88.1490   36.7525   -6.9086 C   0  0  0  0  0  0  0  0  0  0  0  0
  -86.9442   37.3567   -7.2600 C   0  0  0  0  0  0  0  0  0  0  0  0
  -86.9107   38.1807   -8.3433 C   0  0  0  0  0  0  0  0  0  0  0  0
  -88.0530   38.4193   -9.0884 C   0  0  0  0  0  0  0  0  0  0  0  0
  -89.2439   37.8246   -8.7443 C   0  0  0  0  0  0  0  0  0  0  0  0
  -89.2778   36.9958   -7.6554 C   0  0  0  0  0  0  0  0  0  0  0  0
  -87.1835   30.2811   -1.2348 C   0  0  0  0  0  0  0  0  0  0  0  0
  -89.0751   28.9985   -2.2461 C   0  0  0  0  0  0  0  0  0  0  0  0
  -88.6007   29.8612   -1.0911 C   0  0  0  0  0  0  0  0  0  0  0  0
  -89.0334   29.2538    0.1869 C   0  0  0  0  0  0  0  0  0  0  0  0
 30 31  1  0  0  0
 31 32  1  0  0  0
 31 29  1  0  0  0
 29  1  1  0  0  0
  1 13  1  0  0  0
 13 14  1  0  0  0
 14 15  2  0  0  0
 14 17  1  0  0  0
 17 18  2  0  0  0
 18 19  1  0  0  0
 19 20  2  0  0  0
 20 21  1  0  0  0
 21 22  2  0  0  0
 20 23  1  0  0  0
 23 24  2  0  0  0
 24 25  1  0  0  0
 25 26  2  0  0  0
 26 27  1  0  0  0
 27 28  2  0  0  0
  1  2  1  0  0  0
  2  3  2  0  0  0
  2  4  1  0  0  0
  4  5  1  0  0  0
  5  6  1  0  0  0
  6  7  1  0  0  0
  7  8  1  0  0  0
  8  9  1  0  0  0
  7 10  1  0  0  0
 10 11  1  0  0  0
 10 12  1  0  0  0
 22 17  1  0  0  0
 28 23  1  0  0  0
  9  4  1  0  0  0
 13 16  1  0  0  0
M  END
> <minimizedAffinity>
-7.08566

> <CNNscore>
0.1785290688

> <CNNaffinity>
6.1725206375

> <CNN_VS>
1.1019743681

> <CNNaffinity_variance>
0.2211298048

$$$$
[H]c1c([H])c([H])c(-c2c([H])c([H])c(C(=O)N([H])[C@]([H])(C(=O)N3C([H])([H])C([H])([H])C([H])(N(C([H])([H])[H])C([H])([H])[H])C([H])([H])C3([H])[H])C([H])([H])C([H])(C([H])([H])[H])C([H])([H])[H])c([H])c2[H])c([H])c1[H]


 32 34  0  0  0  0  0  0  0  0999 V2000
  -88.8093   35.5326   -3.5902 C   0  0  0  0  0  0  0  0  0  0  0  0
  -89.0093   35.0642   -4.9744 C   0  0  0  0  0  0  0  0  0  0  0  0
  -88.0034   35.1989   -5.7481 O   0  0  0  0  0  0  0  0  0  0  0  0
  -90.1813   34.4917   -5.5106 N   0  0  0  0  0  0  0  0  0  0  0  0
  -90.2005   34.1803   -6.9650 C   0  0  0  0  0  0  0  0  0  0  0  0
  -91.3421   35.0577   -7.4923 C   0  0  0  0  0  0  0  0  0  0  0  0
  -92.6584   34.6174   -6.9172 C   0  0  0  0  0  0  0  0  0  0  0  0
  -92.6115   34.7645   -5.4079 C   0  0  0  0  0  0  0  0  0  0  0  0
  -91.3756   34.1144   -4.8296 C   0  0  0  0  0  0  0  0  0  0  0  0
  -93.7025   35.5205   -7.3686 N   0  0  0  0  0  0  0  0  0  0  0  0
  -94.5322   34.9182   -8.3928 C   0  0  0  0  0  0  0  0  0  0  0  0
  -94.5885   35.8918   -6.2798 C   0  0  0  0  0  0  0  0  0  0  0  0
  -88.0072   34.6275   -2.8127 N   0  0  0  0  0  0  0  0  0  0  0  0
  -88.4462   33.5100   -2.0787 C   0  0  0  0  0  0  0  0  0  0  0  0
  -89.6612   33.2092   -2.0678 O   0  0  0  0  0  0  0  0  0  0  0  0
  -86.9514   34.7995   -2.7733 H   0  0  0  0  0  0  0  0  0  0  0  0
  -87.5476   32.6697   -1.3180 C   0  0  0  0  0  0  0  0  0  0  0  0
  -87.8851   31.3987   -0.9378 C   0  0  0  0  0  0  0  0  0  0  0  0
  -87.0238   30.5928   -0.1955 C   0  0  0  0  0  0  0  0  0  0  0  0
  -85.8047   31.1124    0.1529 C   0  0  0  0  0  0  0  0  0  0  0  0
  -85.4161   32.3811   -0.2027 C   0  0  0  0  0  0  0  0  0  0  0  0
  -86.3149   33.1431   -0.9440 C   0  0  0  0  0  0  0  0  0  0  0  0
  -84.8885   30.2861    0.9273 C   0  0  0  0  0  0  0  0  0  0  0  0
  -85.4374   29.2494    1.6784 C   0  0  0  0  0  0  0  0  0  0  0  0
  -84.6096   28.4590    2.4156 C   0  0  0  0  0  0  0  0  0  0  0  0
  -83.2422   28.6768    2.4236 C   0  0  0  0  0  0  0  0  0  0  0  0
  -82.6972   29.6992    1.6835 C   0  0  0  0  0  0  0  0  0  0  0  0
  -83.5292   30.4939    0.9418 C   0  0  0  0  0  0  0  0  0  0  0  0
  -88.2882   36.9389   -3.5825 C   0  0  0  0  0  0  0  0  0  0  0  0
  -88.8913   38.8410   -5.0873 C   0  0  0  0  0  0  0  0  0  0  0  0
  -89.2723   38.0122   -3.8743 C   0  0  0  0  0  0  0  0  0  0  0  0
  -90.7063   37.6563   -3.9521 C   0  0  0  0  0  0  0  0  0  0  0  0
 30 31  1  0  0  0
 31 32  1  0  0  0
 31 29  1  0  0  0
 29  1  1  0  0  0
  1 13  1  0  0  0
 13 14  1  0  0  0
 14 15  2  0  0  0
 14 17  1  0  0  0
 17 18  2  0  0  0
 18 19  1  0  0  0
 19 20  2  0  0  0
 20 21  1  0  0  0
 21 22  2  0  0  0
 20 23  1  0  0  0
 23 24  2  0  0  0
 24 25  1  0  0  0
 25 26  2  0  0  0
 26 27  1  0  0  0
 27 28  2  0  0  0
  1  2  1  0  0  0
  2  3  2  0  0  0
  2  4  1  0  0  0
  4  5  1  0  0  0
  5  6  1  0  0  0
  6  7  1  0  0  0
  7  8  1  0  0  0
  8  9  1  0  0  0
  7 10  1  0  0  0
 10 11  1  0  0  0
 10 12  1  0  0  0
 22 17  1  0  0  0
 28 23  1  0  0  0
  9  4  1  0  0  0
 13 16  1  0  0  0
M  END
> <minimizedAffinity>
-8.27908

> <CNNscore>
0.1767627597

> <CNNaffinity>
5.7039728165

> <CNN_VS>
1.0082499981

> <CNNaffinity_variance>
0.1839377284

$$$$
[H]c1c([H])c([H])c(-c2c([H])c([H])c(C(=O)N([H])[C@]([H])(C(=O)N3C([H])([H])C([H])([H])C([H])(N(C([H])([H])[H])C([H])([H])[H])C([H])([H])C3([H])[H])C([H])([H])C([H])(C([H])([H])[H])C([H])([H])[H])c([H])c2[H])c([H])c1[H]


 32 34  0  0  0  0  0  0  0  0999 V2000
  -88.0201   35.2102   -3.4558 C   0  0  0  0  0  0  0  0  0  0  0  0
  -89.3380   34.7268   -3.9083 C   0  0  0  0  0  0  0  0  0  0  0  0
  -90.3086   35.5356   -3.7286 O   0  0  0  0  0  0  0  0  0  0  0  0
  -89.6196   33.4827   -4.5100 N   0  0  0  0  0  0  0  0  0  0  0  0
  -91.0417   33.1558   -4.7986 C   0  0  0  0  0  0  0  0  0  0  0  0
  -91.2883   31.9025   -3.9505 C   0  0  0  0  0  0  0  0  0  0  0  0
  -90.4510   30.7561   -4.4425 C   0  0  0  0  0  0  0  0  0  0  0  0
  -88.9850   31.1266   -4.3180 C   0  0  0  0  0  0  0  0  0  0  0  0
  -88.7039   32.4766   -4.9367 C   0  0  0  0  0  0  0  0  0  0  0  0
  -90.6441   29.6137   -3.5667 N   0  0  0  0  0  0  0  0  0  0  0  0
  -90.4672   29.9661   -2.1721 C   0  0  0  0  0  0  0  0  0  0  0  0
  -91.9850   29.0709   -3.6923 C   0  0  0  0  0  0  0  0  0  0  0  0
  -87.3171   34.2358   -2.6663 N   0  0  0  0  0  0  0  0  0  0  0  0
  -87.8428   33.4198   -1.6475 C   0  0  0  0  0  0  0  0  0  0  0  0
  -89.0569   33.4952   -1.3522 O   0  0  0  0  0  0  0  0  0  0  0  0
  -86.2735   34.0932   -2.8572 H   0  0  0  0  0  0  0  0  0  0  0  0
  -87.0366   32.4756   -0.9052 C   0  0  0  0  0  0  0  0  0  0  0  0
  -85.8520   32.8316   -0.3188 C   0  0  0  0  0  0  0  0  0  0  0  0
  -85.0697   31.9195    0.3871 C   0  0  0  0  0  0  0  0  0  0  0  0
  -85.5228   30.6299    0.4833 C   0  0  0  0  0  0  0  0  0  0  0  0
  -86.7040   30.2199   -0.0859 C   0  0  0  0  0  0  0  0  0  0  0  0
  -87.4461   31.1718   -0.7795 C   0  0  0  0  0  0  0  0  0  0  0  0
  -84.7214   29.6607    1.2183 C   0  0  0  0  0  0  0  0  0  0  0  0
  -83.3667   29.9404    1.3826 C   0  0  0  0  0  0  0  0  0  0  0  0
  -82.5880   29.0547    2.0627 C   0  0  0  0  0  0  0  0  0  0  0  0
  -83.1276   27.8916    2.5855 C   0  0  0  0  0  0  0  0  0  0  0  0
  -84.4641   27.6124    2.4251 C   0  0  0  0  0  0  0  0  0  0  0  0
  -85.2475   28.5029    1.7416 C   0  0  0  0  0  0  0  0  0  0  0  0
  -87.2197   35.7164   -4.6188 C   0  0  0  0  0  0  0  0  0  0  0  0
  -87.5988   37.9595   -3.5841 C   0  0  0  0  0  0  0  0  0  0  0  0
  -87.2184   37.1859   -4.8332 C   0  0  0  0  0  0  0  0  0  0  0  0
  -86.0299   37.8099   -5.4557 C   0  0  0  0  0  0  0  0  0  0  0  0
 30 31  1  0  0  0
 31 32  1  0  0  0
 31 29  1  0  0  0
 29  1  1  0  0  0
  1 13  1  0  0  0
 13 14  1  0  0  0
 14 15  2  0  0  0
 14 17  1  0  0  0
 17 18  2  0  0  0
 18 19  1  0  0  0
 19 20  2  0  0  0
 20 21  1  0  0  0
 21 22  2  0  0  0
 20 23  1  0  0  0
 23 24  2  0  0  0
 24 25  1  0  0  0
 25 26  2  0  0  0
 26 27  1  0  0  0
 27 28  2  0  0  0
  1  2  1  0  0  0
  2  3  2  0  0  0
  2  4  1  0  0  0
  4  5  1  0  0  0
  5  6  1  0  0  0
  6  7  1  0  0  0
  7  8  1  0  0  0
  8  9  1  0  0  0
  7 10  1  0  0  0
 10 11  1  0  0  0
 10 12  1  0  0  0
 22 17  1  0  0  0
 28 23  1  0  0  0
  9  4  1  0  0  0
 13 16  1  0  0  0
M  END
> <minimizedAffinity>
-9.38099

> <CNNscore>
0.1337520480

> <CNNaffinity>
5.8340725899

> <CNN_VS>
0.7803191543

> <CNNaffinity_variance>
0.2746520936

$$$$
[H]c1c([H])c([H])c(-c2c([H])c([H])c(C(=O)N([H])[C@]([H])(C(=O)N3C([H])([H])C([H])([H])C([H])(N(C([H])([H])[H])C([H])([H])[H])C([H])([H])C3([H])[H])C([H])([H])C([H])(C([H])([H])[H])C([H])([H])[H])c([H])c2[H])c([H])c1[H]


 32 34  0  0  0  0  0  0  0  0999 V2000
  -85.7898   28.9155    0.3081 C   0  0  0  0  0  0  0  0  0  0  0  0
  -86.4516   27.8365    1.0652 C   0  0  0  0  0  0  0  0  0  0  0  0
  -85.6668   27.0231    1.6575 O   0  0  0  0  0  0  0  0  0  0  0  0
  -87.8400   27.6257    1.1951 N   0  0  0  0  0  0  0  0  0  0  0  0
  -88.2937   26.4119    1.9255 C   0  0  0  0  0  0  0  0  0  0  0  0
  -89.0817   25.6406    0.8602 C   0  0  0  0  0  0  0  0  0  0  0  0
  -90.3072   26.4065    0.4489 C   0  0  0  0  0  0  0  0  0  0  0  0
  -89.8816   27.7336   -0.1507 C   0  0  0  0  0  0  0  0  0  0  0  0
  -88.9087   28.4583    0.7509 C   0  0  0  0  0  0  0  0  0  0  0  0
  -90.9816   25.6900   -0.6194 N   0  0  0  0  0  0  0  0  0  0  0  0
  -91.9484   26.5252   -1.3037 C   0  0  0  0  0  0  0  0  0  0  0  0
  -90.0406   25.2318   -1.6259 C   0  0  0  0  0  0  0  0  0  0  0  0
  -86.6472   29.4939   -0.6906 N   0  0  0  0  0  0  0  0  0  0  0  0
  -87.0025   30.8481   -0.8327 C   0  0  0  0  0  0  0  0  0  0  0  0
  -86.5462   31.6994   -0.0365 O   0  0  0  0  0  0  0  0  0  0  0  0
  -87.0751   28.8419   -1.4237 H   0  0  0  0  0  0  0  0  0  0  0  0
  -87.8877   31.3209   -1.8744 C   0  0  0  0  0  0  0  0  0  0  0  0
  -87.4275   32.0078   -2.9655 C   0  0  0  0  0  0  0  0  0  0  0  0
  -88.2813   32.4731   -3.9638 C   0  0  0  0  0  0  0  0  0  0  0  0
  -89.6214   32.2221   -3.8260 C   0  0  0  0  0  0  0  0  0  0  0  0
  -90.1357   31.5377   -2.7516 C   0  0  0  0  0  0  0  0  0  0  0  0
  -89.2384   31.0954   -1.7836 C   0  0  0  0  0  0  0  0  0  0  0  0
  -90.5313   32.6980   -4.8591 C   0  0  0  0  0  0  0  0  0  0  0  0
  -90.0347   33.6211   -5.7765 C   0  0  0  0  0  0  0  0  0  0  0  0
  -90.8590   34.0884   -6.7541 C   0  0  0  0  0  0  0  0  0  0  0  0
  -92.1720   33.6574   -6.8407 C   0  0  0  0  0  0  0  0  0  0  0  0
  -92.6654   32.7465   -5.9368 C   0  0  0  0  0  0  0  0  0  0  0  0
  -91.8367   32.2761   -4.9539 C   0  0  0  0  0  0  0  0  0  0  0  0
  -85.2055   29.9309    1.2444 C   0  0  0  0  0  0  0  0  0  0  0  0
  -83.2987   31.5363    1.4267 C   0  0  0  0  0  0  0  0  0  0  0  0
  -83.7304   30.0984    1.2042 C   0  0  0  0  0  0  0  0  0  0  0  0
  -82.8927   29.1999    2.0289 C   0  0  0  0  0  0  0  0  0  0  0  0
 30 31  1  0  0  0
 31 32  1  0  0  0
 31 29  1  0  0  0
 29  1  1  0  0  0
  1 13  1  0  0  0
 13 14  1  0  0  0
 14 15  2  0  0  0
 14 17  1  0  0  0
 17 18  2  0  0  0
 18 19  1  0  0  0
 19 20  2  0  0  0
 20 21  1  0  0  0
 21 22  2  0  0  0
 20 23  1  0  0  0
 23 24  2  0  0  0
 24 25  1  0  0  0
 25 26  2  0  0  0
 26 27  1  0  0  0
 27 28  2  0  0  0
  1  2  1  0  0  0
  2  3  2  0  0  0
  2  4  1  0  0  0
  4  5  1  0  0  0
  5  6  1  0  0  0
  6  7  1  0  0  0
  7  8  1  0  0  0
  8  9  1  0  0  0
  7 10  1  0  0  0
 10 11  1  0  0  0
 10 12  1  0  0  0
 22 17  1  0  0  0
 28 23  1  0  0  0
  9  4  1  0  0  0
 13 16  1  0  0  0
M  END
> <minimizedAffinity>
-7.86436

> <CNNscore>
0.1281172782

> <CNNaffinity>
6.0213785172

> <CNN_VS>
0.7714426517

> <CNNaffinity_variance>
0.1862145811

$$$$
[H]c1c([H])c([H])c(-c2c([H])c([H])c(C(=O)N([H])[C@]([H])(C(=O)N3C([H])([H])C([H])([H])C([H])(N(C([H])([H])[H])C([H])([H])[H])C([H])([H])C3([H])[H])C([H])([H])C([H])(C([H])([H])[H])C([H])([H])[H])c([H])c2[H])c([H])c1[H]


 32 34  0  0  0  0  0  0  0  0999 V2000
  -88.3005   28.8440   -2.2395 C   0  0  0  0  0  0  0  0  0  0  0  0
  -89.5986   28.4710   -1.6469 C   0  0  0  0  0  0  0  0  0  0  0  0
  -90.4324   29.4273   -1.5097 O   0  0  0  0  0  0  0  0  0  0  0  0
  -89.9971   27.1842   -1.2292 N   0  0  0  0  0  0  0  0  0  0  0  0
  -91.3198   27.0480   -0.5625 C   0  0  0  0  0  0  0  0  0  0  0  0
  -90.9537   26.5170    0.8285 C   0  0  0  0  0  0  0  0  0  0  0  0
  -90.3521   25.1437    0.7306 C   0  0  0  0  0  0  0  0  0  0  0  0
  -89.0801   25.2197   -0.0929 C   0  0  0  0  0  0  0  0  0  0  0  0
  -89.3120   25.9453   -1.3984 C   0  0  0  0  0  0  0  0  0  0  0  0
  -89.9394   24.7080    2.0532 N   0  0  0  0  0  0  0  0  0  0  0  0
  -89.3301   25.7831    2.8104 C   0  0  0  0  0  0  0  0  0  0  0  0
  -91.0708   24.2385    2.8329 C   0  0  0  0  0  0  0  0  0  0  0  0
  -88.1650   30.2638   -2.4204 N   0  0  0  0  0  0  0  0  0  0  0  0
  -87.9052   30.9524   -3.6198 C   0  0  0  0  0  0  0  0  0  0  0  0
  -87.7760   30.3150   -4.6894 O   0  0  0  0  0  0  0  0  0  0  0  0
  -88.2724   30.8921   -1.5604 H   0  0  0  0  0  0  0  0  0  0  0  0
  -87.7766   32.3916   -3.6852 C   0  0  0  0  0  0  0  0  0  0  0  0
  -87.1210   33.1092   -2.7213 C   0  0  0  0  0  0  0  0  0  0  0  0
  -87.0064   34.4970   -2.7784 C   0  0  0  0  0  0  0  0  0  0  0  0
  -87.5771   35.1415   -3.8445 C   0  0  0  0  0  0  0  0  0  0  0  0
  -88.2459   34.4699   -4.8389 C   0  0  0  0  0  0  0  0  0  0  0  0
  -88.3305   33.0844   -4.7325 C   0  0  0  0  0  0  0  0  0  0  0  0
  -87.4674   36.5917   -3.9246 C   0  0  0  0  0  0  0  0  0  0  0  0
  -86.5289   37.1168   -4.8099 C   0  0  0  0  0  0  0  0  0  0  0  0
  -86.3987   38.4684   -4.9082 C   0  0  0  0  0  0  0  0  0  0  0  0
  -87.1836   39.3140   -4.1427 C   0  0  0  0  0  0  0  0  0  0  0  0
  -88.1109   38.7992   -3.2679 C   0  0  0  0  0  0  0  0  0  0  0  0
  -88.2423   37.4402   -3.1690 C   0  0  0  0  0  0  0  0  0  0  0  0
  -87.1735   28.2384   -1.4569 C   0  0  0  0  0  0  0  0  0  0  0  0
  -86.9852   28.0399    1.0273 C   0  0  0  0  0  0  0  0  0  0  0  0
  -86.8009   28.9233   -0.1929 C   0  0  0  0  0  0  0  0  0  0  0  0
  -85.4885   29.6022   -0.1153 C   0  0  0  0  0  0  0  0  0  0  0  0
 30 31  1  0  0  0
 31 32  1  0  0  0
 31 29  1  0  0  0
 29  1  1  0  0  0
  1 13  1  0  0  0
 13 14  1  0  0  0
 14 15  2  0  0  0
 14 17  1  0  0  0
 17 18  2  0  0  0
 18 19  1  0  0  0
 19 20  2  0  0  0
 20 21  1  0  0  0
 21 22  2  0  0  0
 20 23  1  0  0  0
 23 24  2  0  0  0
 24 25  1  0  0  0
 25 26  2  0  0  0
 26 27  1  0  0  0
 27 28  2  0  0  0
  1  2  1  0  0  0
  2  3  2  0  0  0
  2  4  1  0  0  0
  4  5  1  0  0  0
  5  6  1  0  0  0
  6  7  1  0  0  0
  7  8  1  0  0  0
  8  9  1  0  0  0
  7 10  1  0  0  0
 10 11  1  0  0  0
 10 12  1  0  0  0
 22 17  1  0  0  0
 28 23  1  0  0  0
  9  4  1  0  0  0
 13 16  1  0  0  0
M  END
> <minimizedAffinity>
-7.89283

> <CNNscore>
0.1259458512

> <CNNaffinity>
5.4545044899

> <CNN_VS>
0.6869722009

> <CNNaffinity_variance>
0.3691470325

$$$$
[H]c1c([H])c([H])c(-c2c([H])c([H])c(C(=O)N([H])[C@]([H])(C(=O)N3C([H])([H])C([H])([H])C([H])(N(C([H])([H])[H])C([H])([H])[H])C([H])([H])C3([H])[H])C([H])([H])C([H])(C([H])([H])[H])C([H])([H])[H])c([H])c2[H])c([H])c1[H]


 32 34  0  0  0  0  0  0  0  0999 V2000
  -85.5071   28.6524    1.1620 C   0  0  0  0  0  0  0  0  0  0  0  0
  -86.4305   27.5791    1.5751 C   0  0  0  0  0  0  0  0  0  0  0  0
  -85.9038   26.6353    2.2536 O   0  0  0  0  0  0  0  0  0  0  0  0
  -87.8113   27.5010    1.2988 N   0  0  0  0  0  0  0  0  0  0  0  0
  -88.5378   26.2754    1.7261 C   0  0  0  0  0  0  0  0  0  0  0  0
  -89.0500   25.6967    0.4018 C   0  0  0  0  0  0  0  0  0  0  0  0
  -90.0527   26.6212   -0.2284 C   0  0  0  0  0  0  0  0  0  0  0  0
  -89.3816   27.9493   -0.5245 C   0  0  0  0  0  0  0  0  0  0  0  0
  -88.6499   28.4786    0.6875 C   0  0  0  0  0  0  0  0  0  0  0  0
  -90.4513   26.0853   -1.5181 N   0  0  0  0  0  0  0  0  0  0  0  0
  -90.3371   27.0732   -2.5723 C   0  0  0  0  0  0  0  0  0  0  0  0
  -89.6155   24.9632   -1.9064 C   0  0  0  0  0  0  0  0  0  0  0  0
  -86.1357   29.6207    0.3051 N   0  0  0  0  0  0  0  0  0  0  0  0
  -86.1301   31.0206    0.4477 C   0  0  0  0  0  0  0  0  0  0  0  0
  -85.5179   31.5477    1.4039 O   0  0  0  0  0  0  0  0  0  0  0  0
  -86.6737   29.2620   -0.5479 H   0  0  0  0  0  0  0  0  0  0  0  0
  -86.8098   31.9049   -0.4733 C   0  0  0  0  0  0  0  0  0  0  0  0
  -86.1414   32.8515   -1.2022 C   0  0  0  0  0  0  0  0  0  0  0  0
  -86.7974   33.7110   -2.0815 C   0  0  0  0  0  0  0  0  0  0  0  0
  -88.1564   33.5847   -2.2030 C   0  0  0  0  0  0  0  0  0  0  0  0
  -88.8755   32.6521   -1.4956 C   0  0  0  0  0  0  0  0  0  0  0  0
  -88.1703   31.8190   -0.6315 C   0  0  0  0  0  0  0  0  0  0  0  0
  -88.8616   34.4719   -3.1180 C   0  0  0  0  0  0  0  0  0  0  0  0
  -88.4237   35.7918   -3.1979 C   0  0  0  0  0  0  0  0  0  0  0  0
  -89.0619   36.6486   -4.0417 C   0  0  0  0  0  0  0  0  0  0  0  0
  -90.1308   36.2216   -4.8112 C   0  0  0  0  0  0  0  0  0  0  0  0
  -90.5657   34.9196   -4.7347 C   0  0  0  0  0  0  0  0  0  0  0  0
  -89.9240   34.0576   -3.8867 C   0  0  0  0  0  0  0  0  0  0  0  0
  -84.8462   29.2657    2.3606 C   0  0  0  0  0  0  0  0  0  0  0  0
  -82.7874   27.8540    2.4809 C   0  0  0  0  0  0  0  0  0  0  0  0
  -83.3612   29.2552    2.3767 C   0  0  0  0  0  0  0  0  0  0  0  0
  -82.6361   30.0073    1.3290 C   0  0  0  0  0  0  0  0  0  0  0  0
 30 31  1  0  0  0
 31 32  1  0  0  0
 31 29  1  0  0  0
 29  1  1  0  0  0
  1 13  1  0  0  0
 13 14  1  0  0  0
 14 15  2  0  0  0
 14 17  1  0  0  0
 17 18  2  0  0  0
 18 19  1  0  0  0
 19 20  2  0  0  0
 20 21  1  0  0  0
 21 22  2  0  0  0
 20 23  1  0  0  0
 23 24  2  0  0  0
 24 25  1  0  0  0
 25 26  2  0  0  0
 26 27  1  0  0  0
 27 28  2  0  0  0
  1  2  1  0  0  0
  2  3  2  0  0  0
  2  4  1  0  0  0
  4  5  1  0  0  0
  5  6  1  0  0  0
  6  7  1  0  0  0
  7  8  1  0  0  0
  8  9  1  0  0  0
  7 10  1  0  0  0
 10 11  1  0  0  0
 10 12  1  0  0  0
 22 17  1  0  0  0
 28 23  1  0  0  0
  9  4  1  0  0  0
 13 16  1  0  0  0
M  END
> <minimizedAffinity>
-9.33381

> <CNNscore>
0.1250772774

> <CNNaffinity>
6.0494194031

> <CNN_VS>
0.7566449046

> <CNNaffinity_variance>
0.2177513540

$$$$
[H]c1c([H])c([H])c(C(=O)N2C([H])([H])C([H])([H])N(C(=O)[C@@]([H])(N([H])C(=O)c3c([H])c([H])c(-c4c([H])c([H])c([H])c([H])c4[H])c([H])c3[H])C([H])([H])C([H])(C([H])([H])[H])C([H])([H])[H])C([H])([H])C2([H])[H])c([H])c1[H]


 37 40  0  0  0  0  0  0  0  0999 V2000
  -85.2149   29.3832    0.5513 C   0  0  0  0  0  0  0  0  0  0  0  0
  -85.8579   28.1870    1.0147 C   0  0  0  0  0  0  0  0  0  0  0  0
  -85.1836   27.3124    1.6752 O   0  0  0  0  0  0  0  0  0  0  0  0
  -87.2103   27.8644    0.8171 N   0  0  0  0  0  0  0  0  0  0  0  0
  -88.1015   28.7593    0.1181 C   0  0  0  0  0  0  0  0  0  0  0  0
  -89.5267   28.4994    0.6534 C   0  0  0  0  0  0  0  0  0  0  0  0
  -89.8413   27.1634    0.0429 N   0  0  0  0  0  0  0  0  0  0  0  0
  -88.8713   26.1761    0.2968 C   0  0  0  0  0  0  0  0  0  0  0  0
  -87.8002   26.6274    1.3156 C   0  0  0  0  0  0  0  0  0  0  0  0
  -91.0285   27.0857   -0.6486 C   0  0  0  0  0  0  0  0  0  0  0  0
  -91.7734   28.1933   -0.6630 O   0  0  0  0  0  0  0  0  0  0  0  0
  -91.6096   25.9873   -1.3702 C   0  0  0  0  0  0  0  0  0  0  0  0
  -91.9902   24.8096   -0.8024 C   0  0  0  0  0  0  0  0  0  0  0  0
  -92.5842   23.7938   -1.5786 C   0  0  0  0  0  0  0  0  0  0  0  0
  -92.7980   23.9443   -2.9091 C   0  0  0  0  0  0  0  0  0  0  0  0
  -92.4256   25.1171   -3.5113 C   0  0  0  0  0  0  0  0  0  0  0  0
  -91.8479   26.1083   -2.7592 C   0  0  0  0  0  0  0  0  0  0  0  0
  -86.1654   30.2923   -0.1295 N   0  0  0  0  0  0  0  0  0  0  0  0
  -85.7406   31.5144   -0.6494 C   0  0  0  0  0  0  0  0  0  0  0  0
  -84.5067   31.8308   -0.5259 O   0  0  0  0  0  0  0  0  0  0  0  0
  -87.1450   29.9760   -0.1970 H   0  0  0  0  0  0  0  0  0  0  0  0
  -86.6156   32.4631   -1.3292 C   0  0  0  0  0  0  0  0  0  0  0  0
  -86.0986   33.4188   -2.1798 C   0  0  0  0  0  0  0  0  0  0  0  0
  -86.9197   34.3220   -2.8216 C   0  0  0  0  0  0  0  0  0  0  0  0
  -88.2930   34.3346   -2.6620 C   0  0  0  0  0  0  0  0  0  0  0  0
  -88.8040   33.3764   -1.8101 C   0  0  0  0  0  0  0  0  0  0  0  0
  -87.9834   32.4701   -1.1656 C   0  0  0  0  0  0  0  0  0  0  0  0
  -89.1383   35.3026   -3.3526 C   0  0  0  0  0  0  0  0  0  0  0  0
  -88.7197   36.6220   -3.4038 C   0  0  0  0  0  0  0  0  0  0  0  0
  -89.4629   37.5965   -4.0352 C   0  0  0  0  0  0  0  0  0  0  0  0
  -90.6543   37.2551   -4.6331 C   0  0  0  0  0  0  0  0  0  0  0  0
  -91.1167   35.9574   -4.6115 C   0  0  0  0  0  0  0  0  0  0  0  0
  -90.3340   35.0154   -3.9647 C   0  0  0  0  0  0  0  0  0  0  0  0
  -84.4302   30.1642    1.5516 C   0  0  0  0  0  0  0  0  0  0  0  0
  -85.3509   30.0560    3.8993 C   0  0  0  0  0  0  0  0  0  0  0  0
  -85.1957   30.8245    2.6411 C   0  0  0  0  0  0  0  0  0  0  0  0
  -84.4224   32.1055    2.9982 C   0  0  0  0  0  0  0  0  0  0  0  0
 35 36  1  0  0  0
 36 37  1  0  0  0
 36 34  1  0  0  0
 34  1  1  0  0  0
  1 18  1  0  0  0
 18 19  1  0  0  0
 19 20  2  0  0  0
 19 22  1  0  0  0
 22 23  2  0  0  0
 23 24  1  0  0  0
 24 25  2  0  0  0
 25 26  1  0  0  0
 26 27  2  0  0  0
 25 28  1  0  0  0
 28 29  2  0  0  0
 29 30  1  0  0  0
 30 31  2  0  0  0
 31 32  1  0  0  0
 32 33  2  0  0  0
  1  2  1  0  0  0
  2  3  2  0  0  0
  2  4  1  0  0  0
  4  5  1  0  0  0
  5  6  1  0  0  0
  6  7  1  0  0  0
  7  8  1  0  0  0
  8  9  1  0  0  0
  7 10  1  0  0  0
 10 11  2  0  0  0
 10 12  1  0  0  0
 12 13  2  0  0  0
 13 14  1  0  0  0
 14 15  2  0  0  0
 15 16  1  0  0  0
 16 17  2  0  0  0
 27 22  1  0  0  0
 33 28  1  0  0  0
  9  4  1  0  0  0
 17 12  1  0  0  0
 18 21  1  0  0  0
M  END
> <minimizedAffinity>
-8.29817

> <CNNscore>
0.2105642408

> <CNNaffinity>
6.2577939034

> <CNN_VS>
1.3176676035

> <CNNaffinity_variance>
0.1244583502

$$$$
[H]c1c([H])c([H])c(C(=O)N2C([H])([H])C([H])([H])N(C(=O)[C@@]([H])(N([H])C(=O)c3c([H])c([H])c(-c4c([H])c([H])c([H])c([H])c4[H])c([H])c3[H])C([H])([H])C([H])(C([H])([H])[H])C([H])([H])[H])C([H])([H])C2([H])[H])c([H])c1[H]


 37 40  0  0  0  0  0  0  0  0999 V2000
  -92.2377   30.3535   -3.9937 C   0  0  0  0  0  0  0  0  0  0  0  0
  -92.4016   29.0874   -4.6490 C   0  0  0  0  0  0  0  0  0  0  0  0
  -92.9041   29.0395   -5.8327 O   0  0  0  0  0  0  0  0  0  0  0  0
  -92.0465   27.8415   -4.1070 N   0  0  0  0  0  0  0  0  0  0  0  0
  -91.4454   27.7354   -2.7989 C   0  0  0  0  0  0  0  0  0  0  0  0
  -90.5820   26.4549   -2.7924 C   0  0  0  0  0  0  0  0  0  0  0  0
  -91.6320   25.3809   -2.7705 N   0  0  0  0  0  0  0  0  0  0  0  0
  -92.5936   25.5005   -3.7909 C   0  0  0  0  0  0  0  0  0  0  0  0
  -92.2422   26.5899   -4.8293 C   0  0  0  0  0  0  0  0  0  0  0  0
  -91.4954   24.4300   -1.7852 C   0  0  0  0  0  0  0  0  0  0  0  0
  -90.4288   24.5549   -0.9922 O   0  0  0  0  0  0  0  0  0  0  0  0
  -92.3269   23.3028   -1.4644 C   0  0  0  0  0  0  0  0  0  0  0  0
  -93.4559   22.9616   -2.1451 C   0  0  0  0  0  0  0  0  0  0  0  0
  -94.1974   21.8184   -1.7842 C   0  0  0  0  0  0  0  0  0  0  0  0
  -93.8228   21.0197   -0.7545 C   0  0  0  0  0  0  0  0  0  0  0  0
  -92.6920   21.3357   -0.0486 C   0  0  0  0  0  0  0  0  0  0  0  0
  -91.9674   22.4471   -0.3971 C   0  0  0  0  0  0  0  0  0  0  0  0
  -90.8487   30.5539   -3.5200 N   0  0  0  0  0  0  0  0  0  0  0  0
  -90.5822   30.8377   -2.1812 C   0  0  0  0  0  0  0  0  0  0  0  0
  -91.5686   30.9186   -1.3697 O   0  0  0  0  0  0  0  0  0  0  0  0
  -90.1001   30.4729   -4.2252 H   0  0  0  0  0  0  0  0  0  0  0  0
  -89.2444   31.0506   -1.6404 C   0  0  0  0  0  0  0  0  0  0  0  0
  -88.3362   30.0139   -1.5701 C   0  0  0  0  0  0  0  0  0  0  0  0
  -87.0715   30.2071   -1.0552 C   0  0  0  0  0  0  0  0  0  0  0  0
  -86.6313   31.4292   -0.5817 C   0  0  0  0  0  0  0  0  0  0  0  0
  -87.5441   32.4619   -0.6547 C   0  0  0  0  0  0  0  0  0  0  0  0
  -88.8122   32.2711   -1.1702 C   0  0  0  0  0  0  0  0  0  0  0  0
  -85.2877   31.6055   -0.0409 C   0  0  0  0  0  0  0  0  0  0  0  0
  -84.9471   30.9147    1.1105 C   0  0  0  0  0  0  0  0  0  0  0  0
  -83.6990   31.0295    1.6847 C   0  0  0  0  0  0  0  0  0  0  0  0
  -82.7614   31.8514    1.1024 C   0  0  0  0  0  0  0  0  0  0  0  0
  -83.0483   32.5607   -0.0433 C   0  0  0  0  0  0  0  0  0  0  0  0
  -84.3159   32.4117   -0.5813 C   0  0  0  0  0  0  0  0  0  0  0  0
  -92.6735   31.5680   -4.7429 C   0  0  0  0  0  0  0  0  0  0  0  0
  -94.4994   31.8649   -3.0256 C   0  0  0  0  0  0  0  0  0  0  0  0
  -94.0054   32.1302   -4.3979 C   0  0  0  0  0  0  0  0  0  0  0  0
  -93.8789   33.6572   -4.5345 C   0  0  0  0  0  0  0  0  0  0  0  0
 35 36  1  0  0  0
 36 37  1  0  0  0
 36 34  1  0  0  0
 34  1  1  0  0  0
  1 18  1  0  0  0
 18 19  1  0  0  0
 19 20  2  0  0  0
 19 22  1  0  0  0
 22 23  2  0  0  0
 23 24  1  0  0  0
 24 25  2  0  0  0
 25 26  1  0  0  0
 26 27  2  0  0  0
 25 28  1  0  0  0
 28 29  2  0  0  0
 29 30  1  0  0  0
 30 31  2  0  0  0
 31 32  1  0  0  0
 32 33  2  0  0  0
  1  2  1  0  0  0
  2  3  2  0  0  0
  2  4  1  0  0  0
  4  5  1  0  0  0
  5  6  1  0  0  0
  6  7  1  0  0  0
  7  8  1  0  0  0
  8  9  1  0  0  0
  7 10  1  0  0  0
 10 11  2  0  0  0
 10 12  1  0  0  0
 12 13  2  0  0  0
 13 14  1  0  0  0
 14 15  2  0  0  0
 15 16  1  0  0  0
 16 17  2  0  0  0
 27 22  1  0  0  0
 33 28  1  0  0  0
  9  4  1  0  0  0
 17 12  1  0  0  0
 18 21  1  0  0  0
M  END
> <minimizedAffinity>
-7.48421

> <CNNscore>
0.1417327374

> <CNNaffinity>
5.8169507980

> <CNN_VS>
0.8244523406

> <CNNaffinity_variance>
0.1238089949

$$$$
[H]c1c([H])c([H])c(C(=O)N2C([H])([H])C([H])([H])N(C(=O)[C@@]([H])(N([H])C(=O)c3c([H])c([H])c(-c4c([H])c([H])c([H])c([H])c4[H])c([H])c3[H])C([H])([H])C([H])(C([H])([H])[H])C([H])([H])[H])C([H])([H])C2([H])[H])c([H])c1[H]


 37 40  0  0  0  0  0  0  0  0999 V2000
  -86.6071   30.0737    0.0843 C   0  0  0  0  0  0  0  0  0  0  0  0
  -86.1274   31.3679   -0.3083 C   0  0  0  0  0  0  0  0  0  0  0  0
  -85.1475   31.9075    0.3277 O   0  0  0  0  0  0  0  0  0  0  0  0
  -86.6380   32.1351   -1.3679 N   0  0  0  0  0  0  0  0  0  0  0  0
  -87.7200   31.6514   -2.1920 C   0  0  0  0  0  0  0  0  0  0  0  0
  -87.5752   32.3173   -3.5780 C   0  0  0  0  0  0  0  0  0  0  0  0
  -87.9835   33.7318   -3.2792 N   0  0  0  0  0  0  0  0  0  0  0  0
  -87.2794   34.3165   -2.2104 C   0  0  0  0  0  0  0  0  0  0  0  0
  -86.1025   33.4469   -1.7127 C   0  0  0  0  0  0  0  0  0  0  0  0
  -88.9574   34.2591   -4.0960 C   0  0  0  0  0  0  0  0  0  0  0  0
  -89.3953   33.4653   -5.0759 O   0  0  0  0  0  0  0  0  0  0  0  0
  -89.5916   35.5482   -4.0677 C   0  0  0  0  0  0  0  0  0  0  0  0
  -88.9226   36.7341   -4.0560 C   0  0  0  0  0  0  0  0  0  0  0  0
  -89.6236   37.9572   -4.0617 C   0  0  0  0  0  0  0  0  0  0  0  0
  -90.9786   38.0039   -4.0775 C   0  0  0  0  0  0  0  0  0  0  0  0
  -91.6817   36.8281   -4.0886 C   0  0  0  0  0  0  0  0  0  0  0  0
  -91.0032   35.6359   -4.0838 C   0  0  0  0  0  0  0  0  0  0  0  0
  -87.5107   29.4883   -0.9327 N   0  0  0  0  0  0  0  0  0  0  0  0
  -88.6524   28.7822   -0.5554 C   0  0  0  0  0  0  0  0  0  0  0  0
  -88.9020   28.6542    0.6933 O   0  0  0  0  0  0  0  0  0  0  0  0
  -87.2527   29.6298   -1.9215 H   0  0  0  0  0  0  0  0  0  0  0  0
  -89.5873   28.1751   -1.4961 C   0  0  0  0  0  0  0  0  0  0  0  0
  -90.4829   28.9506   -2.2039 C   0  0  0  0  0  0  0  0  0  0  0  0
  -91.3730   28.3825   -3.0910 C   0  0  0  0  0  0  0  0  0  0  0  0
  -91.4309   27.0220   -3.3302 C   0  0  0  0  0  0  0  0  0  0  0  0
  -90.5327   26.2519   -2.6195 C   0  0  0  0  0  0  0  0  0  0  0  0
  -89.6396   26.8186   -1.7297 C   0  0  0  0  0  0  0  0  0  0  0  0
  -92.3837   26.4472   -4.2738 C   0  0  0  0  0  0  0  0  0  0  0  0
  -92.5921   27.1006   -5.4773 C   0  0  0  0  0  0  0  0  0  0  0  0
  -93.4773   26.6229   -6.4201 C   0  0  0  0  0  0  0  0  0  0  0  0
  -94.1759   25.4653   -6.1643 C   0  0  0  0  0  0  0  0  0  0  0  0
  -94.0060   24.7763   -4.9834 C   0  0  0  0  0  0  0  0  0  0  0  0
  -93.1058   25.2969   -4.0686 C   0  0  0  0  0  0  0  0  0  0  0  0
  -85.5840   29.0566    0.4655 C   0  0  0  0  0  0  0  0  0  0  0  0
  -85.9324   27.0258    1.9235 C   0  0  0  0  0  0  0  0  0  0  0  0
  -85.6809   28.4840    1.8337 C   0  0  0  0  0  0  0  0  0  0  0  0
  -84.3218   28.7404    2.5071 C   0  0  0  0  0  0  0  0  0  0  0  0
 35 36  1  0  0  0
 36 37  1  0  0  0
 36 34  1  0  0  0
 34  1  1  0  0  0
  1 18  1  0  0  0
 18 19  1  0  0  0
 19 20  2  0  0  0
 19 22  1  0  0  0
 22 23  2  0  0  0
 23 24  1  0  0  0
 24 25  2  0  0  0
 25 26  1  0  0  0
 26 27  2  0  0  0
 25 28  1  0  0  0
 28 29  2  0  0  0
 29 30  1  0  0  0
 30 31  2  0  0  0
 31 32  1  0  0  0
 32 33  2  0  0  0
  1  2  1  0  0  0
  2  3  2  0  0  0
  2  4  1  0  0  0
  4  5  1  0  0  0
  5  6  1  0  0  0
  6  7  1  0  0  0
  7  8  1  0  0  0
  8  9  1  0  0  0
  7 10  1  0  0  0
 10 11  2  0  0  0
 10 12  1  0  0  0
 12 13  2  0  0  0
 13 14  1  0  0  0
 14 15  2  0  0  0
 15 16  1  0  0  0
 16 17  2  0  0  0
 27 22  1  0  0  0
 33 28  1  0  0  0
  9  4  1  0  0  0
 17 12  1  0  0  0
 18 21  1  0  0  0
M  END
> <minimizedAffinity>
-8.71860

> <CNNscore>
0.1341883689

> <CNNaffinity>
5.6786069870

> <CNN_VS>
0.7620030046

> <CNNaffinity_variance>
0.6833218932

$$$$
[H]c1c([H])c([H])c(C(=O)N2C([H])([H])C([H])([H])N(C(=O)[C@@]([H])(N([H])C(=O)c3c([H])c([H])c(-c4c([H])c([H])c([H])c([H])c4[H])c([H])c3[H])C([H])([H])C([H])(C([H])([H])[H])C([H])([H])[H])C([H])([H])C2([H])[H])c([H])c1[H]


 37 40  0  0  0  0  0  0  0  0999 V2000
  -85.7184   31.1520   -0.1509 C   0  0  0  0  0  0  0  0  0  0  0  0
  -86.1314   29.7783   -0.1120 C   0  0  0  0  0  0  0  0  0  0  0  0
  -85.2606   28.8536    0.0948 O   0  0  0  0  0  0  0  0  0  0  0  0
  -87.4493   29.3225   -0.2771 N   0  0  0  0  0  0  0  0  0  0  0  0
  -88.5411   30.2426   -0.4894 C   0  0  0  0  0  0  0  0  0  0  0  0
  -89.8216   29.5688    0.0507 C   0  0  0  0  0  0  0  0  0  0  0  0
  -90.0665   28.5084   -0.9848 N   0  0  0  0  0  0  0  0  0  0  0  0
  -88.9571   27.6769   -1.2250 C   0  0  0  0  0  0  0  0  0  0  0  0
  -87.7998   27.9078   -0.2270 C   0  0  0  0  0  0  0  0  0  0  0  0
  -91.3304   28.4830   -1.5283 C   0  0  0  0  0  0  0  0  0  0  0  0
  -92.1957   29.3774   -1.0453 O   0  0  0  0  0  0  0  0  0  0  0  0
  -91.8828   27.6351   -2.5486 C   0  0  0  0  0  0  0  0  0  0  0  0
  -92.2102   26.3260   -2.3664 C   0  0  0  0  0  0  0  0  0  0  0  0
  -92.7792   25.5729   -3.4134 C   0  0  0  0  0  0  0  0  0  0  0  0
  -93.0207   26.1139   -4.6331 C   0  0  0  0  0  0  0  0  0  0  0  0
  -92.7019   27.4285   -4.8494 C   0  0  0  0  0  0  0  0  0  0  0  0
  -92.1485   28.1649   -3.8329 C   0  0  0  0  0  0  0  0  0  0  0  0
  -86.7634   32.0261   -0.7318 N   0  0  0  0  0  0  0  0  0  0  0  0
  -86.4413   32.9923   -1.6841 C   0  0  0  0  0  0  0  0  0  0  0  0
  -85.2189   33.1040   -2.0464 O   0  0  0  0  0  0  0  0  0  0  0  0
  -87.7289   31.8826   -0.3978 H   0  0  0  0  0  0  0  0  0  0  0  0
  -87.4120   33.8909   -2.2988 C   0  0  0  0  0  0  0  0  0  0  0  0
  -87.0255   35.1212   -2.7901 C   0  0  0  0  0  0  0  0  0  0  0  0
  -87.9391   35.9778   -3.3677 C   0  0  0  0  0  0  0  0  0  0  0  0
  -89.2814   35.6714   -3.4937 C   0  0  0  0  0  0  0  0  0  0  0  0
  -89.6617   34.4396   -3.0006 C   0  0  0  0  0  0  0  0  0  0  0  0
  -88.7482   33.5793   -2.4211 C   0  0  0  0  0  0  0  0  0  0  0  0
  -90.2268   36.5971   -4.1085 C   0  0  0  0  0  0  0  0  0  0  0  0
  -91.5683   36.2522   -4.1240 C   0  0  0  0  0  0  0  0  0  0  0  0
  -92.5230   37.0714   -4.6879 C   0  0  0  0  0  0  0  0  0  0  0  0
  -92.1388   38.2662   -5.2523 C   0  0  0  0  0  0  0  0  0  0  0  0
  -90.8178   38.6572   -5.2634 C   0  0  0  0  0  0  0  0  0  0  0  0
  -89.8971   37.7995   -4.6848 C   0  0  0  0  0  0  0  0  0  0  0  0
  -85.2394   31.7541    1.1276 C   0  0  0  0  0  0  0  0  0  0  0  0
  -83.2483   30.3869    1.8607 C   0  0  0  0  0  0  0  0  0  0  0  0
  -83.7789   31.6908    1.3962 C   0  0  0  0  0  0  0  0  0  0  0  0
  -83.0798   32.0023    0.0617 C   0  0  0  0  0  0  0  0  0  0  0  0
 35 36  1  0  0  0
 36 37  1  0  0  0
 36 34  1  0  0  0
 34  1  1  0  0  0
  1 18  1  0  0  0
 18 19  1  0  0  0
 19 20  2  0  0  0
 19 22  1  0  0  0
 22 23  2  0  0  0
 23 24  1  0  0  0
 24 25  2  0  0  0
 25 26  1  0  0  0
 26 27  2  0  0  0
 25 28  1  0  0  0
 28 29  2  0  0  0
 29 30  1  0  0  0
 30 31  2  0  0  0
 31 32  1  0  0  0
 32 33  2  0  0  0
  1  2  1  0  0  0
  2  3  2  0  0  0
  2  4  1  0  0  0
  4  5  1  0  0  0
  5  6  1  0  0  0
  6  7  1  0  0  0
  7  8  1  0  0  0
  8  9  1  0  0  0
  7 10  1  0  0  0
 10 11  2  0  0  0
 10 12  1  0  0  0
 12 13  2  0  0  0
 13 14  1  0  0  0
 14 15  2  0  0  0
 15 16  1  0  0  0
 16 17  2  0  0  0
 27 22  1  0  0  0
 33 28  1  0  0  0
  9  4  1  0  0  0
 17 12  1  0  0  0
 18 21  1  0  0  0
M  END
> <minimizedAffinity>
-8.24982

> <CNNscore>
0.1325771958

> <CNNaffinity>
6.0334901810

> <CNN_VS>
0.7999032140

> <CNNaffinity_variance>
0.2068482935

$$$$
[H]c1c([H])c([H])c(C(=O)N2C([H])([H])C([H])([H])N(C(=O)[C@@]([H])(N([H])C(=O)c3c([H])c([H])c(-c4c([H])c([H])c([H])c([H])c4[H])c([H])c3[H])C([H])([H])C([H])(C([H])([H])[H])C([H])([H])[H])C([H])([H])C2([H])[H])c([H])c1[H]


 37 40  0  0  0  0  0  0  0  0999 V2000
  -86.7251   32.4153   -0.6198 C   0  0  0  0  0  0  0  0  0  0  0  0
  -86.4205   33.1621   -1.8067 C   0  0  0  0  0  0  0  0  0  0  0  0
  -85.1938   33.3750   -2.1320 O   0  0  0  0  0  0  0  0  0  0  0  0
  -87.3684   33.7015   -2.6913 N   0  0  0  0  0  0  0  0  0  0  0  0
  -88.7844   33.5223   -2.4754 C   0  0  0  0  0  0  0  0  0  0  0  0
  -89.4712   33.5816   -3.8575 C   0  0  0  0  0  0  0  0  0  0  0  0
  -89.3616   35.0427   -4.1885 N   0  0  0  0  0  0  0  0  0  0  0  0
  -88.0528   35.5523   -4.1007 C   0  0  0  0  0  0  0  0  0  0  0  0
  -86.9885   34.4531   -3.8819 C   0  0  0  0  0  0  0  0  0  0  0  0
  -90.5348   35.6644   -4.5500 C   0  0  0  0  0  0  0  0  0  0  0  0
  -91.6200   34.8885   -4.5983 O   0  0  0  0  0  0  0  0  0  0  0  0
  -90.7884   37.0369   -4.8915 C   0  0  0  0  0  0  0  0  0  0  0  0
  -91.0338   38.0224   -3.9843 C   0  0  0  0  0  0  0  0  0  0  0  0
  -91.2405   39.3525   -4.4031 C   0  0  0  0  0  0  0  0  0  0  0  0
  -91.2054   39.7027   -5.7125 C   0  0  0  0  0  0  0  0  0  0  0  0
  -90.9618   38.7346   -6.6508 C   0  0  0  0  0  0  0  0  0  0  0  0
  -90.7595   37.4393   -6.2472 C   0  0  0  0  0  0  0  0  0  0  0  0
  -87.2046   31.0499   -0.9349 N   0  0  0  0  0  0  0  0  0  0  0  0
  -88.5046   30.6565   -0.6197 C   0  0  0  0  0  0  0  0  0  0  0  0
  -89.2755   31.5063   -0.0525 O   0  0  0  0  0  0  0  0  0  0  0  0
  -86.5334   30.4152   -1.3941 H   0  0  0  0  0  0  0  0  0  0  0  0
  -89.0479   29.3311   -0.8949 C   0  0  0  0  0  0  0  0  0  0  0  0
  -88.9773   28.7860   -2.1607 C   0  0  0  0  0  0  0  0  0  0  0  0
  -89.4936   27.5356   -2.4288 C   0  0  0  0  0  0  0  0  0  0  0  0
  -90.1070   26.7537   -1.4676 C   0  0  0  0  0  0  0  0  0  0  0  0
  -90.1744   27.3043   -0.2037 C   0  0  0  0  0  0  0  0  0  0  0  0
  -89.6579   28.5572    0.0677 C   0  0  0  0  0  0  0  0  0  0  0  0
  -90.6457   25.4341   -1.7791 C   0  0  0  0  0  0  0  0  0  0  0  0
  -91.7053   25.3499   -2.6673 C   0  0  0  0  0  0  0  0  0  0  0  0
  -92.2715   24.1408   -3.0110 C   0  0  0  0  0  0  0  0  0  0  0  0
  -91.7745   22.9820   -2.4597 C   0  0  0  0  0  0  0  0  0  0  0  0
  -90.7219   23.0096   -1.5713 C   0  0  0  0  0  0  0  0  0  0  0  0
  -90.1880   24.2485   -1.2580 C   0  0  0  0  0  0  0  0  0  0  0  0
  -85.6581   32.3258    0.4194 C   0  0  0  0  0  0  0  0  0  0  0  0
  -83.4397   31.1438    0.1904 C   0  0  0  0  0  0  0  0  0  0  0  0
  -84.8893   31.0556    0.4875 C   0  0  0  0  0  0  0  0  0  0  0  0
  -85.0138   30.5520    1.9358 C   0  0  0  0  0  0  0  0  0  0  0  0
 35 36  1  0  0  0
 36 37  1  0  0  0
 36 34  1  0  0  0
 34  1  1  0  0  0
  1 18  1  0  0  0
 18 19  1  0  0  0
 19 20  2  0  0  0
 19 22  1  0  0  0
 22 23  2  0  0  0
 23 24  1  0  0  0
 24 25  2  0  0  0
 25 26  1  0  0  0
 26 27  2  0  0  0
 25 28  1  0  0  0
 28 29  2  0  0  0
 29 30  1  0  0  0
 30 31  2  0  0  0
 31 32  1  0  0  0
 32 33  2  0  0  0
  1  2  1  0  0  0
  2  3  2  0  0  0
  2  4  1  0  0  0
  4  5  1  0  0  0
  5  6  1  0  0  0
  6  7  1  0  0  0
  7  8  1  0  0  0
  8  9  1  0  0  0
  7 10  1  0  0  0
 10 11  2  0  0  0
 10 12  1  0  0  0
 12 13  2  0  0  0
 13 14  1  0  0  0
 14 15  2  0  0  0
 15 16  1  0  0  0
 16 17  2  0  0  0
 27 22  1  0  0  0
 33 28  1  0  0  0
  9  4  1  0  0  0
 17 12  1  0  0  0
 18 21  1  0  0  0
M  END
> <minimizedAffinity>
-7.39117

> <CNNscore>
0.1300290525

> <CNNaffinity>
5.7242569923

> <CNN_VS>
0.7443197370

> <CNNaffinity_variance>
0.3869319558

$$$$
[H]c1c([H])c([H])c(C(=O)N2C([H])([H])C([H])([H])N(C(=O)[C@@]([H])(N([H])C(=O)c3c([H])c([H])c(-c4c([H])c([H])c([H])c([H])c4[H])c([H])c3[H])C([H])([H])C([H])(C([H])([H])[H])C([H])([H])[H])C([H])([H])C2([H])[H])c([H])c1[H]


 37 40  0  0  0  0  0  0  0  0999 V2000
  -88.1662   30.3503   -0.8128 C   0  0  0  0  0  0  0  0  0  0  0  0
  -89.5089   30.0384   -0.4142 C   0  0  0  0  0  0  0  0  0  0  0  0
  -90.1340   30.8192    0.3955 O   0  0  0  0  0  0  0  0  0  0  0  0
  -90.2439   28.9215   -0.8435 N   0  0  0  0  0  0  0  0  0  0  0  0
  -89.6874   27.9690   -1.7746 C   0  0  0  0  0  0  0  0  0  0  0  0
  -90.8671   27.3348   -2.5435 C   0  0  0  0  0  0  0  0  0  0  0  0
  -91.4807   26.4584   -1.4889 N   0  0  0  0  0  0  0  0  0  0  0  0
  -91.7841   27.1319   -0.2913 C   0  0  0  0  0  0  0  0  0  0  0  0
  -91.6079   28.6638   -0.3966 C   0  0  0  0  0  0  0  0  0  0  0  0
  -91.6800   25.1440   -1.8444 C   0  0  0  0  0  0  0  0  0  0  0  0
  -91.3391   24.8149   -3.0924 O   0  0  0  0  0  0  0  0  0  0  0  0
  -92.2058   24.0474   -1.0791 C   0  0  0  0  0  0  0  0  0  0  0  0
  -91.4416   23.1125   -0.4498 C   0  0  0  0  0  0  0  0  0  0  0  0
  -92.0385   22.0856    0.3094 C   0  0  0  0  0  0  0  0  0  0  0  0
  -93.3841   21.9857    0.4426 C   0  0  0  0  0  0  0  0  0  0  0  0
  -94.1816   22.9101   -0.1790 C   0  0  0  0  0  0  0  0  0  0  0  0
  -93.6045   23.9113   -0.9182 C   0  0  0  0  0  0  0  0  0  0  0  0
  -88.0872   31.6523   -1.5144 N   0  0  0  0  0  0  0  0  0  0  0  0
  -88.0213   31.7135   -2.9058 C   0  0  0  0  0  0  0  0  0  0  0  0
  -88.0332   30.6154   -3.5632 O   0  0  0  0  0  0  0  0  0  0  0  0
  -88.0838   32.4991   -0.9253 H   0  0  0  0  0  0  0  0  0  0  0  0
  -87.9387   32.9549   -3.6673 C   0  0  0  0  0  0  0  0  0  0  0  0
  -87.0633   33.9554   -3.2971 C   0  0  0  0  0  0  0  0  0  0  0  0
  -86.9839   35.1335   -4.0095 C   0  0  0  0  0  0  0  0  0  0  0  0
  -87.7603   35.3918   -5.1240 C   0  0  0  0  0  0  0  0  0  0  0  0
  -88.6337   34.3874   -5.4893 C   0  0  0  0  0  0  0  0  0  0  0  0
  -88.7154   33.2057   -4.7770 C   0  0  0  0  0  0  0  0  0  0  0  0
  -87.6566   36.6479   -5.8589 C   0  0  0  0  0  0  0  0  0  0  0  0
  -87.7547   37.8339   -5.1500 C   0  0  0  0  0  0  0  0  0  0  0  0
  -87.6693   39.0615   -5.7714 C   0  0  0  0  0  0  0  0  0  0  0  0
  -87.4812   39.1167   -7.1335 C   0  0  0  0  0  0  0  0  0  0  0  0
  -87.3769   37.9672   -7.8859 C   0  0  0  0  0  0  0  0  0  0  0  0
  -87.4694   36.7590   -7.2151 C   0  0  0  0  0  0  0  0  0  0  0  0
  -87.1154   30.3064    0.2457 C   0  0  0  0  0  0  0  0  0  0  0  0
  -86.1964   28.3261   -1.0212 C   0  0  0  0  0  0  0  0  0  0  0  0
  -86.1553   29.1729    0.1949 C   0  0  0  0  0  0  0  0  0  0  0  0
  -84.7493   29.7942    0.2535 C   0  0  0  0  0  0  0  0  0  0  0  0
 35 36  1  0  0  0
 36 37  1  0  0  0
 36 34  1  0  0  0
 34  1  1  0  0  0
  1 18  1  0  0  0
 18 19  1  0  0  0
 19 20  2  0  0  0
 19 22  1  0  0  0
 22 23  2  0  0  0
 23 24  1  0  0  0
 24 25  2  0  0  0
 25 26  1  0  0  0
 26 27  2  0  0  0
 25 28  1  0  0  0
 28 29  2  0  0  0
 29 30  1  0  0  0
 30 31  2  0  0  0
 31 32  1  0  0  0
 32 33  2  0  0  0
  1  2  1  0  0  0
  2  3  2  0  0  0
  2  4  1  0  0  0
  4  5  1  0  0  0
  5  6  1  0  0  0
  6  7  1  0  0  0
  7  8  1  0  0  0
  8  9  1  0  0  0
  7 10  1  0  0  0
 10 11  2  0  0  0
 10 12  1  0  0  0
 12 13  2  0  0  0
 13 14  1  0  0  0
 14 15  2  0  0  0
 15 16  1  0  0  0
 16 17  2  0  0  0
 27 22  1  0  0  0
 33 28  1  0  0  0
  9  4  1  0  0  0
 17 12  1  0  0  0
 18 21  1  0  0  0
M  END
> <minimizedAffinity>
-6.64724

> <CNNscore>
0.1068709344

> <CNNaffinity>
5.5902533531

> <CNN_VS>
0.5974355936

> <CNNaffinity_variance>
0.1711284816

$$$$
[H]c1c([H])c([H])c(C(=O)N2C([H])([H])C([H])([H])N(C(=O)[C@@]([H])(N([H])C(=O)c3c([H])c([H])c(-c4c([H])c([H])c([H])c([H])c4[H])c([H])c3[H])C([H])([H])C([H])(C([H])([H])[H])C([H])([H])[H])C([H])([H])C2([H])[H])c([H])c1[H]


 37 40  0  0  0  0  0  0  0  0999 V2000
  -92.1634   28.5595   -2.9033 C   0  0  0  0  0  0  0  0  0  0  0  0
  -93.0367   29.6979   -2.8803 C   0  0  0  0  0  0  0  0  0  0  0  0
  -94.0011   29.7479   -2.0298 O   0  0  0  0  0  0  0  0  0  0  0  0
  -92.9358   30.8149   -3.7254 N   0  0  0  0  0  0  0  0  0  0  0  0
  -91.8881   30.9171   -4.7131 C   0  0  0  0  0  0  0  0  0  0  0  0
  -91.6242   32.4204   -4.9494 C   0  0  0  0  0  0  0  0  0  0  0  0
  -92.8514   32.8274   -5.7143 N   0  0  0  0  0  0  0  0  0  0  0  0
  -94.0600   32.4802   -5.0829 C   0  0  0  0  0  0  0  0  0  0  0  0
  -93.8605   31.9399   -3.6486 C   0  0  0  0  0  0  0  0  0  0  0  0
  -92.6261   33.4948   -6.8965 C   0  0  0  0  0  0  0  0  0  0  0  0
  -91.3486   33.7320   -7.2028 O   0  0  0  0  0  0  0  0  0  0  0  0
  -93.5573   33.9886   -7.8730 C   0  0  0  0  0  0  0  0  0  0  0  0
  -93.9287   33.3099   -8.9936 C   0  0  0  0  0  0  0  0  0  0  0  0
  -94.8755   33.8538   -9.8852 C   0  0  0  0  0  0  0  0  0  0  0  0
  -95.4491   35.0630   -9.6678 C   0  0  0  0  0  0  0  0  0  0  0  0
  -95.0963   35.7720   -8.5499 C   0  0  0  0  0  0  0  0  0  0  0  0
  -94.1758   35.2459   -7.6796 C   0  0  0  0  0  0  0  0  0  0  0  0
  -90.7655   28.9301   -2.5836 N   0  0  0  0  0  0  0  0  0  0  0  0
  -90.3990   29.2946   -1.2886 C   0  0  0  0  0  0  0  0  0  0  0  0
  -91.3012   29.2988   -0.3808 O   0  0  0  0  0  0  0  0  0  0  0  0
  -90.0875   28.9038   -3.3607 H   0  0  0  0  0  0  0  0  0  0  0  0
  -89.0463   29.6745   -0.8972 C   0  0  0  0  0  0  0  0  0  0  0  0
  -88.2736   28.8378   -0.1179 C   0  0  0  0  0  0  0  0  0  0  0  0
  -86.9958   29.1931    0.2600 C   0  0  0  0  0  0  0  0  0  0  0  0
  -86.4086   30.3896   -0.1075 C   0  0  0  0  0  0  0  0  0  0  0  0
  -87.1863   31.2220   -0.8868 C   0  0  0  0  0  0  0  0  0  0  0  0
  -88.4672   30.8684   -1.2669 C   0  0  0  0  0  0  0  0  0  0  0  0
  -85.0546   30.7409    0.3074 C   0  0  0  0  0  0  0  0  0  0  0  0
  -84.3458   29.8313    1.0748 C   0  0  0  0  0  0  0  0  0  0  0  0
  -83.0628   30.0898    1.5082 C   0  0  0  0  0  0  0  0  0  0  0  0
  -82.4646   31.2827    1.1723 C   0  0  0  0  0  0  0  0  0  0  0  0
  -83.1251   32.2220    0.4110 C   0  0  0  0  0  0  0  0  0  0  0  0
  -84.4118   31.9153    0.0004 C   0  0  0  0  0  0  0  0  0  0  0  0
  -92.5554   27.3853   -2.0703 C   0  0  0  0  0  0  0  0  0  0  0  0
  -91.0606   25.3515   -2.0937 C   0  0  0  0  0  0  0  0  0  0  0  0
  -92.2621   26.0380   -2.6253 C   0  0  0  0  0  0  0  0  0  0  0  0
  -93.4695   25.1526   -2.2720 C   0  0  0  0  0  0  0  0  0  0  0  0
 35 36  1  0  0  0
 36 37  1  0  0  0
 36 34  1  0  0  0
 34  1  1  0  0  0
  1 18  1  0  0  0
 18 19  1  0  0  0
 19 20  2  0  0  0
 19 22  1  0  0  0
 22 23  2  0  0  0
 23 24  1  0  0  0
 24 25  2  0  0  0
 25 26  1  0  0  0
 26 27  2  0  0  0
 25 28  1  0  0  0
 28 29  2  0  0  0
 29 30  1  0  0  0
 30 31  2  0  0  0
 31 32  1  0  0  0
 32 33  2  0  0  0
  1  2  1  0  0  0
  2  3  2  0  0  0
  2  4  1  0  0  0
  4  5  1  0  0  0
  5  6  1  0  0  0
  6  7  1  0  0  0
  7  8  1  0  0  0
  8  9  1  0  0  0
  7 10  1  0  0  0
 10 11  2  0  0  0
 10 12  1  0  0  0
 12 13  2  0  0  0
 13 14  1  0  0  0
 14 15  2  0  0  0
 15 16  1  0  0  0
 16 17  2  0  0  0
 27 22  1  0  0  0
 33 28  1  0  0  0
  9  4  1  0  0  0
 17 12  1  0  0  0
 18 21  1  0  0  0
M  END
> <minimizedAffinity>
-7.62816

> <CNNscore>
0.1061170697

> <CNNaffinity>
5.4737081528

> <CNN_VS>
0.5808538795

> <CNNaffinity_variance>
0.1777945608

$$$$
[H]c1c([H])c([H])c(C(=O)N2C([H])([H])C([H])([H])N(C(=O)[C@@]([H])(N([H])C(=O)c3c([H])c([H])c(-c4c([H])c([H])c([H])c([H])c4[H])c([H])c3[H])C([H])([H])C([H])(C([H])([H])[H])C([H])([H])[H])C([H])([H])C2([H])[H])c([H])c1[H]


 37 40  0  0  0  0  0  0  0  0999 V2000
  -90.0075   23.6244   -0.8864 C   0  0  0  0  0  0  0  0  0  0  0  0
  -90.9360   23.8400   -1.9590 C   0  0  0  0  0  0  0  0  0  0  0  0
  -91.1436   22.9091   -2.8229 O   0  0  0  0  0  0  0  0  0  0  0  0
  -91.6785   25.0139   -2.1654 N   0  0  0  0  0  0  0  0  0  0  0  0
  -91.5744   26.1366   -1.2640 C   0  0  0  0  0  0  0  0  0  0  0  0
  -92.9150   26.9011   -1.3254 C   0  0  0  0  0  0  0  0  0  0  0  0
  -92.8349   27.5460   -2.6799 N   0  0  0  0  0  0  0  0  0  0  0  0
  -92.5618   26.6458   -3.7264 C   0  0  0  0  0  0  0  0  0  0  0  0
  -92.6063   25.1668   -3.2801 C   0  0  0  0  0  0  0  0  0  0  0  0
  -93.0606   28.9030   -2.7112 C   0  0  0  0  0  0  0  0  0  0  0  0
  -93.3589   29.4760   -1.5429 O   0  0  0  0  0  0  0  0  0  0  0  0
  -93.0287   29.8218   -3.8155 C   0  0  0  0  0  0  0  0  0  0  0  0
  -93.9705   29.8769   -4.7974 C   0  0  0  0  0  0  0  0  0  0  0  0
  -93.8809   30.8330   -5.8294 C   0  0  0  0  0  0  0  0  0  0  0  0
  -92.8636   31.7276   -5.8880 C   0  0  0  0  0  0  0  0  0  0  0  0
  -91.8990   31.6982   -4.9157 C   0  0  0  0  0  0  0  0  0  0  0  0
  -91.9830   30.7696   -3.9095 C   0  0  0  0  0  0  0  0  0  0  0  0
  -88.9810   24.6901   -0.8224 N   0  0  0  0  0  0  0  0  0  0  0  0
  -88.8044   25.4463    0.3357 C   0  0  0  0  0  0  0  0  0  0  0  0
  -89.5506   25.1948    1.3447 O   0  0  0  0  0  0  0  0  0  0  0  0
  -88.4120   24.8400   -1.6698 H   0  0  0  0  0  0  0  0  0  0  0  0
  -87.8190   26.5127    0.4744 C   0  0  0  0  0  0  0  0  0  0  0  0
  -87.7076   27.5021   -0.4810 C   0  0  0  0  0  0  0  0  0  0  0  0
  -86.7746   28.5103   -0.3587 C   0  0  0  0  0  0  0  0  0  0  0  0
  -85.9010   28.6005    0.7092 C   0  0  0  0  0  0  0  0  0  0  0  0
  -86.0174   27.6081    1.6614 C   0  0  0  0  0  0  0  0  0  0  0  0
  -86.9514   26.5965    1.5411 C   0  0  0  0  0  0  0  0  0  0  0  0
  -84.9226   29.6777    0.8132 C   0  0  0  0  0  0  0  0  0  0  0  0
  -85.2433   30.9113    0.2707 C   0  0  0  0  0  0  0  0  0  0  0  0
  -84.3722   31.9784    0.3259 C   0  0  0  0  0  0  0  0  0  0  0  0
  -83.1488   31.8199    0.9356 C   0  0  0  0  0  0  0  0  0  0  0  0
  -82.7801   30.6143    1.4913 C   0  0  0  0  0  0  0  0  0  0  0  0
  -83.6898   29.5732    1.4098 C   0  0  0  0  0  0  0  0  0  0  0  0
  -90.5792   23.4206    0.4768 C   0  0  0  0  0  0  0  0  0  0  0  0
  -90.5284   21.8841    2.4787 C   0  0  0  0  0  0  0  0  0  0  0  0
  -90.5829   22.0311    1.0046 C   0  0  0  0  0  0  0  0  0  0  0  0
  -91.9077   21.3979    0.5460 C   0  0  0  0  0  0  0  0  0  0  0  0
 35 36  1  0  0  0
 36 37  1  0  0  0
 36 34  1  0  0  0
 34  1  1  0  0  0
  1 18  1  0  0  0
 18 19  1  0  0  0
 19 20  2  0  0  0
 19 22  1  0  0  0
 22 23  2  0  0  0
 23 24  1  0  0  0
 24 25  2  0  0  0
 25 26  1  0  0  0
 26 27  2  0  0  0
 25 28  1  0  0  0
 28 29  2  0  0  0
 29 30  1  0  0  0
 30 31  2  0  0  0
 31 32  1  0  0  0
 32 33  2  0  0  0
  1  2  1  0  0  0
  2  3  2  0  0  0
  2  4  1  0  0  0
  4  5  1  0  0  0
  5  6  1  0  0  0
  6  7  1  0  0  0
  7  8  1  0  0  0
  8  9  1  0  0  0
  7 10  1  0  0  0
 10 11  2  0  0  0
 10 12  1  0  0  0
 12 13  2  0  0  0
 13 14  1  0  0  0
 14 15  2  0  0  0
 15 16  1  0  0  0
 16 17  2  0  0  0
 27 22  1  0  0  0
 33 28  1  0  0  0
  9  4  1  0  0  0
 17 12  1  0  0  0
 18 21  1  0  0  0
M  END
> <minimizedAffinity>
-8.65885

> <CNNscore>
0.0995425209

> <CNNaffinity>
5.6646223068

> <CNN_VS>
0.5638707876

> <CNNaffinity_variance>
0.3862150311

$$$$
[H]c1c([H])c([H])c(C(=O)N2C([H])([H])C([H])([H])N(C(=O)[C@@]([H])(N([H])C(=O)c3c([H])c([H])c(-c4c([H])c([H])c([H])c([H])c4[H])c([H])c3[H])C([H])([H])C([H])(C([H])([H])[H])C([H])([H])[H])C([H])([H])C2([H])[H])c([H])c1[H]


 37 40  0  0  0  0  0  0  0  0999 V2000
  -92.0367   30.0555   -3.3935 C   0  0  0  0  0  0  0  0  0  0  0  0
  -92.1797   29.1152   -4.4680 C   0  0  0  0  0  0  0  0  0  0  0  0
  -92.0376   29.5075   -5.6852 O   0  0  0  0  0  0  0  0  0  0  0  0
  -92.4648   27.7484   -4.3172 N   0  0  0  0  0  0  0  0  0  0  0  0
  -92.6243   27.1541   -3.0114 C   0  0  0  0  0  0  0  0  0  0  0  0
  -92.2333   25.6650   -3.1333 C   0  0  0  0  0  0  0  0  0  0  0  0
  -93.3967   25.1078   -3.9032 N   0  0  0  0  0  0  0  0  0  0  0  0
  -93.6748   25.7974   -5.0978 C   0  0  0  0  0  0  0  0  0  0  0  0
  -92.5981   26.8470   -5.4557 C   0  0  0  0  0  0  0  0  0  0  0  0
  -94.0041   24.0021   -3.3534 C   0  0  0  0  0  0  0  0  0  0  0  0
  -93.4653   23.5366   -2.2242 O   0  0  0  0  0  0  0  0  0  0  0  0
  -95.1434   23.2514   -3.8041 C   0  0  0  0  0  0  0  0  0  0  0  0
  -96.1821   23.7791   -4.5089 C   0  0  0  0  0  0  0  0  0  0  0  0
  -97.2475   22.9638   -4.9420 C   0  0  0  0  0  0  0  0  0  0  0  0
  -97.2831   21.6345   -4.6768 C   0  0  0  0  0  0  0  0  0  0  0  0
  -96.2537   21.0725   -3.9688 C   0  0  0  0  0  0  0  0  0  0  0  0
  -95.2149   21.8625   -3.5461 C   0  0  0  0  0  0  0  0  0  0  0  0
  -90.6299   30.1708   -2.9448 N   0  0  0  0  0  0  0  0  0  0  0  0
  -90.2747   29.9004   -1.6239 C   0  0  0  0  0  0  0  0  0  0  0  0
  -91.1952   29.5472   -0.8078 O   0  0  0  0  0  0  0  0  0  0  0  0
  -89.9373   30.4580   -3.6533 H   0  0  0  0  0  0  0  0  0  0  0  0
  -88.9141   29.9945   -1.1067 C   0  0  0  0  0  0  0  0  0  0  0  0
  -88.1109   28.8757   -1.0201 C   0  0  0  0  0  0  0  0  0  0  0  0
  -86.8254   28.9568   -0.5272 C   0  0  0  0  0  0  0  0  0  0  0  0
  -86.2602   30.1415   -0.0930 C   0  0  0  0  0  0  0  0  0  0  0  0
  -87.0684   31.2568   -0.1822 C   0  0  0  0  0  0  0  0  0  0  0  0
  -88.3571   31.1783   -0.6756 C   0  0  0  0  0  0  0  0  0  0  0  0
  -84.8975   30.1987    0.4251 C   0  0  0  0  0  0  0  0  0  0  0  0
  -84.4950   29.2247    1.3241 C   0  0  0  0  0  0  0  0  0  0  0  0
  -83.2252   29.2108    1.8607 C   0  0  0  0  0  0  0  0  0  0  0  0
  -82.3282   30.1889    1.4968 C   0  0  0  0  0  0  0  0  0  0  0  0
  -82.6771   31.1806    0.6063 C   0  0  0  0  0  0  0  0  0  0  0  0
  -83.9641   31.1510    0.0957 C   0  0  0  0  0  0  0  0  0  0  0  0
  -92.5893   31.4245   -3.6103 C   0  0  0  0  0  0  0  0  0  0  0  0
  -95.0858   31.6932   -3.8678 C   0  0  0  0  0  0  0  0  0  0  0  0
  -93.7615   31.5418   -4.5166 C   0  0  0  0  0  0  0  0  0  0  0  0
  -93.5334   32.8101   -5.3567 C   0  0  0  0  0  0  0  0  0  0  0  0
 35 36  1  0  0  0
 36 37  1  0  0  0
 36 34  1  0  0  0
 34  1  1  0  0  0
  1 18  1  0  0  0
 18 19  1  0  0  0
 19 20  2  0  0  0
 19 22  1  0  0  0
 22 23  2  0  0  0
 23 24  1  0  0  0
 24 25  2  0  0  0
 25 26  1  0  0  0
 26 27  2  0  0  0
 25 28  1  0  0  0
 28 29  2  0  0  0
 29 30  1  0  0  0
 30 31  2  0  0  0
 31 32  1  0  0  0
 32 33  2  0  0  0
  1  2  1  0  0  0
  2  3  2  0  0  0
  2  4  1  0  0  0
  4  5  1  0  0  0
  5  6  1  0  0  0
  6  7  1  0  0  0
  7  8  1  0  0  0
  8  9  1  0  0  0
  7 10  1  0  0  0
 10 11  2  0  0  0
 10 12  1  0  0  0
 12 13  2  0  0  0
 13 14  1  0  0  0
 14 15  2  0  0  0
 15 16  1  0  0  0
 16 17  2  0  0  0
 27 22  1  0  0  0
 33 28  1  0  0  0
  9  4  1  0  0  0
 17 12  1  0  0  0
 18 21  1  0  0  0
M  END
> <minimizedAffinity>
-7.63354

> <CNNscore>
0.0933356881

> <CNNaffinity>
5.3636193275

> <CNN_VS>
0.5006170869

> <CNNaffinity_variance>
0.1654636115

$$$$
[H]c1c([H])c([H])c(-c2c([H])c([H])c(C(=O)N3C([H])([H])C([H])([H])N(c4c([H])c([H])c([H])c([H])c4[H])C([H])([H])[C@@]3([H])C([H])([H])[H])c([H])c2[H])c([H])c1[H]


 27 30  0  0  0  0  0  0  0  0999 V2000
  -90.3689   30.1301   -6.0927 C   0  0  0  0  0  0  0  0  0  0  0  0
  -91.1333   30.9183   -5.0461 C   0  0  0  0  0  0  0  0  0  0  0  0
  -91.4397   32.3281   -5.6335 C   0  0  0  0  0  0  0  0  0  0  0  0
  -91.5571   33.2374   -4.5432 N   0  0  0  0  0  0  0  0  0  0  0  0
  -90.3457   33.5485   -3.7599 C   0  0  0  0  0  0  0  0  0  0  0  0
  -89.4663   32.3284   -3.9181 C   0  0  0  0  0  0  0  0  0  0  0  0
  -90.3971   31.1523   -3.8458 N   0  0  0  0  0  0  0  0  0  0  0  0
  -90.3755   30.4877   -2.6366 C   0  0  0  0  0  0  0  0  0  0  0  0
  -89.5847   31.0136   -1.7151 O   0  0  0  0  0  0  0  0  0  0  0  0
  -91.0639   29.3205   -2.1945 C   0  0  0  0  0  0  0  0  0  0  0  0
  -92.4190   29.1161   -2.1279 C   0  0  0  0  0  0  0  0  0  0  0  0
  -93.0022   27.9423   -1.6321 C   0  0  0  0  0  0  0  0  0  0  0  0
  -92.2427   26.8998   -1.1731 C   0  0  0  0  0  0  0  0  0  0  0  0
  -90.8834   27.0831   -1.2320 C   0  0  0  0  0  0  0  0  0  0  0  0
  -90.3026   28.2240   -1.7130 C   0  0  0  0  0  0  0  0  0  0  0  0
  -92.8552   25.6835   -0.6604 C   0  0  0  0  0  0  0  0  0  0  0  0
  -94.2217   25.5158   -0.6080 C   0  0  0  0  0  0  0  0  0  0  0  0
  -94.7405   24.3543   -0.1166 C   0  0  0  0  0  0  0  0  0  0  0  0
  -93.8677   23.3572    0.3242 C   0  0  0  0  0  0  0  0  0  0  0  0
  -92.5073   23.5071    0.2793 C   0  0  0  0  0  0  0  0  0  0  0  0
  -92.0061   24.6885   -0.2210 C   0  0  0  0  0  0  0  0  0  0  0  0
  -92.7662   33.8533   -4.1629 C   0  0  0  0  0  0  0  0  0  0  0  0
  -93.7672   33.0991   -3.5574 C   0  0  0  0  0  0  0  0  0  0  0  0
  -94.9724   33.6341   -3.1670 C   0  0  0  0  0  0  0  0  0  0  0  0
  -95.1596   34.9853   -3.4038 C   0  0  0  0  0  0  0  0  0  0  0  0
  -94.1888   35.7358   -3.9954 C   0  0  0  0  0  0  0  0  0  0  0  0
  -92.9740   35.1945   -4.3885 C   0  0  0  0  0  0  0  0  0  0  0  0
  1  2  1  0  0  0
  2  3  1  0  0  0
  3  4  1  0  0  0
  4  5  1  0  0  0
  5  6  1  0  0  0
  6  7  1  0  0  0
  7  8  1  0  0  0
  8  9  2  0  0  0
  8 10  1  0  0  0
 10 11  2  0  0  0
 11 12  1  0  0  0
 12 13  2  0  0  0
 13 14  1  0  0  0
 14 15  2  0  0  0
 13 16  1  0  0  0
 16 17  2  0  0  0
 17 18  1  0  0  0
 18 19  2  0  0  0
 19 20  1  0  0  0
 20 21  2  0  0  0
  4 22  1  0  0  0
 22 23  2  0  0  0
 23 24  1  0  0  0
 24 25  2  0  0  0
 25 26  1  0  0  0
 26 27  2  0  0  0
  7  2  1  0  0  0
 15 10  1  0  0  0
 21 16  1  0  0  0
 27 22  1  0  0  0
M  END
> <minimizedAffinity>
1.71499

> <CNNscore>
0.3839547336

> <CNNaffinity>
4.9226880074

> <CNN_VS>
1.8900893927

> <CNNaffinity_variance>
0.9875048399

$$$$
[H]c1c([H])c([H])c(-c2c([H])c([H])c(C(=O)N3C([H])([H])C([H])([H])N(c4c([H])c([H])c([H])c([H])c4[H])C([H])([H])[C@@]3([H])C([H])([H])[H])c([H])c2[H])c([H])c1[H]


 27 30  0  0  0  0  0  0  0  0999 V2000
  -88.7769   25.8231   -1.7215 C   0  0  0  0  0  0  0  0  0  0  0  0
  -89.0356   26.2776   -0.2976 C   0  0  0  0  0  0  0  0  0  0  0  0
  -89.6523   25.0806    0.4855 C   0  0  0  0  0  0  0  0  0  0  0  0
  -90.4503   25.6145    1.5379 N   0  0  0  0  0  0  0  0  0  0  0  0
  -91.6827   26.3428    1.1792 C   0  0  0  0  0  0  0  0  0  0  0  0
  -91.4160   26.8821   -0.2083 C   0  0  0  0  0  0  0  0  0  0  0  0
  -89.9853   27.3379   -0.1920 N   0  0  0  0  0  0  0  0  0  0  0  0
  -89.8287   28.7052   -0.0908 C   0  0  0  0  0  0  0  0  0  0  0  0
  -90.9507   29.3967    0.0286 O   0  0  0  0  0  0  0  0  0  0  0  0
  -88.6581   29.5185   -0.0893 C   0  0  0  0  0  0  0  0  0  0  0  0
  -88.5158   30.7910   -0.5824 C   0  0  0  0  0  0  0  0  0  0  0  0
  -87.3034   31.4938   -0.5748 C   0  0  0  0  0  0  0  0  0  0  0  0
  -86.1575   30.9464   -0.0632 C   0  0  0  0  0  0  0  0  0  0  0  0
  -86.2783   29.6736    0.4369 C   0  0  0  0  0  0  0  0  0  0  0  0
  -87.4555   28.9775    0.4346 C   0  0  0  0  0  0  0  0  0  0  0  0
  -84.9024   31.6825   -0.0578 C   0  0  0  0  0  0  0  0  0  0  0  0
  -84.7874   32.9413   -0.6060 C   0  0  0  0  0  0  0  0  0  0  0  0
  -83.5853   33.5842   -0.5732 C   0  0  0  0  0  0  0  0  0  0  0  0
  -82.4933   32.9461    0.0191 C   0  0  0  0  0  0  0  0  0  0  0  0
  -82.5897   31.6956    0.5686 C   0  0  0  0  0  0  0  0  0  0  0  0
  -83.8137   31.0656    0.5240 C   0  0  0  0  0  0  0  0  0  0  0  0
  -90.1280   25.4941    2.9045 C   0  0  0  0  0  0  0  0  0  0  0  0
  -90.3867   26.5508    3.7727 C   0  0  0  0  0  0  0  0  0  0  0  0
  -90.0923   26.5034    5.1152 C   0  0  0  0  0  0  0  0  0  0  0  0
  -89.5142   25.3364    5.5849 C   0  0  0  0  0  0  0  0  0  0  0  0
  -89.2554   24.2940    4.7468 C   0  0  0  0  0  0  0  0  0  0  0  0
  -89.5530   24.3438    3.3931 C   0  0  0  0  0  0  0  0  0  0  0  0
  1  2  1  0  0  0
  2  3  1  0  0  0
  3  4  1  0  0  0
  4  5  1  0  0  0
  5  6  1  0  0  0
  6  7  1  0  0  0
  7  8  1  0  0  0
  8  9  2  0  0  0
  8 10  1  0  0  0
 10 11  2  0  0  0
 11 12  1  0  0  0
 12 13  2  0  0  0
 13 14  1  0  0  0
 14 15  2  0  0  0
 13 16  1  0  0  0
 16 17  2  0  0  0
 17 18  1  0  0  0
 18 19  2  0  0  0
 19 20  1  0  0  0
 20 21  2  0  0  0
  4 22  1  0  0  0
 22 23  2  0  0  0
 23 24  1  0  0  0
 24 25  2  0  0  0
 25 26  1  0  0  0
 26 27  2  0  0  0
  7  2  1  0  0  0
 15 10  1  0  0  0
 21 16  1  0  0  0
 27 22  1  0  0  0
M  END
> <minimizedAffinity>
-8.04844

> <CNNscore>
0.3352530897

> <CNNaffinity>
5.7615294456

> <CNN_VS>
1.9315705299

> <CNNaffinity_variance>
0.1372150481

$$$$
[H]c1c([H])c([H])c(-c2c([H])c([H])c(C(=O)N3C([H])([H])C([H])([H])N(c4c([H])c([H])c([H])c([H])c4[H])C([H])([H])[C@@]3([H])C([H])([H])[H])c([H])c2[H])c([H])c1[H]


 27 30  0  0  0  0  0  0  0  0999 V2000
  -92.2163   24.5795    0.3243 C   0  0  0  0  0  0  0  0  0  0  0  0
  -92.1304   25.7295   -0.6611 C   0  0  0  0  0  0  0  0  0  0  0  0
  -93.5543   25.9713   -1.2445 C   0  0  0  0  0  0  0  0  0  0  0  0
  -93.4019   26.5432   -2.5404 N   0  0  0  0  0  0  0  0  0  0  0  0
  -92.8298   25.7040   -3.6110 C   0  0  0  0  0  0  0  0  0  0  0  0
  -91.9664   24.6968   -2.8851 C   0  0  0  0  0  0  0  0  0  0  0  0
  -91.2921   25.4665   -1.7860 N   0  0  0  0  0  0  0  0  0  0  0  0
  -89.9727   25.7790   -2.0420 C   0  0  0  0  0  0  0  0  0  0  0  0
  -89.5210   25.4029   -3.2276 O   0  0  0  0  0  0  0  0  0  0  0  0
  -88.9948   26.4462   -1.2479 C   0  0  0  0  0  0  0  0  0  0  0  0
  -88.6059   27.7602   -1.3186 C   0  0  0  0  0  0  0  0  0  0  0  0
  -87.5965   28.3135   -0.5195 C   0  0  0  0  0  0  0  0  0  0  0  0
  -86.9185   27.5645    0.4046 C   0  0  0  0  0  0  0  0  0  0  0  0
  -87.2932   26.2467    0.4925 C   0  0  0  0  0  0  0  0  0  0  0  0
  -88.2761   25.6951   -0.2821 C   0  0  0  0  0  0  0  0  0  0  0  0
  -85.8721   28.1461    1.2316 C   0  0  0  0  0  0  0  0  0  0  0  0
  -85.1354   27.3936    2.1201 C   0  0  0  0  0  0  0  0  0  0  0  0
  -84.1670   27.9923    2.8706 C   0  0  0  0  0  0  0  0  0  0  0  0
  -83.9447   29.3627    2.7188 C   0  0  0  0  0  0  0  0  0  0  0  0
  -84.6673   30.1256    1.8408 C   0  0  0  0  0  0  0  0  0  0  0  0
  -85.6401   29.4993    1.0933 C   0  0  0  0  0  0  0  0  0  0  0  0
  -93.7593   27.8685   -2.8593 C   0  0  0  0  0  0  0  0  0  0  0  0
  -94.7006   28.5379   -2.0827 C   0  0  0  0  0  0  0  0  0  0  0  0
  -95.0998   29.8283   -2.3406 C   0  0  0  0  0  0  0  0  0  0  0  0
  -94.5167   30.4546   -3.4290 C   0  0  0  0  0  0  0  0  0  0  0  0
  -93.5940   29.8118   -4.1980 C   0  0  0  0  0  0  0  0  0  0  0  0
  -93.1927   28.5102   -3.9363 C   0  0  0  0  0  0  0  0  0  0  0  0
  1  2  1  0  0  0
  2  3  1  0  0  0
  3  4  1  0  0  0
  4  5  1  0  0  0
  5  6  1  0  0  0
  6  7  1  0  0  0
  7  8  1  0  0  0
  8  9  2  0  0  0
  8 10  1  0  0  0
 10 11  2  0  0  0
 11 12  1  0  0  0
 12 13  2  0  0  0
 13 14  1  0  0  0
 14 15  2  0  0  0
 13 16  1  0  0  0
 16 17  2  0  0  0
 17 18  1  0  0  0
 18 19  2  0  0  0
 19 20  1  0  0  0
 20 21  2  0  0  0
  4 22  1  0  0  0
 22 23  2  0  0  0
 23 24  1  0  0  0
 24 25  2  0  0  0
 25 26  1  0  0  0
 26 27  2  0  0  0
  7  2  1  0  0  0
 15 10  1  0  0  0
 21 16  1  0  0  0
 27 22  1  0  0  0
M  END
> <minimizedAffinity>
-5.25112

> <CNNscore>
0.2292623669

> <CNNaffinity>
5.0992703438

> <CNN_VS>
1.1690708399

> <CNNaffinity_variance>
0.6474326849

$$$$
[H]c1c([H])c([H])c(-c2c([H])c([H])c(C(=O)N3C([H])([H])C([H])([H])N(c4c([H])c([H])c([H])c([H])c4[H])C([H])([H])[C@@]3([H])C([H])([H])[H])c([H])c2[H])c([H])c1[H]


 27 30  0  0  0  0  0  0  0  0999 V2000
  -92.6844   24.5495    1.3991 C   0  0  0  0  0  0  0  0  0  0  0  0
  -92.6316   24.1456   -0.0620 C   0  0  0  0  0  0  0  0  0  0  0  0
  -93.7413   23.0806   -0.3078 C   0  0  0  0  0  0  0  0  0  0  0  0
  -93.3275   22.2655   -1.4005 N   0  0  0  0  0  0  0  0  0  0  0  0
  -92.1644   21.3779   -1.2081 C   0  0  0  0  0  0  0  0  0  0  0  0
  -91.3426   22.0545   -0.1339 C   0  0  0  0  0  0  0  0  0  0  0  0
  -91.4065   23.5219   -0.4462 N   0  0  0  0  0  0  0  0  0  0  0  0
  -90.2664   24.0237   -1.0399 C   0  0  0  0  0  0  0  0  0  0  0  0
  -89.3192   23.1341   -1.2898 O   0  0  0  0  0  0  0  0  0  0  0  0
  -89.9214   25.3475   -1.4405 C   0  0  0  0  0  0  0  0  0  0  0  0
  -88.8547   26.1029   -1.0233 C   0  0  0  0  0  0  0  0  0  0  0  0
  -88.6261   27.4199   -1.4441 C   0  0  0  0  0  0  0  0  0  0  0  0
  -89.4687   28.0524   -2.3184 C   0  0  0  0  0  0  0  0  0  0  0  0
  -90.5424   27.3135   -2.7496 C   0  0  0  0  0  0  0  0  0  0  0  0
  -90.7764   26.0280   -2.3457 C   0  0  0  0  0  0  0  0  0  0  0  0
  -89.2245   29.4199   -2.7518 C   0  0  0  0  0  0  0  0  0  0  0  0
  -87.9923   29.8370   -3.2056 C   0  0  0  0  0  0  0  0  0  0  0  0
  -87.8208   31.1316   -3.5983 C   0  0  0  0  0  0  0  0  0  0  0  0
  -88.9059   32.0081   -3.5302 C   0  0  0  0  0  0  0  0  0  0  0  0
  -90.1372   31.6105   -3.0819 C   0  0  0  0  0  0  0  0  0  0  0  0
  -90.2869   30.2984   -2.6906 C   0  0  0  0  0  0  0  0  0  0  0  0
  -93.9604   22.2620   -2.6595 C   0  0  0  0  0  0  0  0  0  0  0  0
  -94.5347   23.4315   -3.1492 C   0  0  0  0  0  0  0  0  0  0  0  0
  -95.1727   23.4976   -4.3657 C   0  0  0  0  0  0  0  0  0  0  0  0
  -95.2248   22.3286   -5.1056 C   0  0  0  0  0  0  0  0  0  0  0  0
  -94.6670   21.1766   -4.6390 C   0  0  0  0  0  0  0  0  0  0  0  0
  -94.0241   21.1119   -3.4118 C   0  0  0  0  0  0  0  0  0  0  0  0
  1  2  1  0  0  0
  2  3  1  0  0  0
  3  4  1  0  0  0
  4  5  1  0  0  0
  5  6  1  0  0  0
  6  7  1  0  0  0
  7  8  1  0  0  0
  8  9  2  0  0  0
  8 10  1  0  0  0
 10 11  2  0  0  0
 11 12  1  0  0  0
 12 13  2  0  0  0
 13 14  1  0  0  0
 14 15  2  0  0  0
 13 16  1  0  0  0
 16 17  2  0  0  0
 17 18  1  0  0  0
 18 19  2  0  0  0
 19 20  1  0  0  0
 20 21  2  0  0  0
  4 22  1  0  0  0
 22 23  2  0  0  0
 23 24  1  0  0  0
 24 25  2  0  0  0
 25 26  1  0  0  0
 26 27  2  0  0  0
  7  2  1  0  0  0
 15 10  1  0  0  0
 21 16  1  0  0  0
 27 22  1  0  0  0
M  END
> <minimizedAffinity>
-3.64562

> <CNNscore>
0.2072949260

> <CNNaffinity>
4.6307902336

> <CNN_VS>
0.9599393010

> <CNNaffinity_variance>
0.5539849401

$$$$
[H]c1c([H])c([H])c(-c2c([H])c([H])c(C(=O)N3C([H])([H])C([H])([H])N(c4c([H])c([H])c([H])c([H])c4[H])C([H])([H])[C@@]3([H])C([H])([H])[H])c([H])c2[H])c([H])c1[H]


 27 30  0  0  0  0  0  0  0  0999 V2000
  -91.9616   31.0051   -2.7842 C   0  0  0  0  0  0  0  0  0  0  0  0
  -90.8619   32.0107   -3.0676 C   0  0  0  0  0  0  0  0  0  0  0  0
  -91.5209   33.2897   -3.6643 C   0  0  0  0  0  0  0  0  0  0  0  0
  -90.5520   33.9356   -4.4850 N   0  0  0  0  0  0  0  0  0  0  0  0
  -90.1324   33.2639   -5.7302 C   0  0  0  0  0  0  0  0  0  0  0  0
  -90.3538   31.7921   -5.4621 C   0  0  0  0  0  0  0  0  0  0  0  0
  -89.9154   31.5738   -4.0426 N   0  0  0  0  0  0  0  0  0  0  0  0
  -88.6778   30.9762   -3.9187 C   0  0  0  0  0  0  0  0  0  0  0  0
  -88.0478   30.7365   -5.0575 O   0  0  0  0  0  0  0  0  0  0  0  0
  -87.9439   30.5668   -2.7673 C   0  0  0  0  0  0  0  0  0  0  0  0
  -87.4260   31.3580   -1.7731 C   0  0  0  0  0  0  0  0  0  0  0  0
  -86.6751   30.8610   -0.6994 C   0  0  0  0  0  0  0  0  0  0  0  0
  -86.4042   29.5254   -0.5679 C   0  0  0  0  0  0  0  0  0  0  0  0
  -86.9146   28.7154   -1.5518 C   0  0  0  0  0  0  0  0  0  0  0  0
  -87.6481   29.1886   -2.6047 C   0  0  0  0  0  0  0  0  0  0  0  0
  -85.6245   29.0164    0.5502 C   0  0  0  0  0  0  0  0  0  0  0  0
  -85.9661   27.8602    1.2171 C   0  0  0  0  0  0  0  0  0  0  0  0
  -85.1986   27.4306    2.2592 C   0  0  0  0  0  0  0  0  0  0  0  0
  -84.0780   28.1785    2.6269 C   0  0  0  0  0  0  0  0  0  0  0  0
  -83.7240   29.3296    1.9752 C   0  0  0  0  0  0  0  0  0  0  0  0
  -84.5139   29.7441    0.9258 C   0  0  0  0  0  0  0  0  0  0  0  0
  -89.9639   35.1778   -4.1738 C   0  0  0  0  0  0  0  0  0  0  0  0
  -88.6847   35.2206   -3.6266 C   0  0  0  0  0  0  0  0  0  0  0  0
  -88.0539   36.3965   -3.2938 C   0  0  0  0  0  0  0  0  0  0  0  0
  -88.7550   37.5671   -3.5285 C   0  0  0  0  0  0  0  0  0  0  0  0
  -90.0076   37.5404   -4.0635 C   0  0  0  0  0  0  0  0  0  0  0  0
  -90.6421   36.3535   -4.3985 C   0  0  0  0  0  0  0  0  0  0  0  0
  1  2  1  0  0  0
  2  3  1  0  0  0
  3  4  1  0  0  0
  4  5  1  0  0  0
  5  6  1  0  0  0
  6  7  1  0  0  0
  7  8  1  0  0  0
  8  9  2  0  0  0
  8 10  1  0  0  0
 10 11  2  0  0  0
 11 12  1  0  0  0
 12 13  2  0  0  0
 13 14  1  0  0  0
 14 15  2  0  0  0
 13 16  1  0  0  0
 16 17  2  0  0  0
 17 18  1  0  0  0
 18 19  2  0  0  0
 19 20  1  0  0  0
 20 21  2  0  0  0
  4 22  1  0  0  0
 22 23  2  0  0  0
 23 24  1  0  0  0
 24 25  2  0  0  0
 25 26  1  0  0  0
 26 27  2  0  0  0
  7  2  1  0  0  0
 15 10  1  0  0  0
 21 16  1  0  0  0
 27 22  1  0  0  0
M  END
> <minimizedAffinity>
-8.23727

> <CNNscore>
0.1994456649

> <CNNaffinity>
5.6300821304

> <CNN_VS>
1.1228954792

> <CNNaffinity_variance>
0.3576911390

$$$$
[H]c1c([H])c([H])c(-c2c([H])c([H])c(C(=O)N3C([H])([H])C([H])([H])N(c4c([H])c([H])c([H])c([H])c4[H])C([H])([H])[C@@]3([H])C([H])([H])[H])c([H])c2[H])c([H])c1[H]


 27 30  0  0  0  0  0  0  0  0999 V2000
  -92.5797   31.2134   -4.9294 C   0  0  0  0  0  0  0  0  0  0  0  0
  -92.2883   32.6454   -4.5228 C   0  0  0  0  0  0  0  0  0  0  0  0
  -93.5379   33.5083   -4.8692 C   0  0  0  0  0  0  0  0  0  0  0  0
  -93.0952   34.8430   -5.0972 N   0  0  0  0  0  0  0  0  0  0  0  0
  -92.2664   35.1097   -6.2887 C   0  0  0  0  0  0  0  0  0  0  0  0
  -91.5775   33.7944   -6.5756 C   0  0  0  0  0  0  0  0  0  0  0  0
  -91.2011   33.2387   -5.2323 N   0  0  0  0  0  0  0  0  0  0  0  0
  -89.8660   33.3831   -4.9147 C   0  0  0  0  0  0  0  0  0  0  0  0
  -89.1373   34.0300   -5.8100 O   0  0  0  0  0  0  0  0  0  0  0  0
  -89.1201   32.9565   -3.7773 C   0  0  0  0  0  0  0  0  0  0  0  0
  -88.8361   33.6699   -2.6402 C   0  0  0  0  0  0  0  0  0  0  0  0
  -88.0508   33.1745   -1.5906 C   0  0  0  0  0  0  0  0  0  0  0  0
  -87.5048   31.9196   -1.6307 C   0  0  0  0  0  0  0  0  0  0  0  0
  -87.7779   31.1880   -2.7598 C   0  0  0  0  0  0  0  0  0  0  0  0
  -88.5422   31.6606   -3.7908 C   0  0  0  0  0  0  0  0  0  0  0  0
  -86.6910   31.4114   -0.5367 C   0  0  0  0  0  0  0  0  0  0  0  0
  -86.8884   30.1601    0.0051 C   0  0  0  0  0  0  0  0  0  0  0  0
  -86.0956   29.7361    1.0304 C   0  0  0  0  0  0  0  0  0  0  0  0
  -85.0967   30.5868    1.5089 C   0  0  0  0  0  0  0  0  0  0  0  0
  -84.8867   31.8332    0.9822 C   0  0  0  0  0  0  0  0  0  0  0  0
  -85.6995   32.2400   -0.0527 C   0  0  0  0  0  0  0  0  0  0  0  0
  -93.3965   35.9250   -4.2462 C   0  0  0  0  0  0  0  0  0  0  0  0
  -94.6023   35.9444   -3.5511 C   0  0  0  0  0  0  0  0  0  0  0  0
  -94.9627   36.9708   -2.7097 C   0  0  0  0  0  0  0  0  0  0  0  0
  -94.0597   38.0116   -2.5751 C   0  0  0  0  0  0  0  0  0  0  0  0
  -92.8759   38.0060   -3.2491 C   0  0  0  0  0  0  0  0  0  0  0  0
  -92.5142   36.9700   -4.0973 C   0  0  0  0  0  0  0  0  0  0  0  0
  1  2  1  0  0  0
  2  3  1  0  0  0
  3  4  1  0  0  0
  4  5  1  0  0  0
  5  6  1  0  0  0
  6  7  1  0  0  0
  7  8  1  0  0  0
  8  9  2  0  0  0
  8 10  1  0  0  0
 10 11  2  0  0  0
 11 12  1  0  0  0
 12 13  2  0  0  0
 13 14  1  0  0  0
 14 15  2  0  0  0
 13 16  1  0  0  0
 16 17  2  0  0  0
 17 18  1  0  0  0
 18 19  2  0  0  0
 19 20  1  0  0  0
 20 21  2  0  0  0
  4 22  1  0  0  0
 22 23  2  0  0  0
 23 24  1  0  0  0
 24 25  2  0  0  0
 25 26  1  0  0  0
 26 27  2  0  0  0
  7  2  1  0  0  0
 15 10  1  0  0  0
 21 16  1  0  0  0
 27 22  1  0  0  0
M  END
> <minimizedAffinity>
-7.18936

> <CNNscore>
0.1858556271

> <CNNaffinity>
5.0147147179

> <CNN_VS>
0.9320129752

> <CNNaffinity_variance>
0.1499792039

$$$$
[H]c1c([H])c([H])c(-c2c([H])c([H])c(C(=O)N3C([H])([H])C([H])([H])N(c4c([H])c([H])c([H])c([H])c4[H])C([H])([H])[C@@]3([H])C([H])([H])[H])c([H])c2[H])c([H])c1[H]


 27 30  0  0  0  0  0  0  0  0999 V2000
  -88.2578   28.5876   -3.2123 C   0  0  0  0  0  0  0  0  0  0  0  0
  -87.5790   29.2479   -2.0274 C   0  0  0  0  0  0  0  0  0  0  0  0
  -86.7607   28.1584   -1.2726 C   0  0  0  0  0  0  0  0  0  0  0  0
  -86.6603   28.5571    0.0914 N   0  0  0  0  0  0  0  0  0  0  0  0
  -87.8884   28.5619    0.9096 C   0  0  0  0  0  0  0  0  0  0  0  0
  -89.0078   28.7727   -0.0852 C   0  0  0  0  0  0  0  0  0  0  0  0
  -88.4867   29.7841   -1.0653 N   0  0  0  0  0  0  0  0  0  0  0  0
  -88.9822   31.0586   -0.8796 C   0  0  0  0  0  0  0  0  0  0  0  0
  -89.7926   31.2062    0.1560 O   0  0  0  0  0  0  0  0  0  0  0  0
  -88.7729   32.2632   -1.6125 C   0  0  0  0  0  0  0  0  0  0  0  0
  -89.5979   32.8339   -2.5486 C   0  0  0  0  0  0  0  0  0  0  0  0
  -89.2796   34.0035   -3.2518 C   0  0  0  0  0  0  0  0  0  0  0  0
  -88.1006   34.6684   -3.0461 C   0  0  0  0  0  0  0  0  0  0  0  0
  -87.2607   34.1147   -2.1120 C   0  0  0  0  0  0  0  0  0  0  0  0
  -87.5598   32.9736   -1.4199 C   0  0  0  0  0  0  0  0  0  0  0  0
  -87.7772   35.8829   -3.7793 C   0  0  0  0  0  0  0  0  0  0  0  0
  -87.9394   37.1365   -3.2310 C   0  0  0  0  0  0  0  0  0  0  0  0
  -87.6205   38.2404   -3.9653 C   0  0  0  0  0  0  0  0  0  0  0  0
  -87.1343   38.0716   -5.2636 C   0  0  0  0  0  0  0  0  0  0  0  0
  -86.9669   36.8334   -5.8240 C   0  0  0  0  0  0  0  0  0  0  0  0
  -87.2954   35.7330   -5.0637 C   0  0  0  0  0  0  0  0  0  0  0  0
  -85.4558   28.9550    0.7052 C   0  0  0  0  0  0  0  0  0  0  0  0
  -84.9510   28.2252    1.7776 C   0  0  0  0  0  0  0  0  0  0  0  0
  -83.7857   28.5604    2.4264 C   0  0  0  0  0  0  0  0  0  0  0  0
  -83.1147   29.6791    1.9627 C   0  0  0  0  0  0  0  0  0  0  0  0
  -83.5969   30.4029    0.9141 C   0  0  0  0  0  0  0  0  0  0  0  0
  -84.7724   30.0633    0.2611 C   0  0  0  0  0  0  0  0  0  0  0  0
  1  2  1  0  0  0
  2  3  1  0  0  0
  3  4  1  0  0  0
  4  5  1  0  0  0
  5  6  1  0  0  0
  6  7  1  0  0  0
  7  8  1  0  0  0
  8  9  2  0  0  0
  8 10  1  0  0  0
 10 11  2  0  0  0
 11 12  1  0  0  0
 12 13  2  0  0  0
 13 14  1  0  0  0
 14 15  2  0  0  0
 13 16  1  0  0  0
 16 17  2  0  0  0
 17 18  1  0  0  0
 18 19  2  0  0  0
 19 20  1  0  0  0
 20 21  2  0  0  0
  4 22  1  0  0  0
 22 23  2  0  0  0
 23 24  1  0  0  0
 24 25  2  0  0  0
 25 26  1  0  0  0
 26 27  2  0  0  0
  7  2  1  0  0  0
 15 10  1  0  0  0
 21 16  1  0  0  0
 27 22  1  0  0  0
M  END
> <minimizedAffinity>
-9.16668

> <CNNscore>
0.1591929644

> <CNNaffinity>
5.4692482948

> <CNN_VS>
0.8706658483

> <CNNaffinity_variance>
0.3016462922

$$$$
[H]c1c([H])c([H])c(-c2c([H])c([H])c(C(=O)N3C([H])([H])C([H])([H])N(c4c([H])c([H])c([H])c([H])c4[H])C([H])([H])[C@@]3([H])C([H])([H])[H])c([H])c2[H])c([H])c1[H]


 27 30  0  0  0  0  0  0  0  0999 V2000
  -88.1683   28.6994   -3.2343 C   0  0  0  0  0  0  0  0  0  0  0  0
  -87.4988   29.2741   -2.0004 C   0  0  0  0  0  0  0  0  0  0  0  0
  -86.8379   28.0992   -1.2198 C   0  0  0  0  0  0  0  0  0  0  0  0
  -86.7795   28.4689    0.1548 N   0  0  0  0  0  0  0  0  0  0  0  0
  -88.0473   28.5857    0.9009 C   0  0  0  0  0  0  0  0  0  0  0  0
  -89.0797   28.9193   -0.1526 C   0  0  0  0  0  0  0  0  0  0  0  0
  -88.4045   29.8859   -1.0824 N   0  0  0  0  0  0  0  0  0  0  0  0
  -88.7820   31.2010   -0.9024 C   0  0  0  0  0  0  0  0  0  0  0  0
  -89.6336   31.4156    0.0875 O   0  0  0  0  0  0  0  0  0  0  0  0
  -88.4121   32.3878   -1.5999 C   0  0  0  0  0  0  0  0  0  0  0  0
  -87.1971   33.0252   -1.5925 C   0  0  0  0  0  0  0  0  0  0  0  0
  -86.9447   34.2201   -2.2798 C   0  0  0  0  0  0  0  0  0  0  0  0
  -87.9135   34.8425   -3.0206 C   0  0  0  0  0  0  0  0  0  0  0  0
  -89.1370   34.2202   -3.0425 C   0  0  0  0  0  0  0  0  0  0  0  0
  -89.3956   33.0546   -2.3754 C   0  0  0  0  0  0  0  0  0  0  0  0
  -87.6440   36.0825   -3.7325 C   0  0  0  0  0  0  0  0  0  0  0  0
  -87.0124   36.1036   -4.9568 C   0  0  0  0  0  0  0  0  0  0  0  0
  -86.7850   37.2960   -5.5781 C   0  0  0  0  0  0  0  0  0  0  0  0
  -87.2007   38.4739   -4.9537 C   0  0  0  0  0  0  0  0  0  0  0  0
  -87.8297   38.4713   -3.7373 C   0  0  0  0  0  0  0  0  0  0  0  0
  -88.0488   37.2554   -3.1286 C   0  0  0  0  0  0  0  0  0  0  0  0
  -85.5800   28.7373    0.8440 C   0  0  0  0  0  0  0  0  0  0  0  0
  -84.7959   29.8254    0.4717 C   0  0  0  0  0  0  0  0  0  0  0  0
  -83.6121   30.1413    1.0963 C   0  0  0  0  0  0  0  0  0  0  0  0
  -83.2176   29.3167    2.1362 C   0  0  0  0  0  0  0  0  0  0  0  0
  -83.9749   28.2483    2.5115 C   0  0  0  0  0  0  0  0  0  0  0  0
  -85.1684   27.9313    1.8803 C   0  0  0  0  0  0  0  0  0  0  0  0
  1  2  1  0  0  0
  2  3  1  0  0  0
  3  4  1  0  0  0
  4  5  1  0  0  0
  5  6  1  0  0  0
  6  7  1  0  0  0
  7  8  1  0  0  0
  8  9  2  0  0  0
  8 10  1  0  0  0
 10 11  2  0  0  0
 11 12  1  0  0  0
 12 13  2  0  0  0
 13 14  1  0  0  0
 14 15  2  0  0  0
 13 16  1  0  0  0
 16 17  2  0  0  0
 17 18  1  0  0  0
 18 19  2  0  0  0
 19 20  1  0  0  0
 20 21  2  0  0  0
  4 22  1  0  0  0
 22 23  2  0  0  0
 23 24  1  0  0  0
 24 25  2  0  0  0
 25 26  1  0  0  0
 26 27  2  0  0  0
  7  2  1  0  0  0
 15 10  1  0  0  0
 21 16  1  0  0  0
 27 22  1  0  0  0
M  END
> <minimizedAffinity>
-9.32437

> <CNNscore>
0.1571762264

> <CNNaffinity>
5.4369049072

> <CNN_VS>
0.8545522094

> <CNNaffinity_variance>
0.3196392059

$$$$
[H]c1c([H])c([H])c(-c2c([H])c([H])c(C(=O)N3C([H])([H])C([H])([H])N(c4c([H])c([H])c([H])c([H])c4[H])C([H])([H])[C@@]3([H])C([H])([H])[H])c([H])c2[H])c([H])c1[H]


 27 30  0  0  0  0  0  0  0  0999 V2000
  -84.9352   29.7234   -0.2950 C   0  0  0  0  0  0  0  0  0  0  0  0
  -86.4212   29.5245   -0.0644 C   0  0  0  0  0  0  0  0  0  0  0  0
  -86.5963   28.4337    1.0338 C   0  0  0  0  0  0  0  0  0  0  0  0
  -87.8553   27.8016    0.8219 N   0  0  0  0  0  0  0  0  0  0  0  0
  -88.0254   26.9721   -0.3867 C   0  0  0  0  0  0  0  0  0  0  0  0
  -87.0466   27.5485   -1.3850 C   0  0  0  0  0  0  0  0  0  0  0  0
  -87.1242   29.0376   -1.2072 N   0  0  0  0  0  0  0  0  0  0  0  0
  -87.8507   29.6865   -2.1845 C   0  0  0  0  0  0  0  0  0  0  0  0
  -88.4077   28.9009   -3.0921 O   0  0  0  0  0  0  0  0  0  0  0  0
  -88.1150   31.0715   -2.3939 C   0  0  0  0  0  0  0  0  0  0  0  0
  -88.6826   31.9626   -1.5185 C   0  0  0  0  0  0  0  0  0  0  0  0
  -88.9443   33.3020   -1.8370 C   0  0  0  0  0  0  0  0  0  0  0  0
  -88.6435   33.8209   -3.0678 C   0  0  0  0  0  0  0  0  0  0  0  0
  -88.0733   32.9460   -3.9589 C   0  0  0  0  0  0  0  0  0  0  0  0
  -87.8137   31.6369   -3.6601 C   0  0  0  0  0  0  0  0  0  0  0  0
  -88.9173   35.2129   -3.3912 C   0  0  0  0  0  0  0  0  0  0  0  0
  -90.1418   35.6290   -3.8662 C   0  0  0  0  0  0  0  0  0  0  0  0
  -90.3417   36.9469   -4.1536 C   0  0  0  0  0  0  0  0  0  0  0  0
  -89.2929   37.8481   -3.9580 C   0  0  0  0  0  0  0  0  0  0  0  0
  -88.0697   37.4520   -3.4868 C   0  0  0  0  0  0  0  0  0  0  0  0
  -87.8910   36.1160   -3.2032 C   0  0  0  0  0  0  0  0  0  0  0  0
  -88.9529   27.9276    1.6967 C   0  0  0  0  0  0  0  0  0  0  0  0
  -88.8601   27.4434    2.9984 C   0  0  0  0  0  0  0  0  0  0  0  0
  -89.8936   27.5277    3.9018 C   0  0  0  0  0  0  0  0  0  0  0  0
  -91.0603   28.1272    3.4589 C   0  0  0  0  0  0  0  0  0  0  0  0
  -91.1653   28.6056    2.1877 C   0  0  0  0  0  0  0  0  0  0  0  0
  -90.1220   28.5197    1.2780 C   0  0  0  0  0  0  0  0  0  0  0  0
  1  2  1  0  0  0
  2  3  1  0  0  0
  3  4  1  0  0  0
  4  5  1  0  0  0
  5  6  1  0  0  0
  6  7  1  0  0  0
  7  8  1  0  0  0
  8  9  2  0  0  0
  8 10  1  0  0  0
 10 11  2  0  0  0
 11 12  1  0  0  0
 12 13  2  0  0  0
 13 14  1  0  0  0
 14 15  2  0  0  0
 13 16  1  0  0  0
 16 17  2  0  0  0
 17 18  1  0  0  0
 18 19  2  0  0  0
 19 20  1  0  0  0
 20 21  2  0  0  0
  4 22  1  0  0  0
 22 23  2  0  0  0
 23 24  1  0  0  0
 24 25  2  0  0  0
 25 26  1  0  0  0
 26 27  2  0  0  0
  7  2  1  0  0  0
 15 10  1  0  0  0
 21 16  1  0  0  0
 27 22  1  0  0  0
M  END
> <minimizedAffinity>
-8.68810

> <CNNscore>
0.1559801549

> <CNNaffinity>
5.5007386208

> <CNN_VS>
0.8580060601

> <CNNaffinity_variance>
0.1367739588

$$$$
[H]c1c([H])c([H])c(-c2c([H])c([H])c(C(=O)N3C([H])([H])C([H])([H])N(C(=O)c4c([H])c(OC([H])([H])[H])c(OC([H])([H])[H])c(OC([H])([H])[H])c4[H])C([H])([H])C3([H])[H])c([H])c2[H])c([H])c1[H]


 34 37  0  0  0  0  0  0  0  0999 V2000
  -86.7340   28.2456    1.4983 C   0  0  0  0  0  0  0  0  0  0  0  0
  -85.7642   27.5392    2.0392 O   0  0  0  0  0  0  0  0  0  0  0  0
  -87.9562   27.6253    1.5081 N   0  0  0  0  0  0  0  0  0  0  0  0
  -88.0131   26.2142    2.0472 C   0  0  0  0  0  0  0  0  0  0  0  0
  -88.2828   25.3764    0.8656 C   0  0  0  0  0  0  0  0  0  0  0  0
  -89.3037   25.8999   -0.0745 N   0  0  0  0  0  0  0  0  0  0  0  0
  -89.6129   27.2881   -0.1395 C   0  0  0  0  0  0  0  0  0  0  0  0
  -89.2681   28.0541    1.1396 C   0  0  0  0  0  0  0  0  0  0  0  0
  -89.9527   24.9279   -0.8135 C   0  0  0  0  0  0  0  0  0  0  0  0
  -89.6022   23.6965   -0.4946 O   0  0  0  0  0  0  0  0  0  0  0  0
  -86.7290   31.6417   -0.2118 C   0  0  0  0  0  0  0  0  0  0  0  0
  -87.1422   30.3595    0.1916 C   0  0  0  0  0  0  0  0  0  0  0  0
  -86.3799   29.5476    0.9834 C   0  0  0  0  0  0  0  0  0  0  0  0
  -85.1263   30.0832    1.3775 C   0  0  0  0  0  0  0  0  0  0  0  0
  -84.6942   31.3253    1.0022 C   0  0  0  0  0  0  0  0  0  0  0  0
  -85.5004   32.1084    0.2038 C   0  0  0  0  0  0  0  0  0  0  0  0
  -87.6974   32.1957   -2.3975 C   0  0  0  0  0  0  0  0  0  0  0  0
  -87.5406   32.4204   -1.0107 O   0  0  0  0  0  0  0  0  0  0  0  0
  -83.4672   31.8346    1.3951 O   0  0  0  0  0  0  0  0  0  0  0  0
  -82.3017   31.1655    0.9507 C   0  0  0  0  0  0  0  0  0  0  0  0
  -85.0356   33.3618   -0.1588 O   0  0  0  0  0  0  0  0  0  0  0  0
  -84.1985   33.4874   -1.2946 C   0  0  0  0  0  0  0  0  0  0  0  0
  -90.9284   25.0276   -1.8470 C   0  0  0  0  0  0  0  0  0  0  0  0
  -91.7175   23.8873   -2.1566 C   0  0  0  0  0  0  0  0  0  0  0  0
  -92.6058   23.9307   -3.1777 C   0  0  0  0  0  0  0  0  0  0  0  0
  -92.8063   25.0449   -3.9683 C   0  0  0  0  0  0  0  0  0  0  0  0
  -92.0364   26.1308   -3.6546 C   0  0  0  0  0  0  0  0  0  0  0  0
  -91.0994   26.1449   -2.6090 C   0  0  0  0  0  0  0  0  0  0  0  0
  -93.7703   25.0547   -5.0558 C   0  0  0  0  0  0  0  0  0  0  0  0
  -93.8764   26.1096   -5.8952 C   0  0  0  0  0  0  0  0  0  0  0  0
  -94.7972   26.1091   -6.9274 C   0  0  0  0  0  0  0  0  0  0  0  0
  -95.6002   25.0159   -7.0813 C   0  0  0  0  0  0  0  0  0  0  0  0
  -95.5090   23.9378   -6.2428 C   0  0  0  0  0  0  0  0  0  0  0  0
  -94.5849   23.9605   -5.2221 C   0  0  0  0  0  0  0  0  0  0  0  0
 17 18  1  0  0  0
 18 11  1  0  0  0
 11 12  2  0  0  0
 12 13  1  0  0  0
 13 14  2  0  0  0
 14 15  1  0  0  0
 15 19  1  0  0  0
 19 20  1  0  0  0
 15 16  2  0  0  0
 16 21  1  0  0  0
 21 22  1  0  0  0
 13  1  1  0  0  0
  1  2  2  0  0  0
  1  3  1  0  0  0
  3  4  1  0  0  0
  4  5  1  0  0  0
  5  6  1  0  0  0
  6  7  1  0  0  0
  7  8  1  0  0  0
  6  9  1  0  0  0
  9 10  2  0  0  0
  9 23  1  0  0  0
 23 24  2  0  0  0
 24 25  1  0  0  0
 25 26  2  0  0  0
 26 27  1  0  0  0
 27 28  2  0  0  0
 26 29  1  0  0  0
 29 30  2  0  0  0
 30 31  1  0  0  0
 31 32  2  0  0  0
 32 33  1  0  0  0
 33 34  2  0  0  0
 16 11  1  0  0  0
  8  3  1  0  0  0
 28 23  1  0  0  0
 34 29  1  0  0  0
M  END
> <minimizedAffinity>
-7.68562

> <CNNscore>
0.2160344124

> <CNNaffinity>
6.0558819771

> <CNN_VS>
1.3082789183

> <CNNaffinity_variance>
0.3979115784

$$$$
[H]c1c([H])c([H])c(-c2c([H])c([H])c(C(=O)N3C([H])([H])C([H])([H])N(C(=O)c4c([H])c(OC([H])([H])[H])c(OC([H])([H])[H])c(OC([H])([H])[H])c4[H])C([H])([H])C3([H])[H])c([H])c2[H])c([H])c1[H]


 34 37  0  0  0  0  0  0  0  0999 V2000
  -91.0255   33.1929   -5.0308 C   0  0  0  0  0  0  0  0  0  0  0  0
  -92.0498   33.3479   -5.8424 O   0  0  0  0  0  0  0  0  0  0  0  0
  -90.7373   31.8871   -4.7299 N   0  0  0  0  0  0  0  0  0  0  0  0
  -91.6608   30.8275   -5.2862 C   0  0  0  0  0  0  0  0  0  0  0  0
  -92.3723   30.3002   -4.1087 C   0  0  0  0  0  0  0  0  0  0  0  0
  -91.5373   30.0617   -2.9062 N   0  0  0  0  0  0  0  0  0  0  0  0
  -90.3070   30.7497   -2.7065 C   0  0  0  0  0  0  0  0  0  0  0  0
  -89.6763   31.2677   -4.0010 C   0  0  0  0  0  0  0  0  0  0  0  0
  -92.0247   29.0865   -2.0556 C   0  0  0  0  0  0  0  0  0  0  0  0
  -93.1094   28.4843   -2.5048 O   0  0  0  0  0  0  0  0  0  0  0  0
  -90.1764   36.7589   -4.0208 C   0  0  0  0  0  0  0  0  0  0  0  0
  -90.8864   35.6572   -4.5301 C   0  0  0  0  0  0  0  0  0  0  0  0
  -90.3636   34.3958   -4.5829 C   0  0  0  0  0  0  0  0  0  0  0  0
  -89.0402   34.2633   -4.0881 C   0  0  0  0  0  0  0  0  0  0  0  0
  -88.3221   35.3140   -3.5872 C   0  0  0  0  0  0  0  0  0  0  0  0
  -88.8939   36.5680   -3.5532 C   0  0  0  0  0  0  0  0  0  0  0  0
  -90.0119   39.1953   -3.7766 C   0  0  0  0  0  0  0  0  0  0  0  0
  -90.7544   38.0113   -3.9893 O   0  0  0  0  0  0  0  0  0  0  0  0
  -87.0305   35.1689   -3.1076 O   0  0  0  0  0  0  0  0  0  0  0  0
  -86.5708   33.8584   -2.8347 C   0  0  0  0  0  0  0  0  0  0  0  0
  -88.1420   37.6116   -3.0392 O   0  0  0  0  0  0  0  0  0  0  0  0
  -87.2076   38.2691   -3.8767 C   0  0  0  0  0  0  0  0  0  0  0  0
  -91.5581   28.6225   -0.7919 C   0  0  0  0  0  0  0  0  0  0  0  0
  -91.4986   27.2227   -0.5554 C   0  0  0  0  0  0  0  0  0  0  0  0
  -91.1236   26.7524    0.6578 C   0  0  0  0  0  0  0  0  0  0  0  0
  -90.7825   27.5661    1.7200 C   0  0  0  0  0  0  0  0  0  0  0  0
  -90.8474   28.9095    1.4719 C   0  0  0  0  0  0  0  0  0  0  0  0
  -91.2297   29.4554    0.2360 C   0  0  0  0  0  0  0  0  0  0  0  0
  -90.3835   27.0249    3.0083 C   0  0  0  0  0  0  0  0  0  0  0  0
  -90.4455   27.7686    4.1360 C   0  0  0  0  0  0  0  0  0  0  0  0
  -90.0634   27.2440    5.3575 C   0  0  0  0  0  0  0  0  0  0  0  0
  -89.6203   25.9535    5.4004 C   0  0  0  0  0  0  0  0  0  0  0  0
  -89.5498   25.1836    4.2709 C   0  0  0  0  0  0  0  0  0  0  0  0
  -89.9355   25.7270    3.0658 C   0  0  0  0  0  0  0  0  0  0  0  0
 17 18  1  0  0  0
 18 11  1  0  0  0
 11 12  2  0  0  0
 12 13  1  0  0  0
 13 14  2  0  0  0
 14 15  1  0  0  0
 15 19  1  0  0  0
 19 20  1  0  0  0
 15 16  2  0  0  0
 16 21  1  0  0  0
 21 22  1  0  0  0
 13  1  1  0  0  0
  1  2  2  0  0  0
  1  3  1  0  0  0
  3  4  1  0  0  0
  4  5  1  0  0  0
  5  6  1  0  0  0
  6  7  1  0  0  0
  7  8  1  0  0  0
  6  9  1  0  0  0
  9 10  2  0  0  0
  9 23  1  0  0  0
 23 24  2  0  0  0
 24 25  1  0  0  0
 25 26  2  0  0  0
 26 27  1  0  0  0
 27 28  2  0  0  0
 26 29  1  0  0  0
 29 30  2  0  0  0
 30 31  1  0  0  0
 31 32  2  0  0  0
 32 33  1  0  0  0
 33 34  2  0  0  0
 16 11  1  0  0  0
  8  3  1  0  0  0
 28 23  1  0  0  0
 34 29  1  0  0  0
M  END
> <minimizedAffinity>
-7.08514

> <CNNscore>
0.2092138529

> <CNNaffinity>
5.5752749443

> <CNN_VS>
1.1664247513

> <CNNaffinity_variance>
0.1145754009

$$$$
[H]c1c([H])c([H])c(-c2c([H])c([H])c(C(=O)N3C([H])([H])C([H])([H])N(C(=O)c4c([H])c(OC([H])([H])[H])c(OC([H])([H])[H])c(OC([H])([H])[H])c4[H])C([H])([H])C3([H])[H])c([H])c2[H])c([H])c1[H]


 34 37  0  0  0  0  0  0  0  0999 V2000
  -86.9181   27.9379    1.7265 C   0  0  0  0  0  0  0  0  0  0  0  0
  -86.0687   27.1232    2.3155 O   0  0  0  0  0  0  0  0  0  0  0  0
  -88.2048   27.4686    1.6735 N   0  0  0  0  0  0  0  0  0  0  0  0
  -88.4578   26.0774    2.2079 C   0  0  0  0  0  0  0  0  0  0  0  0
  -88.7660   25.2716    1.0135 C   0  0  0  0  0  0  0  0  0  0  0  0
  -89.6677   25.9086    0.0230 N   0  0  0  0  0  0  0  0  0  0  0  0
  -89.8045   27.3235   -0.0565 C   0  0  0  0  0  0  0  0  0  0  0  0
  -89.4354   28.0495    1.2391 C   0  0  0  0  0  0  0  0  0  0  0  0
  -90.3904   25.0175   -0.7488 C   0  0  0  0  0  0  0  0  0  0  0  0
  -90.2067   23.7546   -0.4134 O   0  0  0  0  0  0  0  0  0  0  0  0
  -84.8367   31.0638    1.1312 C   0  0  0  0  0  0  0  0  0  0  0  0
  -85.3168   29.8817    1.7226 C   0  0  0  0  0  0  0  0  0  0  0  0
  -86.3849   29.1853    1.2313 C   0  0  0  0  0  0  0  0  0  0  0  0
  -86.9912   29.7366    0.0728 C   0  0  0  0  0  0  0  0  0  0  0  0
  -86.5499   30.8842   -0.5262 C   0  0  0  0  0  0  0  0  0  0  0  0
  -85.4666   31.5506    0.0060 C   0  0  0  0  0  0  0  0  0  0  0  0
  -82.4564   31.6601    1.1075 C   0  0  0  0  0  0  0  0  0  0  0  0
  -83.7521   31.7258    1.6687 O   0  0  0  0  0  0  0  0  0  0  0  0
  -87.1524   31.4104   -1.6573 O   0  0  0  0  0  0  0  0  0  0  0  0
  -88.5659   31.4813   -1.6799 C   0  0  0  0  0  0  0  0  0  0  0  0
  -85.0427   32.7093   -0.6235 O   0  0  0  0  0  0  0  0  0  0  0  0
  -85.8113   33.8914   -0.4875 C   0  0  0  0  0  0  0  0  0  0  0  0
  -91.2934   25.2279   -1.8306 C   0  0  0  0  0  0  0  0  0  0  0  0
  -90.8444   25.9535   -2.9667 C   0  0  0  0  0  0  0  0  0  0  0  0
  -91.6987   26.2274   -3.9810 C   0  0  0  0  0  0  0  0  0  0  0  0
  -93.0233   25.8375   -3.9899 C   0  0  0  0  0  0  0  0  0  0  0  0
  -93.4355   25.1416   -2.8871 C   0  0  0  0  0  0  0  0  0  0  0  0
  -92.5966   24.8290   -1.8054 C   0  0  0  0  0  0  0  0  0  0  0  0
  -93.9108   26.1490   -5.0977 C   0  0  0  0  0  0  0  0  0  0  0  0
  -94.2270   27.4259   -5.4111 C   0  0  0  0  0  0  0  0  0  0  0  0
  -95.0728   27.7119   -6.4677 C   0  0  0  0  0  0  0  0  0  0  0  0
  -95.5837   26.6727   -7.1906 C   0  0  0  0  0  0  0  0  0  0  0  0
  -95.2764   25.3731   -6.8901 C   0  0  0  0  0  0  0  0  0  0  0  0
  -94.4322   25.1123   -5.8338 C   0  0  0  0  0  0  0  0  0  0  0  0
 17 18  1  0  0  0
 18 11  1  0  0  0
 11 12  2  0  0  0
 12 13  1  0  0  0
 13 14  2  0  0  0
 14 15  1  0  0  0
 15 19  1  0  0  0
 19 20  1  0  0  0
 15 16  2  0  0  0
 16 21  1  0  0  0
 21 22  1  0  0  0
 13  1  1  0  0  0
  1  2  2  0  0  0
  1  3  1  0  0  0
  3  4  1  0  0  0
  4  5  1  0  0  0
  5  6  1  0  0  0
  6  7  1  0  0  0
  7  8  1  0  0  0
  6  9  1  0  0  0
  9 10  2  0  0  0
  9 23  1  0  0  0
 23 24  2  0  0  0
 24 25  1  0  0  0
 25 26  2  0  0  0
 26 27  1  0  0  0
 27 28  2  0  0  0
 26 29  1  0  0  0
 29 30  2  0  0  0
 30 31  1  0  0  0
 31 32  2  0  0  0
 32 33  1  0  0  0
 33 34  2  0  0  0
 16 11  1  0  0  0
  8  3  1  0  0  0
 28 23  1  0  0  0
 34 29  1  0  0  0
M  END
> <minimizedAffinity>
-7.46587

> <CNNscore>
0.1809000522

> <CNNaffinity>
5.9333124161

> <CNN_VS>
1.0733364820

> <CNNaffinity_variance>
0.2686393559

$$$$
[H]c1c([H])c([H])c(-c2c([H])c([H])c(C(=O)N3C([H])([H])C([H])([H])N(C(=O)c4c([H])c(OC([H])([H])[H])c(OC([H])([H])[H])c(OC([H])([H])[H])c4[H])C([H])([H])C3([H])[H])c([H])c2[H])c([H])c1[H]


 34 37  0  0  0  0  0  0  0  0999 V2000
  -93.1729   29.0350   -3.4190 C   0  0  0  0  0  0  0  0  0  0  0  0
  -93.8025   28.0010   -3.9353 O   0  0  0  0  0  0  0  0  0  0  0  0
  -93.6919   30.2502   -3.7831 N   0  0  0  0  0  0  0  0  0  0  0  0
  -94.8359   30.2474   -4.7712 C   0  0  0  0  0  0  0  0  0  0  0  0
  -94.2617   30.8124   -6.0050 C   0  0  0  0  0  0  0  0  0  0  0  0
  -93.3835   31.9939   -5.8233 N   0  0  0  0  0  0  0  0  0  0  0  0
  -92.7242   32.2477   -4.5872 C   0  0  0  0  0  0  0  0  0  0  0  0
  -93.4032   31.5909   -3.3833 C   0  0  0  0  0  0  0  0  0  0  0  0
  -93.3218   32.8347   -6.9193 C   0  0  0  0  0  0  0  0  0  0  0  0
  -94.1186   32.4767   -7.9083 O   0  0  0  0  0  0  0  0  0  0  0  0
  -90.9318   28.0165   -0.5211 C   0  0  0  0  0  0  0  0  0  0  0  0
  -92.0877   28.3266   -1.2596 C   0  0  0  0  0  0  0  0  0  0  0  0
  -92.0489   28.7480   -2.5588 C   0  0  0  0  0  0  0  0  0  0  0  0
  -90.7525   28.8583   -3.1254 C   0  0  0  0  0  0  0  0  0  0  0  0
  -89.6089   28.5656   -2.4349 C   0  0  0  0  0  0  0  0  0  0  0  0
  -89.6997   28.1421   -1.1260 C   0  0  0  0  0  0  0  0  0  0  0  0
  -91.1069   28.4863    1.8812 C   0  0  0  0  0  0  0  0  0  0  0  0
  -91.0295   27.5930    0.7884 O   0  0  0  0  0  0  0  0  0  0  0  0
  -88.3499   28.6783   -3.0018 O   0  0  0  0  0  0  0  0  0  0  0  0
  -87.8699   29.9780   -3.2909 C   0  0  0  0  0  0  0  0  0  0  0  0
  -88.5239   27.8524   -0.4534 O   0  0  0  0  0  0  0  0  0  0  0  0
  -88.0463   26.5189   -0.4380 C   0  0  0  0  0  0  0  0  0  0  0  0
  -92.5561   34.0120   -7.1592 C   0  0  0  0  0  0  0  0  0  0  0  0
  -91.4508   33.9409   -8.0494 C   0  0  0  0  0  0  0  0  0  0  0  0
  -90.6639   35.0252   -8.2459 C   0  0  0  0  0  0  0  0  0  0  0  0
  -90.8666   36.2391   -7.6199 C   0  0  0  0  0  0  0  0  0  0  0  0
  -91.9344   36.2861   -6.7667 C   0  0  0  0  0  0  0  0  0  0  0  0
  -92.7842   35.1954   -6.5224 C   0  0  0  0  0  0  0  0  0  0  0  0
  -90.0010   37.3822   -7.8567 C   0  0  0  0  0  0  0  0  0  0  0  0
  -88.6542   37.2677   -7.8168 C   0  0  0  0  0  0  0  0  0  0  0  0
  -87.8389   38.3619   -8.0437 C   0  0  0  0  0  0  0  0  0  0  0  0
  -88.4258   39.5653   -8.3100 C   0  0  0  0  0  0  0  0  0  0  0  0
  -89.7870   39.7028   -8.3550 C   0  0  0  0  0  0  0  0  0  0  0  0
  -90.5787   38.5997   -8.1259 C   0  0  0  0  0  0  0  0  0  0  0  0
 17 18  1  0  0  0
 18 11  1  0  0  0
 11 12  2  0  0  0
 12 13  1  0  0  0
 13 14  2  0  0  0
 14 15  1  0  0  0
 15 19  1  0  0  0
 19 20  1  0  0  0
 15 16  2  0  0  0
 16 21  1  0  0  0
 21 22  1  0  0  0
 13  1  1  0  0  0
  1  2  2  0  0  0
  1  3  1  0  0  0
  3  4  1  0  0  0
  4  5  1  0  0  0
  5  6  1  0  0  0
  6  7  1  0  0  0
  7  8  1  0  0  0
  6  9  1  0  0  0
  9 10  2  0  0  0
  9 23  1  0  0  0
 23 24  2  0  0  0
 24 25  1  0  0  0
 25 26  2  0  0  0
 26 27  1  0  0  0
 27 28  2  0  0  0
 26 29  1  0  0  0
 29 30  2  0  0  0
 30 31  1  0  0  0
 31 32  2  0  0  0
 32 33  1  0  0  0
 33 34  2  0  0  0
 16 11  1  0  0  0
  8  3  1  0  0  0
 28 23  1  0  0  0
 34 29  1  0  0  0
M  END
> <minimizedAffinity>
-5.36289

> <CNNscore>
0.1643896848

> <CNNaffinity>
4.9731974602

> <CNN_VS>
0.8175423741

> <CNNaffinity_variance>
0.3393551707

$$$$
[H]c1c([H])c([H])c(-c2c([H])c([H])c(C(=O)N3C([H])([H])C([H])([H])N(C(=O)c4c([H])c(OC([H])([H])[H])c(OC([H])([H])[H])c(OC([H])([H])[H])c4[H])C([H])([H])C3([H])[H])c([H])c2[H])c([H])c1[H]


 34 37  0  0  0  0  0  0  0  0999 V2000
  -86.4895   27.9592    1.6129 C   0  0  0  0  0  0  0  0  0  0  0  0
  -85.6989   28.0385    2.6622 O   0  0  0  0  0  0  0  0  0  0  0  0
  -86.0544   28.6696    0.5245 N   0  0  0  0  0  0  0  0  0  0  0  0
  -84.8013   29.4980    0.6931 C   0  0  0  0  0  0  0  0  0  0  0  0
  -85.2705   30.8939    0.6469 C   0  0  0  0  0  0  0  0  0  0  0  0
  -86.2794   31.1991   -0.3967 N   0  0  0  0  0  0  0  0  0  0  0  0
  -87.1106   30.1830   -0.9477 C   0  0  0  0  0  0  0  0  0  0  0  0
  -86.5249   28.7750   -0.8202 C   0  0  0  0  0  0  0  0  0  0  0  0
  -86.2879   32.5167   -0.8162 C   0  0  0  0  0  0  0  0  0  0  0  0
  -85.3414   33.2544   -0.2676 O   0  0  0  0  0  0  0  0  0  0  0  0
  -89.7790   26.4336    2.7572 C   0  0  0  0  0  0  0  0  0  0  0  0
  -88.6211   27.2314    2.7395 C   0  0  0  0  0  0  0  0  0  0  0  0
  -87.6776   27.1505    1.7544 C   0  0  0  0  0  0  0  0  0  0  0  0
  -87.9392   26.1968    0.7367 C   0  0  0  0  0  0  0  0  0  0  0  0
  -89.0544   25.4051    0.7246 C   0  0  0  0  0  0  0  0  0  0  0  0
  -89.9790   25.5249    1.7403 C   0  0  0  0  0  0  0  0  0  0  0  0
  -90.3314   26.6807    5.1355 C   0  0  0  0  0  0  0  0  0  0  0  0
  -90.7005   26.5585    3.7764 O   0  0  0  0  0  0  0  0  0  0  0  0
  -89.2960   24.4781   -0.2761 O   0  0  0  0  0  0  0  0  0  0  0  0
  -89.6181   24.9667   -1.5649 C   0  0  0  0  0  0  0  0  0  0  0  0
  -91.0984   24.7102    1.6998 O   0  0  0  0  0  0  0  0  0  0  0  0
  -91.1123   23.5152    2.4604 C   0  0  0  0  0  0  0  0  0  0  0  0
  -87.1326   33.2059   -1.7335 C   0  0  0  0  0  0  0  0  0  0  0  0
  -86.5369   34.0142   -2.7389 C   0  0  0  0  0  0  0  0  0  0  0  0
  -87.3137   34.7342   -3.5827 C   0  0  0  0  0  0  0  0  0  0  0  0
  -88.6936   34.7387   -3.5336 C   0  0  0  0  0  0  0  0  0  0  0  0
  -89.2468   33.9554   -2.5585 C   0  0  0  0  0  0  0  0  0  0  0  0
  -88.4934   33.1884   -1.6554 C   0  0  0  0  0  0  0  0  0  0  0  0
  -89.4949   35.5239   -4.4574 C   0  0  0  0  0  0  0  0  0  0  0  0
  -90.2020   36.5987   -4.0408 C   0  0  0  0  0  0  0  0  0  0  0  0
  -90.9616   37.3396   -4.9281 C   0  0  0  0  0  0  0  0  0  0  0  0
  -90.9823   36.9608   -6.2395 C   0  0  0  0  0  0  0  0  0  0  0  0
  -90.2740   35.8763   -6.6819 C   0  0  0  0  0  0  0  0  0  0  0  0
  -89.5247   35.1536   -5.7805 C   0  0  0  0  0  0  0  0  0  0  0  0
 17 18  1  0  0  0
 18 11  1  0  0  0
 11 12  2  0  0  0
 12 13  1  0  0  0
 13 14  2  0  0  0
 14 15  1  0  0  0
 15 19  1  0  0  0
 19 20  1  0  0  0
 15 16  2  0  0  0
 16 21  1  0  0  0
 21 22  1  0  0  0
 13  1  1  0  0  0
  1  2  2  0  0  0
  1  3  1  0  0  0
  3  4  1  0  0  0
  4  5  1  0  0  0
  5  6  1  0  0  0
  6  7  1  0  0  0
  7  8  1  0  0  0
  6  9  1  0  0  0
  9 10  2  0  0  0
  9 23  1  0  0  0
 23 24  2  0  0  0
 24 25  1  0  0  0
 25 26  2  0  0  0
 26 27  1  0  0  0
 27 28  2  0  0  0
 26 29  1  0  0  0
 29 30  2  0  0  0
 30 31  1  0  0  0
 31 32  2  0  0  0
 32 33  1  0  0  0
 33 34  2  0  0  0
 16 11  1  0  0  0
  8  3  1  0  0  0
 28 23  1  0  0  0
 34 29  1  0  0  0
M  END
> <minimizedAffinity>
-8.81595

> <CNNscore>
0.1563707590

> <CNNaffinity>
5.9870033264

> <CNN_VS>
0.9361922741

> <CNNaffinity_variance>
0.2451756448

$$$$
[H]c1c([H])c([H])c(-c2c([H])c([H])c(C(=O)N3C([H])([H])C([H])([H])N(C(=O)c4c([H])c(OC([H])([H])[H])c(OC([H])([H])[H])c(OC([H])([H])[H])c4[H])C([H])([H])C3([H])[H])c([H])c2[H])c([H])c1[H]


 34 37  0  0  0  0  0  0  0  0999 V2000
  -87.0283   33.5523   -2.2056 C   0  0  0  0  0  0  0  0  0  0  0  0
  -87.0517   34.8257   -1.8737 O   0  0  0  0  0  0  0  0  0  0  0  0
  -87.6317   33.2709   -3.4037 N   0  0  0  0  0  0  0  0  0  0  0  0
  -88.3023   34.4158   -4.1279 C   0  0  0  0  0  0  0  0  0  0  0  0
  -89.7430   34.1220   -4.0326 C   0  0  0  0  0  0  0  0  0  0  0  0
  -90.1283   32.7093   -4.2694 N   0  0  0  0  0  0  0  0  0  0  0  0
  -89.2025   31.6442   -4.0818 C   0  0  0  0  0  0  0  0  0  0  0  0
  -87.7386   32.0785   -4.1831 C   0  0  0  0  0  0  0  0  0  0  0  0
  -91.4176   32.5392   -4.7394 C   0  0  0  0  0  0  0  0  0  0  0  0
  -92.0528   33.6728   -4.9684 O   0  0  0  0  0  0  0  0  0  0  0  0
  -84.6941   31.9398    0.3261 C   0  0  0  0  0  0  0  0  0  0  0  0
  -85.2138   32.8591   -0.6026 C   0  0  0  0  0  0  0  0  0  0  0  0
  -86.3822   32.6515   -1.2800 C   0  0  0  0  0  0  0  0  0  0  0  0
  -87.0480   31.4329   -0.9876 C   0  0  0  0  0  0  0  0  0  0  0  0
  -86.5696   30.5176   -0.0911 C   0  0  0  0  0  0  0  0  0  0  0  0
  -85.3866   30.7731    0.5692 C   0  0  0  0  0  0  0  0  0  0  0  0
  -82.2587   31.7214    0.5339 C   0  0  0  0  0  0  0  0  0  0  0  0
  -83.5098   32.2016    0.9837 O   0  0  0  0  0  0  0  0  0  0  0  0
  -87.2312   29.3318    0.1839 O   0  0  0  0  0  0  0  0  0  0  0  0
  -87.3446   28.3818   -0.8592 C   0  0  0  0  0  0  0  0  0  0  0  0
  -84.9285   29.8275    1.4717 O   0  0  0  0  0  0  0  0  0  0  0  0
  -85.2374   29.9762    2.8462 C   0  0  0  0  0  0  0  0  0  0  0  0
  -92.1682   31.3611   -5.0199 C   0  0  0  0  0  0  0  0  0  0  0  0
  -91.8098   30.1494   -4.3701 C   0  0  0  0  0  0  0  0  0  0  0  0
  -92.4608   28.9996   -4.6662 C   0  0  0  0  0  0  0  0  0  0  0  0
  -93.4853   28.9180   -5.5884 C   0  0  0  0  0  0  0  0  0  0  0  0
  -93.8139   30.0947   -6.2031 C   0  0  0  0  0  0  0  0  0  0  0  0
  -93.1747   31.3164   -5.9381 C   0  0  0  0  0  0  0  0  0  0  0  0
  -94.1620   27.6653   -5.8795 C   0  0  0  0  0  0  0  0  0  0  0  0
  -94.0358   26.5902   -5.0691 C   0  0  0  0  0  0  0  0  0  0  0  0
  -94.6842   25.4022   -5.3550 C   0  0  0  0  0  0  0  0  0  0  0  0
  -95.4578   25.3382   -6.4780 C   0  0  0  0  0  0  0  0  0  0  0  0
  -95.5990   26.4147   -7.3116 C   0  0  0  0  0  0  0  0  0  0  0  0
  -94.9440   27.5871   -7.0068 C   0  0  0  0  0  0  0  0  0  0  0  0
 17 18  1  0  0  0
 18 11  1  0  0  0
 11 12  2  0  0  0
 12 13  1  0  0  0
 13 14  2  0  0  0
 14 15  1  0  0  0
 15 19  1  0  0  0
 19 20  1  0  0  0
 15 16  2  0  0  0
 16 21  1  0  0  0
 21 22  1  0  0  0
 13  1  1  0  0  0
  1  2  2  0  0  0
  1  3  1  0  0  0
  3  4  1  0  0  0
  4  5  1  0  0  0
  5  6  1  0  0  0
  6  7  1  0  0  0
  7  8  1  0  0  0
  6  9  1  0  0  0
  9 10  2  0  0  0
  9 23  1  0  0  0
 23 24  2  0  0  0
 24 25  1  0  0  0
 25 26  2  0  0  0
 26 27  1  0  0  0
 27 28  2  0  0  0
 26 29  1  0  0  0
 29 30  2  0  0  0
 30 31  1  0  0  0
 31 32  2  0  0  0
 32 33  1  0  0  0
 33 34  2  0  0  0
 16 11  1  0  0  0
  8  3  1  0  0  0
 28 23  1  0  0  0
 34 29  1  0  0  0
M  END
> <minimizedAffinity>
-7.24691

> <CNNscore>
0.1495339423

> <CNNaffinity>
5.4856753349

> <CNN_VS>
0.8202946782

> <CNNaffinity_variance>
0.2381926030

$$$$
[H]c1c([H])c([H])c(-c2c([H])c([H])c(C(=O)N3C([H])([H])C([H])([H])N(C(=O)c4c([H])c(OC([H])([H])[H])c(OC([H])([H])[H])c(OC([H])([H])[H])c4[H])C([H])([H])C3([H])[H])c([H])c2[H])c([H])c1[H]


 34 37  0  0  0  0  0  0  0  0999 V2000
  -87.6982   30.6530   -1.3288 C   0  0  0  0  0  0  0  0  0  0  0  0
  -88.0834   31.9100   -1.3896 O   0  0  0  0  0  0  0  0  0  0  0  0
  -88.2884   29.8371   -2.2588 N   0  0  0  0  0  0  0  0  0  0  0  0
  -89.3396   30.4529   -3.1536 C   0  0  0  0  0  0  0  0  0  0  0  0
  -90.6057   29.8407   -2.7141 C   0  0  0  0  0  0  0  0  0  0  0  0
  -90.5566   28.3822   -2.4484 N   0  0  0  0  0  0  0  0  0  0  0  0
  -89.3352   27.7253   -2.1269 C   0  0  0  0  0  0  0  0  0  0  0  0
  -88.0909   28.4686   -2.6178 C   0  0  0  0  0  0  0  0  0  0  0  0
  -91.7669   27.7316   -2.6031 C   0  0  0  0  0  0  0  0  0  0  0  0
  -92.7378   28.5129   -3.0366 O   0  0  0  0  0  0  0  0  0  0  0  0
  -85.6520   28.9221    1.3683 C   0  0  0  0  0  0  0  0  0  0  0  0
  -86.6765   29.1802    0.4402 C   0  0  0  0  0  0  0  0  0  0  0  0
  -86.7277   30.3193   -0.3128 C   0  0  0  0  0  0  0  0  0  0  0  0
  -85.6706   31.2410   -0.0965 C   0  0  0  0  0  0  0  0  0  0  0  0
  -84.6602   31.0211    0.7986 C   0  0  0  0  0  0  0  0  0  0  0  0
  -84.6511   29.8551    1.5342 C   0  0  0  0  0  0  0  0  0  0  0  0
  -86.6170   26.7373    1.9322 C   0  0  0  0  0  0  0  0  0  0  0  0
  -85.6487   27.7532    2.1013 O   0  0  0  0  0  0  0  0  0  0  0  0
  -83.6347   31.9308    0.9988 O   0  0  0  0  0  0  0  0  0  0  0  0
  -83.2108   32.7024   -0.1094 C   0  0  0  0  0  0  0  0  0  0  0  0
  -83.6142   29.6607    2.4317 O   0  0  0  0  0  0  0  0  0  0  0  0
  -82.5331   28.8205    2.0685 C   0  0  0  0  0  0  0  0  0  0  0  0
  -92.1400   26.3746   -2.3809 C   0  0  0  0  0  0  0  0  0  0  0  0
  -92.5193   25.9739   -1.0714 C   0  0  0  0  0  0  0  0  0  0  0  0
  -92.8142   24.6776   -0.8146 C   0  0  0  0  0  0  0  0  0  0  0  0
  -92.7709   23.6811   -1.7695 C   0  0  0  0  0  0  0  0  0  0  0  0
  -92.4027   24.0873   -3.0224 C   0  0  0  0  0  0  0  0  0  0  0  0
  -92.0849   25.4157   -3.3481 C   0  0  0  0  0  0  0  0  0  0  0  0
  -93.0956   22.2995   -1.4568 C   0  0  0  0  0  0  0  0  0  0  0  0
  -92.6086   21.6933   -0.3504 C   0  0  0  0  0  0  0  0  0  0  0  0
  -92.9237   20.3777   -0.0616 C   0  0  0  0  0  0  0  0  0  0  0  0
  -93.7404   19.7014   -0.9213 C   0  0  0  0  0  0  0  0  0  0  0  0
  -94.2439   20.2963   -2.0466 C   0  0  0  0  0  0  0  0  0  0  0  0
  -93.9168   21.6070   -2.3138 C   0  0  0  0  0  0  0  0  0  0  0  0
 17 18  1  0  0  0
 18 11  1  0  0  0
 11 12  2  0  0  0
 12 13  1  0  0  0
 13 14  2  0  0  0
 14 15  1  0  0  0
 15 19  1  0  0  0
 19 20  1  0  0  0
 15 16  2  0  0  0
 16 21  1  0  0  0
 21 22  1  0  0  0
 13  1  1  0  0  0
  1  2  2  0  0  0
  1  3  1  0  0  0
  3  4  1  0  0  0
  4  5  1  0  0  0
  5  6  1  0  0  0
  6  7  1  0  0  0
  7  8  1  0  0  0
  6  9  1  0  0  0
  9 10  2  0  0  0
  9 23  1  0  0  0
 23 24  2  0  0  0
 24 25  1  0  0  0
 25 26  2  0  0  0
 26 27  1  0  0  0
 27 28  2  0  0  0
 26 29  1  0  0  0
 29 30  2  0  0  0
 30 31  1  0  0  0
 31 32  2  0  0  0
 32 33  1  0  0  0
 33 34  2  0  0  0
 16 11  1  0  0  0
  8  3  1  0  0  0
 28 23  1  0  0  0
 34 29  1  0  0  0
M  END
> <minimizedAffinity>
-7.51587

> <CNNscore>
0.1468074918

> <CNNaffinity>
5.6241536140

> <CNN_VS>
0.8256678581

> <CNNaffinity_variance>
0.3426562250

$$$$
[H]c1c([H])c([H])c(-c2c([H])c([H])c(C(=O)N3C([H])([H])C([H])([H])N(C(=O)c4c([H])c(OC([H])([H])[H])c(OC([H])([H])[H])c(OC([H])([H])[H])c4[H])C([H])([H])C3([H])[H])c([H])c2[H])c([H])c1[H]


 34 37  0  0  0  0  0  0  0  0999 V2000
  -86.6152   28.0082    1.5998 C   0  0  0  0  0  0  0  0  0  0  0  0
  -85.9044   28.1102    2.7027 O   0  0  0  0  0  0  0  0  0  0  0  0
  -86.1294   28.7386    0.5466 N   0  0  0  0  0  0  0  0  0  0  0  0
  -84.9215   29.6097    0.8057 C   0  0  0  0  0  0  0  0  0  0  0  0
  -85.4352   30.9885    0.7294 C   0  0  0  0  0  0  0  0  0  0  0  0
  -86.3777   31.2631   -0.3825 N   0  0  0  0  0  0  0  0  0  0  0  0
  -87.1313   30.2211   -0.9934 C   0  0  0  0  0  0  0  0  0  0  0  0
  -86.5068   28.8339   -0.8279 C   0  0  0  0  0  0  0  0  0  0  0  0
  -86.4029   32.5816   -0.7985 C   0  0  0  0  0  0  0  0  0  0  0  0
  -85.5244   33.3494   -0.1823 O   0  0  0  0  0  0  0  0  0  0  0  0
  -89.2482   25.3402    0.9621 C   0  0  0  0  0  0  0  0  0  0  0  0
  -88.1148   26.1544    0.7890 C   0  0  0  0  0  0  0  0  0  0  0  0
  -87.7811   27.1577    1.6546 C   0  0  0  0  0  0  0  0  0  0  0  0
  -88.6620   27.3330    2.7532 C   0  0  0  0  0  0  0  0  0  0  0  0
  -89.7726   26.5595    2.9502 C   0  0  0  0  0  0  0  0  0  0  0  0
  -90.0664   25.5577    2.0497 C   0  0  0  0  0  0  0  0  0  0  0  0
  -89.7653   24.5865   -1.3154 C   0  0  0  0  0  0  0  0  0  0  0  0
  -89.5366   24.3392    0.0574 O   0  0  0  0  0  0  0  0  0  0  0  0
  -90.6234   26.7428    4.0280 O   0  0  0  0  0  0  0  0  0  0  0  0
  -90.0663   26.6773    5.3275 C   0  0  0  0  0  0  0  0  0  0  0  0
  -91.1973   24.7907    2.2768 O   0  0  0  0  0  0  0  0  0  0  0  0
  -91.0884   23.6102    3.0522 C   0  0  0  0  0  0  0  0  0  0  0  0
  -87.2043   33.2451   -1.7720 C   0  0  0  0  0  0  0  0  0  0  0  0
  -86.5604   33.9519   -2.8231 C   0  0  0  0  0  0  0  0  0  0  0  0
  -87.2930   34.6479   -3.7244 C   0  0  0  0  0  0  0  0  0  0  0  0
  -88.6715   34.7223   -3.6934 C   0  0  0  0  0  0  0  0  0  0  0  0
  -89.2714   34.0362   -2.6737 C   0  0  0  0  0  0  0  0  0  0  0  0
  -88.5649   33.2987   -1.7102 C   0  0  0  0  0  0  0  0  0  0  0  0
  -89.4247   35.4789   -4.6794 C   0  0  0  0  0  0  0  0  0  0  0  0
  -89.0510   35.5132   -5.9786 C   0  0  0  0  0  0  0  0  0  0  0  0
  -89.7749   36.2364   -6.9094 C   0  0  0  0  0  0  0  0  0  0  0  0
  -90.8795   36.9178   -6.4865 C   0  0  0  0  0  0  0  0  0  0  0  0
  -91.2750   36.8964   -5.1762 C   0  0  0  0  0  0  0  0  0  0  0  0
  -90.5390   36.1696   -4.2672 C   0  0  0  0  0  0  0  0  0  0  0  0
 17 18  1  0  0  0
 18 11  1  0  0  0
 11 12  2  0  0  0
 12 13  1  0  0  0
 13 14  2  0  0  0
 14 15  1  0  0  0
 15 19  1  0  0  0
 19 20  1  0  0  0
 15 16  2  0  0  0
 16 21  1  0  0  0
 21 22  1  0  0  0
 13  1  1  0  0  0
  1  2  2  0  0  0
  1  3  1  0  0  0
  3  4  1  0  0  0
  4  5  1  0  0  0
  5  6  1  0  0  0
  6  7  1  0  0  0
  7  8  1  0  0  0
  6  9  1  0  0  0
  9 10  2  0  0  0
  9 23  1  0  0  0
 23 24  2  0  0  0
 24 25  1  0  0  0
 25 26  2  0  0  0
 26 27  1  0  0  0
 27 28  2  0  0  0
 26 29  1  0  0  0
 29 30  2  0  0  0
 30 31  1  0  0  0
 31 32  2  0  0  0
 32 33  1  0  0  0
 33 34  2  0  0  0
 16 11  1  0  0  0
  8  3  1  0  0  0
 28 23  1  0  0  0
 34 29  1  0  0  0
M  END
> <minimizedAffinity>
-8.76005

> <CNNscore>
0.1436743289

> <CNNaffinity>
5.8941488266

> <CNN_VS>
0.8468378782

> <CNNaffinity_variance>
0.2232698202

$$$$
[H]c1c([H])c([H])c(-c2c([H])c([H])c(C(=O)N3C([H])([H])C([H])([H])N(C(=O)c4c([H])c(OC([H])([H])[H])c(OC([H])([H])[H])c(OC([H])([H])[H])c4[H])C([H])([H])C3([H])[H])c([H])c2[H])c([H])c1[H]


 34 37  0  0  0  0  0  0  0  0999 V2000
  -87.0736   29.1261    0.7955 C   0  0  0  0  0  0  0  0  0  0  0  0
  -85.9903   28.8168    1.4759 O   0  0  0  0  0  0  0  0  0  0  0  0
  -88.1663   28.3544    1.0942 N   0  0  0  0  0  0  0  0  0  0  0  0
  -87.9684   27.2237    2.0777 C   0  0  0  0  0  0  0  0  0  0  0  0
  -88.0930   26.0002    1.2662 C   0  0  0  0  0  0  0  0  0  0  0  0
  -89.1967   25.9953    0.2753 N   0  0  0  0  0  0  0  0  0  0  0  0
  -89.7478   27.2067   -0.2304 C   0  0  0  0  0  0  0  0  0  0  0  0
  -89.5359   28.4094    0.6917 C   0  0  0  0  0  0  0  0  0  0  0  0
  -89.6678   24.7366   -0.0499 C   0  0  0  0  0  0  0  0  0  0  0  0
  -89.1023   23.7639    0.6393 O   0  0  0  0  0  0  0  0  0  0  0  0
  -87.7315   31.7791   -1.8478 C   0  0  0  0  0  0  0  0  0  0  0  0
  -87.9223   30.6707   -1.0036 C   0  0  0  0  0  0  0  0  0  0  0  0
  -86.9596   30.2130   -0.1486 C   0  0  0  0  0  0  0  0  0  0  0  0
  -85.7366   30.9325   -0.1663 C   0  0  0  0  0  0  0  0  0  0  0  0
  -85.5183   32.0135   -0.9752 C   0  0  0  0  0  0  0  0  0  0  0  0
  -86.5216   32.4388   -1.8198 C   0  0  0  0  0  0  0  0  0  0  0  0
  -90.0051   31.5727   -2.7478 C   0  0  0  0  0  0  0  0  0  0  0  0
  -88.7395   32.1998   -2.6906 O   0  0  0  0  0  0  0  0  0  0  0  0
  -84.3185   32.7060   -0.9813 O   0  0  0  0  0  0  0  0  0  0  0  0
  -84.0827   33.6274    0.0669 C   0  0  0  0  0  0  0  0  0  0  0  0
  -86.2707   33.5368   -2.6261 O   0  0  0  0  0  0  0  0  0  0  0  0
  -86.9495   34.7533   -2.3693 C   0  0  0  0  0  0  0  0  0  0  0  0
  -90.6525   24.3151   -0.9894 C   0  0  0  0  0  0  0  0  0  0  0  0
  -90.6887   24.9336   -2.2681 C   0  0  0  0  0  0  0  0  0  0  0  0
  -91.6542   24.6023   -3.1578 C   0  0  0  0  0  0  0  0  0  0  0  0
  -92.6420   23.6722   -2.9013 C   0  0  0  0  0  0  0  0  0  0  0  0
  -92.5900   23.0896   -1.6651 C   0  0  0  0  0  0  0  0  0  0  0  0
  -91.6145   23.3930   -0.7019 C   0  0  0  0  0  0  0  0  0  0  0  0
  -93.6620   23.3411   -3.8821 C   0  0  0  0  0  0  0  0  0  0  0  0
  -94.3056   22.1520   -3.8570 C   0  0  0  0  0  0  0  0  0  0  0  0
  -95.2751   21.8465   -4.7951 C   0  0  0  0  0  0  0  0  0  0  0  0
  -95.5698   22.7754   -5.7511 C   0  0  0  0  0  0  0  0  0  0  0  0
  -94.9303   23.9849   -5.7943 C   0  0  0  0  0  0  0  0  0  0  0  0
  -93.9685   24.2671   -4.8500 C   0  0  0  0  0  0  0  0  0  0  0  0
 17 18  1  0  0  0
 18 11  1  0  0  0
 11 12  2  0  0  0
 12 13  1  0  0  0
 13 14  2  0  0  0
 14 15  1  0  0  0
 15 19  1  0  0  0
 19 20  1  0  0  0
 15 16  2  0  0  0
 16 21  1  0  0  0
 21 22  1  0  0  0
 13  1  1  0  0  0
  1  2  2  0  0  0
  1  3  1  0  0  0
  3  4  1  0  0  0
  4  5  1  0  0  0
  5  6  1  0  0  0
  6  7  1  0  0  0
  7  8  1  0  0  0
  6  9  1  0  0  0
  9 10  2  0  0  0
  9 23  1  0  0  0
 23 24  2  0  0  0
 24 25  1  0  0  0
 25 26  2  0  0  0
 26 27  1  0  0  0
 27 28  2  0  0  0
 26 29  1  0  0  0
 29 30  2  0  0  0
 30 31  1  0  0  0
 31 32  2  0  0  0
 32 33  1  0  0  0
 33 34  2  0  0  0
 16 11  1  0  0  0
  8  3  1  0  0  0
 28 23  1  0  0  0
 34 29  1  0  0  0
M  END
> <minimizedAffinity>
-5.24511

> <CNNscore>
0.1307118088

> <CNNaffinity>
5.6591482162

> <CNN_VS>
0.7397174835

> <CNNaffinity_variance>
0.6428770423

$$$$
[H]c1c([H])c([H])c(C(=O)N2C([H])([H])C([H])([H])N(C(=O)c3c([H])c([H])c(-c4c([H])c([H])c(-c5c([H])c([H])c([H])c([H])c5[H])c([H])c4[H])c([H])c3[H])[C@]([H])(C([H])([H])[H])C2([H])[H])c([H])c1[H]


 35 39  0  0  0  0  0  0  0  0999 V2000
  -87.0927   33.2163   -1.8304 C   0  0  0  0  0  0  0  0  0  0  0  0
  -86.0243   33.5811   -1.0703 C   0  0  0  0  0  0  0  0  0  0  0  0
  -85.2890   32.5898   -0.3878 C   0  0  0  0  0  0  0  0  0  0  0  0
  -85.6018   31.2568   -0.4528 C   0  0  0  0  0  0  0  0  0  0  0  0
  -86.6703   30.9163   -1.2161 C   0  0  0  0  0  0  0  0  0  0  0  0
  -87.4159   31.8387   -1.8974 C   0  0  0  0  0  0  0  0  0  0  0  0
  -90.5419   36.0402   -2.8862 C   0  0  0  0  0  0  0  0  0  0  0  0
  -89.5934   35.3468   -3.8129 C   0  0  0  0  0  0  0  0  0  0  0  0
  -90.1766   34.9914   -5.1504 C   0  0  0  0  0  0  0  0  0  0  0  0
  -91.2328   34.0645   -5.0352 N   0  0  0  0  0  0  0  0  0  0  0  0
  -91.4211   33.3957   -3.7452 C   0  0  0  0  0  0  0  0  0  0  0  0
  -90.0884   33.0053   -3.1140 C   0  0  0  0  0  0  0  0  0  0  0  0
  -89.1640   34.0873   -3.1228 N   0  0  0  0  0  0  0  0  0  0  0  0
  -87.8917   34.1573   -2.5633 C   0  0  0  0  0  0  0  0  0  0  0  0
  -87.2682   35.3207   -2.7252 O   0  0  0  0  0  0  0  0  0  0  0  0
  -92.1287   33.6893   -6.0530 C   0  0  0  0  0  0  0  0  0  0  0  0
  -93.0712   32.8292   -5.6913 O   0  0  0  0  0  0  0  0  0  0  0  0
  -92.2177   34.0715   -7.4417 C   0  0  0  0  0  0  0  0  0  0  0  0
  -93.2923   34.8604   -7.8629 C   0  0  0  0  0  0  0  0  0  0  0  0
  -93.4893   35.2424   -9.1484 C   0  0  0  0  0  0  0  0  0  0  0  0
  -92.6165   34.8624  -10.1325 C   0  0  0  0  0  0  0  0  0  0  0  0
  -91.5560   34.0912   -9.7570 C   0  0  0  0  0  0  0  0  0  0  0  0
  -91.3381   33.6862   -8.4281 C   0  0  0  0  0  0  0  0  0  0  0  0
  -84.7745   30.2935    0.2961 C   0  0  0  0  0  0  0  0  0  0  0  0
  -85.1142   28.9761    0.3530 C   0  0  0  0  0  0  0  0  0  0  0  0
  -84.3593   28.0391    1.0467 C   0  0  0  0  0  0  0  0  0  0  0  0
  -83.2289   28.4428    1.7018 C   0  0  0  0  0  0  0  0  0  0  0  0
  -82.8972   29.7795    1.6356 C   0  0  0  0  0  0  0  0  0  0  0  0
  -83.6365   30.7105    0.9534 C   0  0  0  0  0  0  0  0  0  0  0  0
  -82.3497   27.5784    2.4564 C   0  0  0  0  0  0  0  0  0  0  0  0
  -81.2249   27.0005    1.9059 C   0  0  0  0  0  0  0  0  0  0  0  0
  -80.4088   26.1683    2.6787 C   0  0  0  0  0  0  0  0  0  0  0  0
  -80.7114   25.9125    3.9939 C   0  0  0  0  0  0  0  0  0  0  0  0
  -81.8290   26.4846    4.5467 C   0  0  0  0  0  0  0  0  0  0  0  0
  -82.6284   27.3058    3.7728 C   0  0  0  0  0  0  0  0  0  0  0  0
  7  8  1  0  0  0
  8  9  1  0  0  0
  9 10  1  0  0  0
 10 11  1  0  0  0
 11 12  1  0  0  0
 12 13  1  0  0  0
 13 14  1  0  0  0
 14 15  2  0  0  0
 14  1  1  0  0  0
  1  2  2  0  0  0
  2  3  1  0  0  0
  3  4  2  0  0  0
  4  5  1  0  0  0
  5  6  2  0  0  0
  4 24  1  0  0  0
 24 25  2  0  0  0
 25 26  1  0  0  0
 26 27  2  0  0  0
 27 28  1  0  0  0
 28 29  2  0  0  0
 27 30  1  0  0  0
 30 31  2  0  0  0
 31 32  1  0  0  0
 32 33  2  0  0  0
 33 34  1  0  0  0
 34 35  2  0  0  0
 10 16  1  0  0  0
 16 17  2  0  0  0
 16 18  1  0  0  0
 18 19  2  0  0  0
 19 20  1  0  0  0
 20 21  2  0  0  0
 21 22  1  0  0  0
 22 23  2  0  0  0
 13  8  1  0  0  0
  6  1  1  0  0  0
 29 24  1  0  0  0
 35 30  1  0  0  0
 23 18  1  0  0  0
M  END
> <minimizedAffinity>
8.14727

> <CNNscore>
0.4495719969

> <CNNaffinity>
6.1109476089

> <CNN_VS>
2.7473108768

> <CNNaffinity_variance>
0.9410064816

$$$$
[H]c1c([H])c([H])c(C(=O)N2C([H])([H])C([H])([H])N(C(=O)c3c([H])c([H])c(-c4c([H])c([H])c(-c5c([H])c([H])c([H])c([H])c5[H])c([H])c4[H])c([H])c3[H])[C@]([H])(C([H])([H])[H])C2([H])[H])c([H])c1[H]


 35 39  0  0  0  0  0  0  0  0999 V2000
  -90.4539   29.7585   -2.9550 C   0  0  0  0  0  0  0  0  0  0  0  0
  -89.8049   30.5359   -3.8643 C   0  0  0  0  0  0  0  0  0  0  0  0
  -89.2263   31.7529   -3.4476 C   0  0  0  0  0  0  0  0  0  0  0  0
  -89.2861   32.1984   -2.1527 C   0  0  0  0  0  0  0  0  0  0  0  0
  -89.9379   31.4076   -1.2637 C   0  0  0  0  0  0  0  0  0  0  0  0
  -90.5159   30.2192   -1.6168 C   0  0  0  0  0  0  0  0  0  0  0  0
  -93.2452   26.7196   -4.9450 C   0  0  0  0  0  0  0  0  0  0  0  0
  -92.5295   26.6040   -3.6360 C   0  0  0  0  0  0  0  0  0  0  0  0
  -93.2534   25.7936   -2.5993 C   0  0  0  0  0  0  0  0  0  0  0  0
  -94.4805   26.3830   -2.2323 N   0  0  0  0  0  0  0  0  0  0  0  0
  -94.7377   27.7589   -2.6655 C   0  0  0  0  0  0  0  0  0  0  0  0
  -93.4908   28.6292   -2.5447 C   0  0  0  0  0  0  0  0  0  0  0  0
  -92.3513   28.0002   -3.1203 N   0  0  0  0  0  0  0  0  0  0  0  0
  -91.0651   28.5034   -3.2903 C   0  0  0  0  0  0  0  0  0  0  0  0
  -90.2092   27.6748   -3.8812 O   0  0  0  0  0  0  0  0  0  0  0  0
  -95.4947   25.7872   -1.4604 C   0  0  0  0  0  0  0  0  0  0  0  0
  -96.5822   26.5257   -1.2841 O   0  0  0  0  0  0  0  0  0  0  0  0
  -95.5768   24.5001   -0.8130 C   0  0  0  0  0  0  0  0  0  0  0  0
  -96.4790   24.3244    0.2404 C   0  0  0  0  0  0  0  0  0  0  0  0
  -96.6078   23.1698    0.9386 C   0  0  0  0  0  0  0  0  0  0  0  0
  -95.8351   22.0804    0.6373 C   0  0  0  0  0  0  0  0  0  0  0  0
  -94.9431   22.2166   -0.3855 C   0  0  0  0  0  0  0  0  0  0  0  0
  -94.7970   23.4076   -1.1188 C   0  0  0  0  0  0  0  0  0  0  0  0
  -88.6515   33.4845   -1.8116 C   0  0  0  0  0  0  0  0  0  0  0  0
  -87.9574   34.1910   -2.7460 C   0  0  0  0  0  0  0  0  0  0  0  0
  -87.3475   35.4065   -2.4628 C   0  0  0  0  0  0  0  0  0  0  0  0
  -87.4409   35.9239   -1.2005 C   0  0  0  0  0  0  0  0  0  0  0  0
  -88.1467   35.1978   -0.2648 C   0  0  0  0  0  0  0  0  0  0  0  0
  -88.7513   33.9979   -0.5359 C   0  0  0  0  0  0  0  0  0  0  0  0
  -86.8613   37.1757   -0.7684 C   0  0  0  0  0  0  0  0  0  0  0  0
  -85.7875   37.2378    0.0948 C   0  0  0  0  0  0  0  0  0  0  0  0
  -85.2662   38.4754    0.4851 C   0  0  0  0  0  0  0  0  0  0  0  0
  -85.8119   39.6463    0.0180 C   0  0  0  0  0  0  0  0  0  0  0  0
  -86.8802   39.5906   -0.8408 C   0  0  0  0  0  0  0  0  0  0  0  0
  -87.3871   38.3610   -1.2197 C   0  0  0  0  0  0  0  0  0  0  0  0
  7  8  1  0  0  0
  8  9  1  0  0  0
  9 10  1  0  0  0
 10 11  1  0  0  0
 11 12  1  0  0  0
 12 13  1  0  0  0
 13 14  1  0  0  0
 14 15  2  0  0  0
 14  1  1  0  0  0
  1  2  2  0  0  0
  2  3  1  0  0  0
  3  4  2  0  0  0
  4  5  1  0  0  0
  5  6  2  0  0  0
  4 24  1  0  0  0
 24 25  2  0  0  0
 25 26  1  0  0  0
 26 27  2  0  0  0
 27 28  1  0  0  0
 28 29  2  0  0  0
 27 30  1  0  0  0
 30 31  2  0  0  0
 31 32  1  0  0  0
 32 33  2  0  0  0
 33 34  1  0  0  0
 34 35  2  0  0  0
 10 16  1  0  0  0
 16 17  2  0  0  0
 16 18  1  0  0  0
 18 19  2  0  0  0
 19 20  1  0  0  0
 20 21  2  0  0  0
 21 22  1  0  0  0
 22 23  2  0  0  0
 13  8  1  0  0  0
  6  1  1  0  0  0
 29 24  1  0  0  0
 35 30  1  0  0  0
 23 18  1  0  0  0
M  END
> <minimizedAffinity>
32.54831

> <CNNscore>
0.4294846952

> <CNNaffinity>
5.2289772034

> <CNN_VS>
2.2457656860

> <CNNaffinity_variance>
0.5455483198

$$$$
[H]c1c([H])c([H])c(C(=O)N2C([H])([H])C([H])([H])N(C(=O)c3c([H])c([H])c(-c4c([H])c([H])c(-c5c([H])c([H])c([H])c([H])c5[H])c([H])c4[H])c([H])c3[H])[C@]([H])(C([H])([H])[H])C2([H])[H])c([H])c1[H]


 35 39  0  0  0  0  0  0  0  0999 V2000
  -93.2673   28.6749   -3.1700 C   0  0  0  0  0  0  0  0  0  0  0  0
  -91.9161   28.7894   -3.0540 C   0  0  0  0  0  0  0  0  0  0  0  0
  -91.2702   29.9288   -3.5773 C   0  0  0  0  0  0  0  0  0  0  0  0
  -91.9458   30.9420   -4.2066 C   0  0  0  0  0  0  0  0  0  0  0  0
  -93.2916   30.8065   -4.3108 C   0  0  0  0  0  0  0  0  0  0  0  0
  -93.9654   29.7218   -3.8205 C   0  0  0  0  0  0  0  0  0  0  0  0
  -94.3523   25.0301   -0.6156 C   0  0  0  0  0  0  0  0  0  0  0  0
  -94.8394   25.3809   -1.9864 C   0  0  0  0  0  0  0  0  0  0  0  0
  -95.1517   24.1987   -2.8583 C   0  0  0  0  0  0  0  0  0  0  0  0
  -94.0050   23.4228   -3.1246 N   0  0  0  0  0  0  0  0  0  0  0  0
  -92.6982   23.9890   -2.7800 C   0  0  0  0  0  0  0  0  0  0  0  0
  -92.6209   25.4739   -3.1204 C   0  0  0  0  0  0  0  0  0  0  0  0
  -93.7533   26.1857   -2.6341 N   0  0  0  0  0  0  0  0  0  0  0  0
  -94.0059   27.5540   -2.6609 C   0  0  0  0  0  0  0  0  0  0  0  0
  -95.1574   27.9254   -2.1091 O   0  0  0  0  0  0  0  0  0  0  0  0
  -93.9794   22.1474   -3.7179 C   0  0  0  0  0  0  0  0  0  0  0  0
  -92.7786   21.5945   -3.8245 O   0  0  0  0  0  0  0  0  0  0  0  0
  -95.0330   21.3116   -4.2413 C   0  0  0  0  0  0  0  0  0  0  0  0
  -95.8933   20.6631   -3.3503 C   0  0  0  0  0  0  0  0  0  0  0  0
  -96.8892   19.8283   -3.7360 C   0  0  0  0  0  0  0  0  0  0  0  0
  -97.1104   19.5693   -5.0620 C   0  0  0  0  0  0  0  0  0  0  0  0
  -96.2888   20.1853   -5.9598 C   0  0  0  0  0  0  0  0  0  0  0  0
  -95.2512   21.0532   -5.5758 C   0  0  0  0  0  0  0  0  0  0  0  0
  -91.1840   32.0941   -4.7219 C   0  0  0  0  0  0  0  0  0  0  0  0
  -89.9793   32.4321   -4.1848 C   0  0  0  0  0  0  0  0  0  0  0  0
  -89.2321   33.5091   -4.6444 C   0  0  0  0  0  0  0  0  0  0  0  0
  -89.7143   34.2665   -5.6757 C   0  0  0  0  0  0  0  0  0  0  0  0
  -90.9352   33.9126   -6.2096 C   0  0  0  0  0  0  0  0  0  0  0  0
  -91.6788   32.8517   -5.7621 C   0  0  0  0  0  0  0  0  0  0  0  0
  -89.0436   35.4086   -6.2550 C   0  0  0  0  0  0  0  0  0  0  0  0
  -87.7774   35.7987   -5.8723 C   0  0  0  0  0  0  0  0  0  0  0  0
  -87.1740   36.9141   -6.4619 C   0  0  0  0  0  0  0  0  0  0  0  0
  -87.8286   37.6380   -7.4284 C   0  0  0  0  0  0  0  0  0  0  0  0
  -89.0884   37.2545   -7.8130 C   0  0  0  0  0  0  0  0  0  0  0  0
  -89.6748   36.1499   -7.2230 C   0  0  0  0  0  0  0  0  0  0  0  0
  7  8  1  0  0  0
  8  9  1  0  0  0
  9 10  1  0  0  0
 10 11  1  0  0  0
 11 12  1  0  0  0
 12 13  1  0  0  0
 13 14  1  0  0  0
 14 15  2  0  0  0
 14  1  1  0  0  0
  1  2  2  0  0  0
  2  3  1  0  0  0
  3  4  2  0  0  0
  4  5  1  0  0  0
  5  6  2  0  0  0
  4 24  1  0  0  0
 24 25  2  0  0  0
 25 26  1  0  0  0
 26 27  2  0  0  0
 27 28  1  0  0  0
 28 29  2  0  0  0
 27 30  1  0  0  0
 30 31  2  0  0  0
 31 32  1  0  0  0
 32 33  2  0  0  0
 33 34  1  0  0  0
 34 35  2  0  0  0
 10 16  1  0  0  0
 16 17  2  0  0  0
 16 18  1  0  0  0
 18 19  2  0  0  0
 19 20  1  0  0  0
 20 21  2  0  0  0
 21 22  1  0  0  0
 22 23  2  0  0  0
 13  8  1  0  0  0
  6  1  1  0  0  0
 29 24  1  0  0  0
 35 30  1  0  0  0
 23 18  1  0  0  0
M  END
> <minimizedAffinity>
-5.51809

> <CNNscore>
0.4116116166

> <CNNaffinity>
4.8088669777

> <CNN_VS>
1.9793854952

> <CNNaffinity_variance>
0.3821538389

$$$$
[H]c1c([H])c([H])c(C(=O)N2C([H])([H])C([H])([H])N(C(=O)c3c([H])c([H])c(-c4c([H])c([H])c(-c5c([H])c([H])c([H])c([H])c5[H])c([H])c4[H])c([H])c3[H])[C@]([H])(C([H])([H])[H])C2([H])[H])c([H])c1[H]


 35 39  0  0  0  0  0  0  0  0999 V2000
  -90.5680   28.5667   -1.2881 C   0  0  0  0  0  0  0  0  0  0  0  0
  -91.3418   27.5922   -0.7367 C   0  0  0  0  0  0  0  0  0  0  0  0
  -90.9239   26.9689    0.4575 C   0  0  0  0  0  0  0  0  0  0  0  0
  -89.7596   27.3006    1.1001 C   0  0  0  0  0  0  0  0  0  0  0  0
  -89.0044   28.2743    0.5326 C   0  0  0  0  0  0  0  0  0  0  0  0
  -89.3646   28.9094   -0.6240 C   0  0  0  0  0  0  0  0  0  0  0  0
  -91.6978   31.9787   -4.1286 C   0  0  0  0  0  0  0  0  0  0  0  0
  -91.9723   30.5156   -4.2803 C   0  0  0  0  0  0  0  0  0  0  0  0
  -93.2411   30.1924   -5.0158 C   0  0  0  0  0  0  0  0  0  0  0  0
  -94.3816   30.6533   -4.3268 N   0  0  0  0  0  0  0  0  0  0  0  0
  -94.2124   31.1001   -2.9415 C   0  0  0  0  0  0  0  0  0  0  0  0
  -93.2600   30.1923   -2.1699 C   0  0  0  0  0  0  0  0  0  0  0  0
  -92.0594   29.9501   -2.8948 N   0  0  0  0  0  0  0  0  0  0  0  0
  -90.9199   29.2578   -2.4964 C   0  0  0  0  0  0  0  0  0  0  0  0
  -89.9437   29.2127   -3.3983 O   0  0  0  0  0  0  0  0  0  0  0  0
  -95.6943   30.7101   -4.8296 C   0  0  0  0  0  0  0  0  0  0  0  0
  -96.5963   31.2264   -4.0056 O   0  0  0  0  0  0  0  0  0  0  0  0
  -96.2547   30.3059   -6.0965 C   0  0  0  0  0  0  0  0  0  0  0  0
  -96.5715   28.9597   -6.3020 C   0  0  0  0  0  0  0  0  0  0  0  0
  -97.0661   28.4703   -7.4652 C   0  0  0  0  0  0  0  0  0  0  0  0
  -97.2880   29.2972   -8.5336 C   0  0  0  0  0  0  0  0  0  0  0  0
  -96.9894   30.6178   -8.3684 C   0  0  0  0  0  0  0  0  0  0  0  0
  -96.4752   31.1408   -7.1686 C   0  0  0  0  0  0  0  0  0  0  0  0
  -89.4057   26.5930    2.3440 C   0  0  0  0  0  0  0  0  0  0  0  0
  -90.2823   26.5260    3.3838 C   0  0  0  0  0  0  0  0  0  0  0  0
  -89.9854   25.8674    4.5701 C   0  0  0  0  0  0  0  0  0  0  0  0
  -88.7691   25.2587    4.7113 C   0  0  0  0  0  0  0  0  0  0  0  0
  -87.8917   25.3347    3.6505 C   0  0  0  0  0  0  0  0  0  0  0  0
  -88.1766   25.9825    2.4766 C   0  0  0  0  0  0  0  0  0  0  0  0
  -88.3299   24.5370    5.8843 C   0  0  0  0  0  0  0  0  0  0  0  0
  -87.6457   23.3420    5.8076 C   0  0  0  0  0  0  0  0  0  0  0  0
  -87.2459   22.6815    6.9737 C   0  0  0  0  0  0  0  0  0  0  0  0
  -87.5264   23.2085    8.2108 C   0  0  0  0  0  0  0  0  0  0  0  0
  -88.2068   24.3970    8.2930 C   0  0  0  0  0  0  0  0  0  0  0  0
  -88.5969   25.0409    7.1331 C   0  0  0  0  0  0  0  0  0  0  0  0
  7  8  1  0  0  0
  8  9  1  0  0  0
  9 10  1  0  0  0
 10 11  1  0  0  0
 11 12  1  0  0  0
 12 13  1  0  0  0
 13 14  1  0  0  0
 14 15  2  0  0  0
 14  1  1  0  0  0
  1  2  2  0  0  0
  2  3  1  0  0  0
  3  4  2  0  0  0
  4  5  1  0  0  0
  5  6  2  0  0  0
  4 24  1  0  0  0
 24 25  2  0  0  0
 25 26  1  0  0  0
 26 27  2  0  0  0
 27 28  1  0  0  0
 28 29  2  0  0  0
 27 30  1  0  0  0
 30 31  2  0  0  0
 31 32  1  0  0  0
 32 33  2  0  0  0
 33 34  1  0  0  0
 34 35  2  0  0  0
 10 16  1  0  0  0
 16 17  2  0  0  0
 16 18  1  0  0  0
 18 19  2  0  0  0
 19 20  1  0  0  0
 20 21  2  0  0  0
 21 22  1  0  0  0
 22 23  2  0  0  0
 13  8  1  0  0  0
  6  1  1  0  0  0
 29 24  1  0  0  0
 35 30  1  0  0  0
 23 18  1  0  0  0
M  END
> <minimizedAffinity>
-4.54135

> <CNNscore>
0.3893703818

> <CNNaffinity>
5.2997903824

> <CNN_VS>
2.0635814667

> <CNNaffinity_variance>
0.3280876577

$$$$
[H]c1c([H])c([H])c(C(=O)N2C([H])([H])C([H])([H])N(C(=O)c3c([H])c([H])c(-c4c([H])c([H])c(-c5c([H])c([H])c([H])c([H])c5[H])c([H])c4[H])c([H])c3[H])[C@]([H])(C([H])([H])[H])C2([H])[H])c([H])c1[H]


 35 39  0  0  0  0  0  0  0  0999 V2000
  -90.1618   29.0689   -1.8696 C   0  0  0  0  0  0  0  0  0  0  0  0
  -88.8995   29.4384   -2.2198 C   0  0  0  0  0  0  0  0  0  0  0  0
  -88.7125   30.5621   -3.0515 C   0  0  0  0  0  0  0  0  0  0  0  0
  -89.7545   31.3119   -3.5319 C   0  0  0  0  0  0  0  0  0  0  0  0
  -91.0035   30.9253   -3.1700 C   0  0  0  0  0  0  0  0  0  0  0  0
  -91.2386   29.8438   -2.3663 C   0  0  0  0  0  0  0  0  0  0  0  0
  -92.4816   26.1618    0.8050 C   0  0  0  0  0  0  0  0  0  0  0  0
  -91.0081   26.4206    0.7749 C   0  0  0  0  0  0  0  0  0  0  0  0
  -90.3193   26.2570    2.0994 C   0  0  0  0  0  0  0  0  0  0  0  0
  -90.7798   27.1895    3.0514 N   0  0  0  0  0  0  0  0  0  0  0  0
  -91.6032   28.3048    2.5770 C   0  0  0  0  0  0  0  0  0  0  0  0
  -91.0840   28.8657    1.2569 C   0  0  0  0  0  0  0  0  0  0  0  0
  -90.8309   27.8344    0.3093 N   0  0  0  0  0  0  0  0  0  0  0  0
  -90.4432   27.9443   -1.0227 C   0  0  0  0  0  0  0  0  0  0  0  0
  -90.2976   26.7887   -1.6644 O   0  0  0  0  0  0  0  0  0  0  0  0
  -90.5092   27.1755    4.4320 C   0  0  0  0  0  0  0  0  0  0  0  0
  -91.0932   28.1368    5.1349 O   0  0  0  0  0  0  0  0  0  0  0  0
  -89.7020   26.2959    5.2425 C   0  0  0  0  0  0  0  0  0  0  0  0
  -88.9199   25.3206    4.6167 C   0  0  0  0  0  0  0  0  0  0  0  0
  -88.1565   24.4222    5.2857 C   0  0  0  0  0  0  0  0  0  0  0  0
  -88.1110   24.4247    6.6540 C   0  0  0  0  0  0  0  0  0  0  0  0
  -88.8627   25.3632    7.2979 C   0  0  0  0  0  0  0  0  0  0  0  0
  -89.6601   26.3013    6.6185 C   0  0  0  0  0  0  0  0  0  0  0  0
  -89.4604   32.4698   -4.3957 C   0  0  0  0  0  0  0  0  0  0  0  0
  -88.3273   32.5095   -5.1497 C   0  0  0  0  0  0  0  0  0  0  0  0
  -88.0171   33.5817   -5.9763 C   0  0  0  0  0  0  0  0  0  0  0  0
  -88.8749   34.6444   -6.0442 C   0  0  0  0  0  0  0  0  0  0  0  0
  -90.0181   34.5905   -5.2754 C   0  0  0  0  0  0  0  0  0  0  0  0
  -90.3318   33.5365   -4.4572 C   0  0  0  0  0  0  0  0  0  0  0  0
  -88.6811   35.8205   -6.8621 C   0  0  0  0  0  0  0  0  0  0  0  0
  -87.4298   36.3051   -7.1807 C   0  0  0  0  0  0  0  0  0  0  0  0
  -87.2970   37.4498   -7.9731 C   0  0  0  0  0  0  0  0  0  0  0  0
  -88.4052   38.1092   -8.4461 C   0  0  0  0  0  0  0  0  0  0  0  0
  -89.6525   37.6316   -8.1323 C   0  0  0  0  0  0  0  0  0  0  0  0
  -89.7713   36.4989   -7.3480 C   0  0  0  0  0  0  0  0  0  0  0  0
  7  8  1  0  0  0
  8  9  1  0  0  0
  9 10  1  0  0  0
 10 11  1  0  0  0
 11 12  1  0  0  0
 12 13  1  0  0  0
 13 14  1  0  0  0
 14 15  2  0  0  0
 14  1  1  0  0  0
  1  2  2  0  0  0
  2  3  1  0  0  0
  3  4  2  0  0  0
  4  5  1  0  0  0
  5  6  2  0  0  0
  4 24  1  0  0  0
 24 25  2  0  0  0
 25 26  1  0  0  0
 26 27  2  0  0  0
 27 28  1  0  0  0
 28 29  2  0  0  0
 27 30  1  0  0  0
 30 31  2  0  0  0
 31 32  1  0  0  0
 32 33  2  0  0  0
 33 34  1  0  0  0
 34 35  2  0  0  0
 10 16  1  0  0  0
 16 17  2  0  0  0
 16 18  1  0  0  0
 18 19  2  0  0  0
 19 20  1  0  0  0
 20 21  2  0  0  0
 21 22  1  0  0  0
 22 23  2  0  0  0
 13  8  1  0  0  0
  6  1  1  0  0  0
 29 24  1  0  0  0
 35 30  1  0  0  0
 23 18  1  0  0  0
M  END
> <minimizedAffinity>
-1.44968

> <CNNscore>
0.3855211139

> <CNNaffinity>
5.4249610901

> <CNN_VS>
2.0914371014

> <CNNaffinity_variance>
0.8120633364

$$$$
[H]c1c([H])c([H])c(C(=O)N2C([H])([H])C([H])([H])N(C(=O)c3c([H])c([H])c(-c4c([H])c([H])c(-c5c([H])c([H])c([H])c([H])c5[H])c([H])c4[H])c([H])c3[H])[C@]([H])(C([H])([H])[H])C2([H])[H])c([H])c1[H]


 35 39  0  0  0  0  0  0  0  0999 V2000
  -89.7048   32.5293   -3.4323 C   0  0  0  0  0  0  0  0  0  0  0  0
  -88.6974   32.4910   -2.5180 C   0  0  0  0  0  0  0  0  0  0  0  0
  -88.7679   31.5750   -1.4479 C   0  0  0  0  0  0  0  0  0  0  0  0
  -89.8164   30.7082   -1.2803 C   0  0  0  0  0  0  0  0  0  0  0  0
  -90.8089   30.7640   -2.2034 C   0  0  0  0  0  0  0  0  0  0  0  0
  -90.7885   31.6337   -3.2590 C   0  0  0  0  0  0  0  0  0  0  0  0
  -88.4981   35.9647   -6.2124 C   0  0  0  0  0  0  0  0  0  0  0  0
  -89.8336   35.3027   -6.0809 C   0  0  0  0  0  0  0  0  0  0  0  0
  -91.0050   36.2044   -6.3457 C   0  0  0  0  0  0  0  0  0  0  0  0
  -91.0843   37.2542   -5.4079 N   0  0  0  0  0  0  0  0  0  0  0  0
  -90.2432   37.1701   -4.2110 C   0  0  0  0  0  0  0  0  0  0  0  0
  -90.1960   35.7505   -3.6551 C   0  0  0  0  0  0  0  0  0  0  0  0
  -89.9232   34.7945   -4.6736 N   0  0  0  0  0  0  0  0  0  0  0  0
  -89.7114   33.4242   -4.5550 C   0  0  0  0  0  0  0  0  0  0  0  0
  -89.4614   32.7917   -5.6977 O   0  0  0  0  0  0  0  0  0  0  0  0
  -91.9175   38.3849   -5.4893 C   0  0  0  0  0  0  0  0  0  0  0  0
  -91.7818   39.2626   -4.5042 O   0  0  0  0  0  0  0  0  0  0  0  0
  -92.9097   38.7775   -6.4608 C   0  0  0  0  0  0  0  0  0  0  0  0
  -94.2615   38.5579   -6.1798 C   0  0  0  0  0  0  0  0  0  0  0  0
  -95.2682   38.8547   -7.0377 C   0  0  0  0  0  0  0  0  0  0  0  0
  -95.0032   39.4029   -8.2639 C   0  0  0  0  0  0  0  0  0  0  0  0
  -93.6940   39.6305   -8.5717 C   0  0  0  0  0  0  0  0  0  0  0  0
  -92.6386   39.3278   -7.6932 C   0  0  0  0  0  0  0  0  0  0  0  0
  -89.8022   29.7866   -0.1298 C   0  0  0  0  0  0  0  0  0  0  0  0
  -90.8832   29.6759    0.6906 C   0  0  0  0  0  0  0  0  0  0  0  0
  -90.9077   28.8179    1.7827 C   0  0  0  0  0  0  0  0  0  0  0  0
  -89.8098   28.0493    2.0546 C   0  0  0  0  0  0  0  0  0  0  0  0
  -88.7227   28.1718    1.2155 C   0  0  0  0  0  0  0  0  0  0  0  0
  -88.6902   29.0159    0.1360 C   0  0  0  0  0  0  0  0  0  0  0  0
  -89.6987   27.1138    3.1510 C   0  0  0  0  0  0  0  0  0  0  0  0
  -89.2600   25.8176    2.9792 C   0  0  0  0  0  0  0  0  0  0  0  0
  -89.1740   24.9507    4.0733 C   0  0  0  0  0  0  0  0  0  0  0  0
  -89.5235   25.3726    5.3329 C   0  0  0  0  0  0  0  0  0  0  0  0
  -89.9607   26.6609    5.5096 C   0  0  0  0  0  0  0  0  0  0  0  0
  -90.0414   27.5090    4.4203 C   0  0  0  0  0  0  0  0  0  0  0  0
  7  8  1  0  0  0
  8  9  1  0  0  0
  9 10  1  0  0  0
 10 11  1  0  0  0
 11 12  1  0  0  0
 12 13  1  0  0  0
 13 14  1  0  0  0
 14 15  2  0  0  0
 14  1  1  0  0  0
  1  2  2  0  0  0
  2  3  1  0  0  0
  3  4  2  0  0  0
  4  5  1  0  0  0
  5  6  2  0  0  0
  4 24  1  0  0  0
 24 25  2  0  0  0
 25 26  1  0  0  0
 26 27  2  0  0  0
 27 28  1  0  0  0
 28 29  2  0  0  0
 27 30  1  0  0  0
 30 31  2  0  0  0
 31 32  1  0  0  0
 32 33  2  0  0  0
 33 34  1  0  0  0
 34 35  2  0  0  0
 10 16  1  0  0  0
 16 17  2  0  0  0
 16 18  1  0  0  0
 18 19  2  0  0  0
 19 20  1  0  0  0
 20 21  2  0  0  0
 21 22  1  0  0  0
 22 23  2  0  0  0
 13  8  1  0  0  0
  6  1  1  0  0  0
 29 24  1  0  0  0
 35 30  1  0  0  0
 23 18  1  0  0  0
M  END
> <minimizedAffinity>
-6.80639

> <CNNscore>
0.3240796328

> <CNNaffinity>
5.6806001663

> <CNN_VS>
1.8409668207

> <CNNaffinity_variance>
0.1911422461

$$$$
[H]c1c([H])c([H])c(C(=O)N2C([H])([H])C([H])([H])N(C(=O)c3c([H])c([H])c(-c4c([H])c([H])c(-c5c([H])c([H])c([H])c([H])c5[H])c([H])c4[H])c([H])c3[H])[C@]([H])(C([H])([H])[H])C2([H])[H])c([H])c1[H]


 35 39  0  0  0  0  0  0  0  0999 V2000
  -92.2433   26.4998   -1.2874 C   0  0  0  0  0  0  0  0  0  0  0  0
  -92.0408   25.1749   -1.0508 C   0  0  0  0  0  0  0  0  0  0  0  0
  -91.3572   24.7765    0.1169 C   0  0  0  0  0  0  0  0  0  0  0  0
  -90.8795   25.6709    1.0392 C   0  0  0  0  0  0  0  0  0  0  0  0
  -91.0927   26.9858    0.7828 C   0  0  0  0  0  0  0  0  0  0  0  0
  -91.7493   27.4240   -0.3343 C   0  0  0  0  0  0  0  0  0  0  0  0
  -93.0812   27.6453   -5.6432 C   0  0  0  0  0  0  0  0  0  0  0  0
  -93.7132   28.1919   -4.4018 C   0  0  0  0  0  0  0  0  0  0  0  0
  -94.1342   29.6303   -4.4982 C   0  0  0  0  0  0  0  0  0  0  0  0
  -93.0333   30.4897   -4.6914 N   0  0  0  0  0  0  0  0  0  0  0  0
  -91.6898   29.9379   -4.4978 C   0  0  0  0  0  0  0  0  0  0  0  0
  -91.6332   29.0044   -3.2927 C   0  0  0  0  0  0  0  0  0  0  0  0
  -92.6962   28.0582   -3.3087 N   0  0  0  0  0  0  0  0  0  0  0  0
  -92.9341   26.9930   -2.4454 C   0  0  0  0  0  0  0  0  0  0  0  0
  -94.0128   26.2686   -2.7280 O   0  0  0  0  0  0  0  0  0  0  0  0
  -93.0889   31.8528   -5.0352 C   0  0  0  0  0  0  0  0  0  0  0  0
  -91.9139   32.4436   -5.2069 O   0  0  0  0  0  0  0  0  0  0  0  0
  -94.2037   32.7457   -5.2407 C   0  0  0  0  0  0  0  0  0  0  0  0
  -94.4267   33.7781   -4.3246 C   0  0  0  0  0  0  0  0  0  0  0  0
  -95.4644   34.6465   -4.4047 C   0  0  0  0  0  0  0  0  0  0  0  0
  -96.3772   34.5536   -5.4208 C   0  0  0  0  0  0  0  0  0  0  0  0
  -96.1905   33.5569   -6.3331 C   0  0  0  0  0  0  0  0  0  0  0  0
  -95.1199   32.6479   -6.2636 C   0  0  0  0  0  0  0  0  0  0  0  0
  -90.1766   25.1595    2.2299 C   0  0  0  0  0  0  0  0  0  0  0  0
  -89.1777   25.8772    2.8139 C   0  0  0  0  0  0  0  0  0  0  0  0
  -88.4940   25.4293    3.9370 C   0  0  0  0  0  0  0  0  0  0  0  0
  -88.8281   24.2226    4.4867 C   0  0  0  0  0  0  0  0  0  0  0  0
  -89.8413   23.5069    3.8848 C   0  0  0  0  0  0  0  0  0  0  0  0
  -90.5208   23.9415    2.7766 C   0  0  0  0  0  0  0  0  0  0  0  0
  -88.2057   23.6375    5.6529 C   0  0  0  0  0  0  0  0  0  0  0  0
  -87.8974   22.2958    5.7354 C   0  0  0  0  0  0  0  0  0  0  0  0
  -87.2985   21.7788    6.8886 C   0  0  0  0  0  0  0  0  0  0  0  0
  -87.0080   22.5942    7.9551 C   0  0  0  0  0  0  0  0  0  0  0  0
  -87.3125   23.9297    7.8786 C   0  0  0  0  0  0  0  0  0  0  0  0
  -87.9045   24.4295    6.7332 C   0  0  0  0  0  0  0  0  0  0  0  0
  7  8  1  0  0  0
  8  9  1  0  0  0
  9 10  1  0  0  0
 10 11  1  0  0  0
 11 12  1  0  0  0
 12 13  1  0  0  0
 13 14  1  0  0  0
 14 15  2  0  0  0
 14  1  1  0  0  0
  1  2  2  0  0  0
  2  3  1  0  0  0
  3  4  2  0  0  0
  4  5  1  0  0  0
  5  6  2  0  0  0
  4 24  1  0  0  0
 24 25  2  0  0  0
 25 26  1  0  0  0
 26 27  2  0  0  0
 27 28  1  0  0  0
 28 29  2  0  0  0
 27 30  1  0  0  0
 30 31  2  0  0  0
 31 32  1  0  0  0
 32 33  2  0  0  0
 33 34  1  0  0  0
 34 35  2  0  0  0
 10 16  1  0  0  0
 16 17  2  0  0  0
 16 18  1  0  0  0
 18 19  2  0  0  0
 19 20  1  0  0  0
 20 21  2  0  0  0
 21 22  1  0  0  0
 22 23  2  0  0  0
 13  8  1  0  0  0
  6  1  1  0  0  0
 29 24  1  0  0  0
 35 30  1  0  0  0
 23 18  1  0  0  0
M  END
> <minimizedAffinity>
-6.82182

> <CNNscore>
0.3142239451

> <CNNaffinity>
5.1604514122

> <CNN_VS>
1.6215374470

> <CNNaffinity_variance>
0.6293535829

$$$$
[H]c1c([H])c([H])c(C(=O)N2C([H])([H])C([H])([H])N(C(=O)c3c([H])c([H])c(-c4c([H])c([H])c(-c5c([H])c([H])c([H])c([H])c5[H])c([H])c4[H])c([H])c3[H])[C@]([H])(C([H])([H])[H])C2([H])[H])c([H])c1[H]


 35 39  0  0  0  0  0  0  0  0999 V2000
  -89.6695   28.5034   -3.0371 C   0  0  0  0  0  0  0  0  0  0  0  0
  -89.2830   27.6964   -2.0114 C   0  0  0  0  0  0  0  0  0  0  0  0
  -90.0298   26.5347   -1.7249 C   0  0  0  0  0  0  0  0  0  0  0  0
  -91.1423   26.1724   -2.4389 C   0  0  0  0  0  0  0  0  0  0  0  0
  -91.5090   26.9913   -3.4564 C   0  0  0  0  0  0  0  0  0  0  0  0
  -90.8195   28.1289   -3.7747 C   0  0  0  0  0  0  0  0  0  0  0  0
  -87.6805   32.6141   -2.6736 C   0  0  0  0  0  0  0  0  0  0  0  0
  -88.2371   31.9574   -3.8976 C   0  0  0  0  0  0  0  0  0  0  0  0
  -88.8009   32.9088   -4.9137 C   0  0  0  0  0  0  0  0  0  0  0  0
  -89.9093   33.6205   -4.4109 N   0  0  0  0  0  0  0  0  0  0  0  0
  -90.5041   33.1642   -3.1519 C   0  0  0  0  0  0  0  0  0  0  0  0
  -90.5715   31.6420   -3.0807 C   0  0  0  0  0  0  0  0  0  0  0  0
  -89.3299   31.0424   -3.4335 N   0  0  0  0  0  0  0  0  0  0  0  0
  -88.9649   29.6999   -3.4020 C   0  0  0  0  0  0  0  0  0  0  0  0
  -87.7157   29.4464   -3.7807 O   0  0  0  0  0  0  0  0  0  0  0  0
  -90.5313   34.7300   -5.0122 C   0  0  0  0  0  0  0  0  0  0  0  0
  -91.5333   35.2612   -4.3245 O   0  0  0  0  0  0  0  0  0  0  0  0
  -90.2794   35.4122   -6.2586 C   0  0  0  0  0  0  0  0  0  0  0  0
  -89.3398   36.4470   -6.2903 C   0  0  0  0  0  0  0  0  0  0  0  0
  -89.0565   37.1749   -7.3980 C   0  0  0  0  0  0  0  0  0  0  0  0
  -89.6975   36.9253   -8.5818 C   0  0  0  0  0  0  0  0  0  0  0  0
  -90.6216   35.9221   -8.5870 C   0  0  0  0  0  0  0  0  0  0  0  0
  -90.9272   35.1584   -7.4465 C   0  0  0  0  0  0  0  0  0  0  0  0
  -91.8588   24.9395   -2.0648 C   0  0  0  0  0  0  0  0  0  0  0  0
  -92.2431   24.0397   -3.0117 C   0  0  0  0  0  0  0  0  0  0  0  0
  -92.9179   22.8669   -2.6977 C   0  0  0  0  0  0  0  0  0  0  0  0
  -93.2132   22.5942   -1.3907 C   0  0  0  0  0  0  0  0  0  0  0  0
  -92.8180   23.5142   -0.4429 C   0  0  0  0  0  0  0  0  0  0  0  0
  -92.1520   24.6736   -0.7441 C   0  0  0  0  0  0  0  0  0  0  0  0
  -93.9044   21.4144   -0.9215 C   0  0  0  0  0  0  0  0  0  0  0  0
  -94.1224   21.1650    0.4172 C   0  0  0  0  0  0  0  0  0  0  0  0
  -94.7938   20.0059    0.8191 C   0  0  0  0  0  0  0  0  0  0  0  0
  -95.2461   19.0990   -0.1081 C   0  0  0  0  0  0  0  0  0  0  0  0
  -95.0321   19.3419   -1.4412 C   0  0  0  0  0  0  0  0  0  0  0  0
  -94.3670   20.4915   -1.8266 C   0  0  0  0  0  0  0  0  0  0  0  0
  7  8  1  0  0  0
  8  9  1  0  0  0
  9 10  1  0  0  0
 10 11  1  0  0  0
 11 12  1  0  0  0
 12 13  1  0  0  0
 13 14  1  0  0  0
 14 15  2  0  0  0
 14  1  1  0  0  0
  1  2  2  0  0  0
  2  3  1  0  0  0
  3  4  2  0  0  0
  4  5  1  0  0  0
  5  6  2  0  0  0
  4 24  1  0  0  0
 24 25  2  0  0  0
 25 26  1  0  0  0
 26 27  2  0  0  0
 27 28  1  0  0  0
 28 29  2  0  0  0
 27 30  1  0  0  0
 30 31  2  0  0  0
 31 32  1  0  0  0
 32 33  2  0  0  0
 33 34  1  0  0  0
 34 35  2  0  0  0
 10 16  1  0  0  0
 16 17  2  0  0  0
 16 18  1  0  0  0
 18 19  2  0  0  0
 19 20  1  0  0  0
 20 21  2  0  0  0
 21 22  1  0  0  0
 22 23  2  0  0  0
 13  8  1  0  0  0
  6  1  1  0  0  0
 29 24  1  0  0  0
 35 30  1  0  0  0
 23 18  1  0  0  0
M  END
> <minimizedAffinity>
-5.25336

> <CNNscore>
0.3001452088

> <CNNaffinity>
5.4191398621

> <CNN_VS>
1.6265288591

> <CNNaffinity_variance>
1.0262796879

$$$$
[H]c1c([H])c([H])c(C(=O)N2C([H])([H])C([H])([H])N(C(=O)c3c([H])c([H])c(-c4c([H])c([H])c(-c5c([H])c([H])c([H])c([H])c5[H])c([H])c4[H])c([H])c3[H])[C@]([H])(C([H])([H])[H])C2([H])[H])c([H])c1[H]


 35 39  0  0  0  0  0  0  0  0999 V2000
  -91.9173   31.0875   -2.9891 C   0  0  0  0  0  0  0  0  0  0  0  0
  -91.6877   29.8608   -2.4461 C   0  0  0  0  0  0  0  0  0  0  0  0
  -90.4779   29.6219   -1.7615 C   0  0  0  0  0  0  0  0  0  0  0  0
  -89.5072   30.5782   -1.6135 C   0  0  0  0  0  0  0  0  0  0  0  0
  -89.7575   31.7932   -2.1626 C   0  0  0  0  0  0  0  0  0  0  0  0
  -90.9140   32.0757   -2.8363 C   0  0  0  0  0  0  0  0  0  0  0  0
  -95.1845   31.0327   -6.1999 C   0  0  0  0  0  0  0  0  0  0  0  0
  -94.8187   32.1440   -5.2669 C   0  0  0  0  0  0  0  0  0  0  0  0
  -95.0357   33.5219   -5.8235 C   0  0  0  0  0  0  0  0  0  0  0  0
  -94.2163   33.7729   -6.9431 N   0  0  0  0  0  0  0  0  0  0  0  0
  -93.1293   32.8310   -7.2229 C   0  0  0  0  0  0  0  0  0  0  0  0
  -92.4308   32.3817   -5.9434 C   0  0  0  0  0  0  0  0  0  0  0  0
  -93.3638   31.9748   -4.9486 N   0  0  0  0  0  0  0  0  0  0  0  0
  -93.1222   31.4193   -3.6958 C   0  0  0  0  0  0  0  0  0  0  0  0
  -94.2104   31.1262   -2.9900 O   0  0  0  0  0  0  0  0  0  0  0  0
  -94.3189   34.8647   -7.8245 C   0  0  0  0  0  0  0  0  0  0  0  0
  -93.4602   34.8612   -8.8353 O   0  0  0  0  0  0  0  0  0  0  0  0
  -95.1990   36.0082   -7.8368 C   0  0  0  0  0  0  0  0  0  0  0  0
  -96.2415   36.0747   -6.9076 C   0  0  0  0  0  0  0  0  0  0  0  0
  -97.1447   37.0842   -6.8583 C   0  0  0  0  0  0  0  0  0  0  0  0
  -97.0796   38.1248   -7.7456 C   0  0  0  0  0  0  0  0  0  0  0  0
  -96.0744   38.0922   -8.6671 C   0  0  0  0  0  0  0  0  0  0  0  0
  -95.1303   37.0521   -8.7317 C   0  0  0  0  0  0  0  0  0  0  0  0
  -88.2745   30.2350   -0.8814 C   0  0  0  0  0  0  0  0  0  0  0  0
  -87.4399   31.2082   -0.4229 C   0  0  0  0  0  0  0  0  0  0  0  0
  -86.2712   30.9239    0.2719 C   0  0  0  0  0  0  0  0  0  0  0  0
  -85.9352   29.6202    0.5110 C   0  0  0  0  0  0  0  0  0  0  0  0
  -86.7895   28.6455    0.0409 C   0  0  0  0  0  0  0  0  0  0  0  0
  -87.9445   28.9173   -0.6454 C   0  0  0  0  0  0  0  0  0  0  0  0
  -84.7557   29.1809    1.2220 C   0  0  0  0  0  0  0  0  0  0  0  0
  -84.7487   28.0620    2.0283 C   0  0  0  0  0  0  0  0  0  0  0  0
  -83.5812   27.6816    2.6977 C   0  0  0  0  0  0  0  0  0  0  0  0
  -82.4256   28.4122    2.5649 C   0  0  0  0  0  0  0  0  0  0  0  0
  -82.4268   29.5262    1.7641 C   0  0  0  0  0  0  0  0  0  0  0  0
  -83.5872   29.8925    1.1072 C   0  0  0  0  0  0  0  0  0  0  0  0
  7  8  1  0  0  0
  8  9  1  0  0  0
  9 10  1  0  0  0
 10 11  1  0  0  0
 11 12  1  0  0  0
 12 13  1  0  0  0
 13 14  1  0  0  0
 14 15  2  0  0  0
 14  1  1  0  0  0
  1  2  2  0  0  0
  2  3  1  0  0  0
  3  4  2  0  0  0
  4  5  1  0  0  0
  5  6  2  0  0  0
  4 24  1  0  0  0
 24 25  2  0  0  0
 25 26  1  0  0  0
 26 27  2  0  0  0
 27 28  1  0  0  0
 28 29  2  0  0  0
 27 30  1  0  0  0
 30 31  2  0  0  0
 31 32  1  0  0  0
 32 33  2  0  0  0
 33 34  1  0  0  0
 34 35  2  0  0  0
 10 16  1  0  0  0
 16 17  2  0  0  0
 16 18  1  0  0  0
 18 19  2  0  0  0
 19 20  1  0  0  0
 20 21  2  0  0  0
 21 22  1  0  0  0
 22 23  2  0  0  0
 13  8  1  0  0  0
  6  1  1  0  0  0
 29 24  1  0  0  0
 35 30  1  0  0  0
 23 18  1  0  0  0
M  END
> <minimizedAffinity>
-7.59513

> <CNNscore>
0.2705036998

> <CNNaffinity>
5.6174006462

> <CNN_VS>
1.5195276737

> <CNNaffinity_variance>
0.7910750508

$$$$
[H]c1c([H])c([H])c(-c2c([H])c([H])c(C(=O)N3C([H])([H])C([H])([H])N(c4c([H])c([H])c([H])c([H])c4[H])C([H])([H])[C@]3([H])C([H])([H])[H])c([H])c2[H])c([H])c1[H]


 27 30  0  0  0  0  0  0  0  0999 V2000
  -89.4294   27.8203    0.2479 C   0  0  0  0  0  0  0  0  0  0  0  0
  -90.8712   27.6549    0.6779 C   0  0  0  0  0  0  0  0  0  0  0  0
  -91.6372   28.7437   -0.1285 C   0  0  0  0  0  0  0  0  0  0  0  0
  -91.6587   28.4201   -1.5169 N   0  0  0  0  0  0  0  0  0  0  0  0
  -91.7045   27.0160   -1.8826 C   0  0  0  0  0  0  0  0  0  0  0  0
  -92.3825   26.2884   -0.7397 C   0  0  0  0  0  0  0  0  0  0  0  0
  -91.4306   26.3794    0.4300 N   0  0  0  0  0  0  0  0  0  0  0  0
  -91.2502   25.1909    1.0946 C   0  0  0  0  0  0  0  0  0  0  0  0
  -91.9248   24.1700    0.5632 O   0  0  0  0  0  0  0  0  0  0  0  0
  -90.4641   24.8536    2.2544 C   0  0  0  0  0  0  0  0  0  0  0  0
  -89.4356   25.5514    2.7955 C   0  0  0  0  0  0  0  0  0  0  0  0
  -88.7050   25.1039    3.9208 C   0  0  0  0  0  0  0  0  0  0  0  0
  -88.9937   23.9242    4.5436 C   0  0  0  0  0  0  0  0  0  0  0  0
  -90.0337   23.2055    4.0086 C   0  0  0  0  0  0  0  0  0  0  0  0
  -90.7473   23.6267    2.9211 C   0  0  0  0  0  0  0  0  0  0  0  0
  -88.2487   23.4574    5.7007 C   0  0  0  0  0  0  0  0  0  0  0  0
  -87.8631   22.1583    5.8644 C   0  0  0  0  0  0  0  0  0  0  0  0
  -87.1646   21.7558    6.9649 C   0  0  0  0  0  0  0  0  0  0  0  0
  -86.8316   22.6793    7.9496 C   0  0  0  0  0  0  0  0  0  0  0  0
  -87.2018   24.0032    7.8236 C   0  0  0  0  0  0  0  0  0  0  0  0
  -87.9035   24.3640    6.7000 C   0  0  0  0  0  0  0  0  0  0  0  0
  -91.6488   29.3874   -2.5518 C   0  0  0  0  0  0  0  0  0  0  0  0
  -91.0199   30.6222   -2.3661 C   0  0  0  0  0  0  0  0  0  0  0  0
  -91.0204   31.5384   -3.3944 C   0  0  0  0  0  0  0  0  0  0  0  0
  -91.6222   31.2708   -4.5961 C   0  0  0  0  0  0  0  0  0  0  0  0
  -92.2372   30.0643   -4.7791 C   0  0  0  0  0  0  0  0  0  0  0  0
  -92.2558   29.1082   -3.7537 C   0  0  0  0  0  0  0  0  0  0  0  0
  1  2  1  0  0  0
  2  3  1  0  0  0
  3  4  1  0  0  0
  4  5  1  0  0  0
  5  6  1  0  0  0
  6  7  1  0  0  0
  7  8  1  0  0  0
  8  9  2  0  0  0
  8 10  1  0  0  0
 10 11  2  0  0  0
 11 12  1  0  0  0
 12 13  2  0  0  0
 13 14  1  0  0  0
 14 15  2  0  0  0
 13 16  1  0  0  0
 16 17  2  0  0  0
 17 18  1  0  0  0
 18 19  2  0  0  0
 19 20  1  0  0  0
 20 21  2  0  0  0
  4 22  1  0  0  0
 22 23  2  0  0  0
 23 24  1  0  0  0
 24 25  2  0  0  0
 25 26  1  0  0  0
 26 27  2  0  0  0
  7  2  1  0  0  0
 15 10  1  0  0  0
 21 16  1  0  0  0
 27 22  1  0  0  0
M  END
> <minimizedAffinity>
-6.99434

> <CNNscore>
0.2373219728

> <CNNaffinity>
4.6558389664

> <CNN_VS>
1.1049329042

> <CNNaffinity_variance>
0.5584816337

$$$$
[H]c1c([H])c([H])c(-c2c([H])c([H])c(C(=O)N3C([H])([H])C([H])([H])N(c4c([H])c([H])c([H])c([H])c4[H])C([H])([H])[C@]3([H])C([H])([H])[H])c([H])c2[H])c([H])c1[H]


 27 30  0  0  0  0  0  0  0  0999 V2000
  -87.6569   32.2179   -1.6474 C   0  0  0  0  0  0  0  0  0  0  0  0
  -89.1464   32.2542   -1.9142 C   0  0  0  0  0  0  0  0  0  0  0  0
  -89.3658   33.5964   -2.6712 C   0  0  0  0  0  0  0  0  0  0  0  0
  -88.7897   33.5396   -3.9743 N   0  0  0  0  0  0  0  0  0  0  0  0
  -88.7930   32.2597   -4.6591 C   0  0  0  0  0  0  0  0  0  0  0  0
  -89.9753   31.4794   -4.1218 C   0  0  0  0  0  0  0  0  0  0  0  0
  -89.6474   31.1746   -2.6788 N   0  0  0  0  0  0  0  0  0  0  0  0
  -89.8935   29.8731   -2.3150 C   0  0  0  0  0  0  0  0  0  0  0  0
  -90.3464   29.1124   -3.3130 O   0  0  0  0  0  0  0  0  0  0  0  0
  -89.7472   29.1884   -1.0554 C   0  0  0  0  0  0  0  0  0  0  0  0
  -88.7165   28.4090   -0.6456 C   0  0  0  0  0  0  0  0  0  0  0  0
  -88.6954   27.7503    0.6058 C   0  0  0  0  0  0  0  0  0  0  0  0
  -89.7260   27.8595    1.4941 C   0  0  0  0  0  0  0  0  0  0  0  0
  -90.7776   28.6462    1.0947 C   0  0  0  0  0  0  0  0  0  0  0  0
  -90.8104   29.2878   -0.1122 C   0  0  0  0  0  0  0  0  0  0  0  0
  -89.7120   27.1866    2.7821 C   0  0  0  0  0  0  0  0  0  0  0  0
  -89.3206   25.8886    2.9406 C   0  0  0  0  0  0  0  0  0  0  0  0
  -89.3209   25.2890    4.1659 C   0  0  0  0  0  0  0  0  0  0  0  0
  -89.7267   26.0047    5.2868 C   0  0  0  0  0  0  0  0  0  0  0  0
  -90.1301   27.3198    5.1711 C   0  0  0  0  0  0  0  0  0  0  0  0
  -90.1139   27.8831    3.9191 C   0  0  0  0  0  0  0  0  0  0  0  0
  -88.2279   34.6586   -4.6370 C   0  0  0  0  0  0  0  0  0  0  0  0
  -87.2073   35.4025   -4.0373 C   0  0  0  0  0  0  0  0  0  0  0  0
  -86.6761   36.4800   -4.7109 C   0  0  0  0  0  0  0  0  0  0  0  0
  -87.1225   36.8422   -5.9548 C   0  0  0  0  0  0  0  0  0  0  0  0
  -88.1200   36.1160   -6.5421 C   0  0  0  0  0  0  0  0  0  0  0  0
  -88.6836   35.0131   -5.8850 C   0  0  0  0  0  0  0  0  0  0  0  0
  1  2  1  0  0  0
  2  3  1  0  0  0
  3  4  1  0  0  0
  4  5  1  0  0  0
  5  6  1  0  0  0
  6  7  1  0  0  0
  7  8  1  0  0  0
  8  9  2  0  0  0
  8 10  1  0  0  0
 10 11  2  0  0  0
 11 12  1  0  0  0
 12 13  2  0  0  0
 13 14  1  0  0  0
 14 15  2  0  0  0
 13 16  1  0  0  0
 16 17  2  0  0  0
 17 18  1  0  0  0
 18 19  2  0  0  0
 19 20  1  0  0  0
 20 21  2  0  0  0
  4 22  1  0  0  0
 22 23  2  0  0  0
 23 24  1  0  0  0
 24 25  2  0  0  0
 25 26  1  0  0  0
 26 27  2  0  0  0
  7  2  1  0  0  0
 15 10  1  0  0  0
 21 16  1  0  0  0
 27 22  1  0  0  0
M  END
> <minimizedAffinity>
-8.01531

> <CNNscore>
0.2366384268

> <CNNaffinity>
5.4461579323

> <CNN_VS>
1.2887701988

> <CNNaffinity_variance>
0.0565664768

$$$$
[H]c1c([H])c([H])c(-c2c([H])c([H])c(C(=O)N3C([H])([H])C([H])([H])N(c4c([H])c([H])c([H])c([H])c4[H])C([H])([H])[C@]3([H])C([H])([H])[H])c([H])c2[H])c([H])c1[H]


 27 30  0  0  0  0  0  0  0  0999 V2000
  -87.6076   32.8945   -4.3858 C   0  0  0  0  0  0  0  0  0  0  0  0
  -88.7045   33.3178   -3.4326 C   0  0  0  0  0  0  0  0  0  0  0  0
  -89.4584   34.4460   -4.1952 C   0  0  0  0  0  0  0  0  0  0  0  0
  -90.1672   33.9125   -5.3114 N   0  0  0  0  0  0  0  0  0  0  0  0
  -90.7078   32.5708   -5.1897 C   0  0  0  0  0  0  0  0  0  0  0  0
  -90.9664   32.3356   -3.7156 C   0  0  0  0  0  0  0  0  0  0  0  0
  -89.6061   32.2935   -3.0595 N   0  0  0  0  0  0  0  0  0  0  0  0
  -89.4450   31.2520   -2.1785 C   0  0  0  0  0  0  0  0  0  0  0  0
  -90.5096   30.4527   -2.0905 O   0  0  0  0  0  0  0  0  0  0  0  0
  -88.3362   30.8712   -1.3406 C   0  0  0  0  0  0  0  0  0  0  0  0
  -87.5372   31.6768   -0.5987 C   0  0  0  0  0  0  0  0  0  0  0  0
  -86.4461   31.1955    0.1616 C   0  0  0  0  0  0  0  0  0  0  0  0
  -86.1237   29.8696    0.1984 C   0  0  0  0  0  0  0  0  0  0  0  0
  -86.9238   29.0398   -0.5469 C   0  0  0  0  0  0  0  0  0  0  0  0
  -87.9809   29.4924   -1.2864 C   0  0  0  0  0  0  0  0  0  0  0  0
  -85.0049   29.3667    0.9776 C   0  0  0  0  0  0  0  0  0  0  0  0
  -85.0673   28.2216    1.7180 C   0  0  0  0  0  0  0  0  0  0  0  0
  -83.9963   27.7798    2.4382 C   0  0  0  0  0  0  0  0  0  0  0  0
  -82.8085   28.5025    2.4267 C   0  0  0  0  0  0  0  0  0  0  0  0
  -82.7024   29.6659    1.6912 C   0  0  0  0  0  0  0  0  0  0  0  0
  -83.8048   30.0733    0.9814 C   0  0  0  0  0  0  0  0  0  0  0  0
  -90.3805   34.6194   -6.5204 C   0  0  0  0  0  0  0  0  0  0  0  0
  -89.7997   35.8749   -6.7229 C   0  0  0  0  0  0  0  0  0  0  0  0
  -90.0193   36.5333   -7.9125 C   0  0  0  0  0  0  0  0  0  0  0  0
  -90.7932   35.9890   -8.9038 C   0  0  0  0  0  0  0  0  0  0  0  0
  -91.3615   34.7619   -8.7073 C   0  0  0  0  0  0  0  0  0  0  0  0
  -91.1589   34.0637   -7.5084 C   0  0  0  0  0  0  0  0  0  0  0  0
  1  2  1  0  0  0
  2  3  1  0  0  0
  3  4  1  0  0  0
  4  5  1  0  0  0
  5  6  1  0  0  0
  6  7  1  0  0  0
  7  8  1  0  0  0
  8  9  2  0  0  0
  8 10  1  0  0  0
 10 11  2  0  0  0
 11 12  1  0  0  0
 12 13  2  0  0  0
 13 14  1  0  0  0
 14 15  2  0  0  0
 13 16  1  0  0  0
 16 17  2  0  0  0
 17 18  1  0  0  0
 18 19  2  0  0  0
 19 20  1  0  0  0
 20 21  2  0  0  0
  4 22  1  0  0  0
 22 23  2  0  0  0
 23 24  1  0  0  0
 24 25  2  0  0  0
 25 26  1  0  0  0
 26 27  2  0  0  0
  7  2  1  0  0  0
 15 10  1  0  0  0
 21 16  1  0  0  0
 27 22  1  0  0  0
M  END
> <minimizedAffinity>
-9.53724

> <CNNscore>
0.1621557772

> <CNNaffinity>
5.2283658981

> <CNN_VS>
0.8478097320

> <CNNaffinity_variance>
0.1583292186

$$$$
[H]c1c([H])c([H])c(-c2c([H])c([H])c(C(=O)N3C([H])([H])C([H])([H])N(c4c([H])c([H])c([H])c([H])c4[H])C([H])([H])[C@]3([H])C([H])([H])[H])c([H])c2[H])c([H])c1[H]


 27 30  0  0  0  0  0  0  0  0999 V2000
  -91.8421   27.9085   -0.7816 C   0  0  0  0  0  0  0  0  0  0  0  0
  -91.2742   29.2262   -0.2996 C   0  0  0  0  0  0  0  0  0  0  0  0
  -91.0132   28.9971    1.2176 C   0  0  0  0  0  0  0  0  0  0  0  0
  -89.9422   28.0759    1.4109 N   0  0  0  0  0  0  0  0  0  0  0  0
  -88.8668   28.0761    0.4358 C   0  0  0  0  0  0  0  0  0  0  0  0
  -88.8087   29.4717   -0.1508 C   0  0  0  0  0  0  0  0  0  0  0  0
  -90.0842   29.6400   -0.9430 N   0  0  0  0  0  0  0  0  0  0  0  0
  -89.8971   30.1842   -2.1902 C   0  0  0  0  0  0  0  0  0  0  0  0
  -88.6193   30.4332   -2.4820 O   0  0  0  0  0  0  0  0  0  0  0  0
  -90.8302   30.5285   -3.2331 C   0  0  0  0  0  0  0  0  0  0  0  0
  -91.8580   29.7846   -3.7103 C   0  0  0  0  0  0  0  0  0  0  0  0
  -92.6926   30.2090   -4.7703 C   0  0  0  0  0  0  0  0  0  0  0  0
  -92.5145   31.4127   -5.3888 C   0  0  0  0  0  0  0  0  0  0  0  0
  -91.4782   32.1790   -4.9166 C   0  0  0  0  0  0  0  0  0  0  0  0
  -90.6641   31.7801   -3.8933 C   0  0  0  0  0  0  0  0  0  0  0  0
  -93.3680   31.8567   -6.4781 C   0  0  0  0  0  0  0  0  0  0  0  0
  -94.4454   31.1439   -6.9187 C   0  0  0  0  0  0  0  0  0  0  0  0
  -95.2244   31.5918   -7.9452 C   0  0  0  0  0  0  0  0  0  0  0  0
  -94.9252   32.7999   -8.5652 C   0  0  0  0  0  0  0  0  0  0  0  0
  -93.8447   33.5523   -8.1507 C   0  0  0  0  0  0  0  0  0  0  0  0
  -93.0883   33.0636   -7.1144 C   0  0  0  0  0  0  0  0  0  0  0  0
  -89.8654   27.1742    2.5007 C   0  0  0  0  0  0  0  0  0  0  0  0
  -88.9258   26.1388    2.5032 C   0  0  0  0  0  0  0  0  0  0  0  0
  -88.8707   25.2836    3.5814 C   0  0  0  0  0  0  0  0  0  0  0  0
  -89.7138   25.4213    4.6528 C   0  0  0  0  0  0  0  0  0  0  0  0
  -90.6325   26.4328    4.6518 C   0  0  0  0  0  0  0  0  0  0  0  0
  -90.7164   27.3217    3.5708 C   0  0  0  0  0  0  0  0  0  0  0  0
  1  2  1  0  0  0
  2  3  1  0  0  0
  3  4  1  0  0  0
  4  5  1  0  0  0
  5  6  1  0  0  0
  6  7  1  0  0  0
  7  8  1  0  0  0
  8  9  2  0  0  0
  8 10  1  0  0  0
 10 11  2  0  0  0
 11 12  1  0  0  0
 12 13  2  0  0  0
 13 14  1  0  0  0
 14 15  2  0  0  0
 13 16  1  0  0  0
 16 17  2  0  0  0
 17 18  1  0  0  0
 18 19  2  0  0  0
 19 20  1  0  0  0
 20 21  2  0  0  0
  4 22  1  0  0  0
 22 23  2  0  0  0
 23 24  1  0  0  0
 24 25  2  0  0  0
 25 26  1  0  0  0
 26 27  2  0  0  0
  7  2  1  0  0  0
 15 10  1  0  0  0
 21 16  1  0  0  0
 27 22  1  0  0  0
M  END
> <minimizedAffinity>
-6.16344

> <CNNscore>
0.1448595822

> <CNNaffinity>
4.7423605919

> <CNN_VS>
0.6869763732

> <CNNaffinity_variance>
0.1744749993

$$$$
[H]c1c([H])c([H])c(-c2c([H])c([H])c(C(=O)N3C([H])([H])C([H])([H])N(c4c([H])c([H])c([H])c([H])c4[H])C([H])([H])[C@]3([H])C([H])([H])[H])c([H])c2[H])c([H])c1[H]


 27 30  0  0  0  0  0  0  0  0999 V2000
  -88.9803   25.5040   -1.4265 C   0  0  0  0  0  0  0  0  0  0  0  0
  -89.8760   26.1374   -0.3836 C   0  0  0  0  0  0  0  0  0  0  0  0
  -91.2936   25.5847   -0.7114 C   0  0  0  0  0  0  0  0  0  0  0  0
  -91.3699   24.1907   -0.4217 N   0  0  0  0  0  0  0  0  0  0  0  0
  -90.5858   23.6882    0.6919 C   0  0  0  0  0  0  0  0  0  0  0  0
  -90.4165   24.8395    1.6620 C   0  0  0  0  0  0  0  0  0  0  0  0
  -89.5364   25.8461    0.9584 N   0  0  0  0  0  0  0  0  0  0  0  0
  -88.5223   26.3420    1.7411 C   0  0  0  0  0  0  0  0  0  0  0  0
  -88.4843   25.8180    2.9674 O   0  0  0  0  0  0  0  0  0  0  0  0
  -87.4977   27.3191    1.4726 C   0  0  0  0  0  0  0  0  0  0  0  0
  -86.1965   27.2876    1.8516 C   0  0  0  0  0  0  0  0  0  0  0  0
  -85.2820   28.3273    1.5635 C   0  0  0  0  0  0  0  0  0  0  0  0
  -85.6562   29.4446    0.8746 C   0  0  0  0  0  0  0  0  0  0  0  0
  -86.9708   29.4918    0.4824 C   0  0  0  0  0  0  0  0  0  0  0  0
  -87.8648   28.4939    0.7550 C   0  0  0  0  0  0  0  0  0  0  0  0
  -84.7228   30.5170    0.5737 C   0  0  0  0  0  0  0  0  0  0  0  0
  -83.3888   30.4443    0.8538 C   0  0  0  0  0  0  0  0  0  0  0  0
  -82.5417   31.4718    0.5574 C   0  0  0  0  0  0  0  0  0  0  0  0
  -83.0351   32.6246   -0.0434 C   0  0  0  0  0  0  0  0  0  0  0  0
  -84.3775   32.7394   -0.3438 C   0  0  0  0  0  0  0  0  0  0  0  0
  -85.1935   31.6813   -0.0283 C   0  0  0  0  0  0  0  0  0  0  0  0
  -92.1718   23.2773   -1.1495 C   0  0  0  0  0  0  0  0  0  0  0  0
  -92.2280   23.3346   -2.5453 C   0  0  0  0  0  0  0  0  0  0  0  0
  -93.0105   22.4273   -3.2244 C   0  0  0  0  0  0  0  0  0  0  0  0
  -93.7363   21.4688   -2.5668 C   0  0  0  0  0  0  0  0  0  0  0  0
  -93.6823   21.4116   -1.2026 C   0  0  0  0  0  0  0  0  0  0  0  0
  -92.8960   22.3196   -0.4793 C   0  0  0  0  0  0  0  0  0  0  0  0
  1  2  1  0  0  0
  2  3  1  0  0  0
  3  4  1  0  0  0
  4  5  1  0  0  0
  5  6  1  0  0  0
  6  7  1  0  0  0
  7  8  1  0  0  0
  8  9  2  0  0  0
  8 10  1  0  0  0
 10 11  2  0  0  0
 11 12  1  0  0  0
 12 13  2  0  0  0
 13 14  1  0  0  0
 14 15  2  0  0  0
 13 16  1  0  0  0
 16 17  2  0  0  0
 17 18  1  0  0  0
 18 19  2  0  0  0
 19 20  1  0  0  0
 20 21  2  0  0  0
  4 22  1  0  0  0
 22 23  2  0  0  0
 23 24  1  0  0  0
 24 25  2  0  0  0
 25 26  1  0  0  0
 26 27  2  0  0  0
  7  2  1  0  0  0
 15 10  1  0  0  0
 21 16  1  0  0  0
 27 22  1  0  0  0
M  END
> <minimizedAffinity>
-9.00403

> <CNNscore>
0.1431121528

> <CNNaffinity>
5.2431960106

> <CNN_VS>
0.7503650784

> <CNNaffinity_variance>
0.2865146995

$$$$
[H]c1c([H])c([H])c(-c2c([H])c([H])c(C(=O)N3C([H])([H])C([H])([H])N(c4c([H])c([H])c([H])c([H])c4[H])C([H])([H])[C@]3([H])C([H])([H])[H])c([H])c2[H])c([H])c1[H]


 27 30  0  0  0  0  0  0  0  0999 V2000
  -87.7871   32.7807   -0.9016 C   0  0  0  0  0  0  0  0  0  0  0  0
  -88.8940   32.2120   -1.7633 C   0  0  0  0  0  0  0  0  0  0  0  0
  -89.3051   33.3957   -2.6866 C   0  0  0  0  0  0  0  0  0  0  0  0
  -88.2676   33.6906   -3.6192 N   0  0  0  0  0  0  0  0  0  0  0  0
  -87.4555   32.5866   -4.0976 C   0  0  0  0  0  0  0  0  0  0  0  0
  -88.3163   31.3427   -4.0153 C   0  0  0  0  0  0  0  0  0  0  0  0
  -88.5331   31.0875   -2.5420 N   0  0  0  0  0  0  0  0  0  0  0  0
  -88.3497   29.7777   -2.1711 C   0  0  0  0  0  0  0  0  0  0  0  0
  -87.9828   28.9807   -3.1761 O   0  0  0  0  0  0  0  0  0  0  0  0
  -88.4797   29.1176   -0.8967 C   0  0  0  0  0  0  0  0  0  0  0  0
  -87.5043   28.5364   -0.1560 C   0  0  0  0  0  0  0  0  0  0  0  0
  -87.7534   27.8789    1.0711 C   0  0  0  0  0  0  0  0  0  0  0  0
  -89.0099   27.7871    1.5963 C   0  0  0  0  0  0  0  0  0  0  0  0
  -90.0094   28.3716    0.8589 C   0  0  0  0  0  0  0  0  0  0  0  0
  -89.7819   29.0095   -0.3287 C   0  0  0  0  0  0  0  0  0  0  0  0
  -89.2745   27.1141    2.8569 C   0  0  0  0  0  0  0  0  0  0  0  0
  -89.0644   25.7788    3.0472 C   0  0  0  0  0  0  0  0  0  0  0  0
  -89.3247   25.1804    4.2452 C   0  0  0  0  0  0  0  0  0  0  0  0
  -89.8155   25.9359    5.3043 C   0  0  0  0  0  0  0  0  0  0  0  0
  -90.0421   27.2893    5.1547 C   0  0  0  0  0  0  0  0  0  0  0  0
  -89.7661   27.8499    3.9322 C   0  0  0  0  0  0  0  0  0  0  0  0
  -87.9949   34.9915   -4.1093 C   0  0  0  0  0  0  0  0  0  0  0  0
  -87.7848   35.2085   -5.4743 C   0  0  0  0  0  0  0  0  0  0  0  0
  -87.5300   36.4863   -5.9206 C   0  0  0  0  0  0  0  0  0  0  0  0
  -87.4770   37.5516   -5.0603 C   0  0  0  0  0  0  0  0  0  0  0  0
  -87.6823   37.3411   -3.7259 C   0  0  0  0  0  0  0  0  0  0  0  0
  -87.9442   36.0534   -3.2370 C   0  0  0  0  0  0  0  0  0  0  0  0
  1  2  1  0  0  0
  2  3  1  0  0  0
  3  4  1  0  0  0
  4  5  1  0  0  0
  5  6  1  0  0  0
  6  7  1  0  0  0
  7  8  1  0  0  0
  8  9  2  0  0  0
  8 10  1  0  0  0
 10 11  2  0  0  0
 11 12  1  0  0  0
 12 13  2  0  0  0
 13 14  1  0  0  0
 14 15  2  0  0  0
 13 16  1  0  0  0
 16 17  2  0  0  0
 17 18  1  0  0  0
 18 19  2  0  0  0
 19 20  1  0  0  0
 20 21  2  0  0  0
  4 22  1  0  0  0
 22 23  2  0  0  0
 23 24  1  0  0  0
 24 25  2  0  0  0
 25 26  1  0  0  0
 26 27  2  0  0  0
  7  2  1  0  0  0
 15 10  1  0  0  0
 21 16  1  0  0  0
 27 22  1  0  0  0
M  END
> <minimizedAffinity>
-8.50238

> <CNNscore>
0.1266641617

> <CNNaffinity>
5.2528867722

> <CNN_VS>
0.6653525233

> <CNNaffinity_variance>
0.1787042320

$$$$
[H]c1c([H])c([H])c(-c2c([H])c([H])c(C(=O)N3C([H])([H])C([H])([H])N(c4c([H])c([H])c([H])c([H])c4[H])C([H])([H])[C@]3([H])C([H])([H])[H])c([H])c2[H])c([H])c1[H]


 27 30  0  0  0  0  0  0  0  0999 V2000
  -89.2720   31.2450   -4.4866 C   0  0  0  0  0  0  0  0  0  0  0  0
  -90.2687   31.9693   -3.6074 C   0  0  0  0  0  0  0  0  0  0  0  0
  -89.9026   33.4729   -3.7741 C   0  0  0  0  0  0  0  0  0  0  0  0
  -90.2190   33.9255   -5.0886 N   0  0  0  0  0  0  0  0  0  0  0  0
  -91.3702   33.3355   -5.7473 C   0  0  0  0  0  0  0  0  0  0  0  0
  -92.3210   32.8938   -4.6536 C   0  0  0  0  0  0  0  0  0  0  0  0
  -91.6279   31.7580   -3.9380 N   0  0  0  0  0  0  0  0  0  0  0  0
  -92.4353   30.6713   -3.7054 C   0  0  0  0  0  0  0  0  0  0  0  0
  -93.6731   30.8092   -4.1837 O   0  0  0  0  0  0  0  0  0  0  0  0
  -92.1827   29.4165   -3.0435 C   0  0  0  0  0  0  0  0  0  0  0  0
  -92.0271   29.1914   -1.7158 C   0  0  0  0  0  0  0  0  0  0  0  0
  -91.7425   27.9155   -1.1761 C   0  0  0  0  0  0  0  0  0  0  0  0
  -91.6053   26.8129   -1.9690 C   0  0  0  0  0  0  0  0  0  0  0  0
  -91.7609   27.0235   -3.3165 C   0  0  0  0  0  0  0  0  0  0  0  0
  -92.0356   28.2517   -3.8507 C   0  0  0  0  0  0  0  0  0  0  0  0
  -91.3137   25.4982   -1.4226 C   0  0  0  0  0  0  0  0  0  0  0  0
  -91.9789   24.9713   -0.3535 C   0  0  0  0  0  0  0  0  0  0  0  0
  -91.6775   23.7330    0.1331 C   0  0  0  0  0  0  0  0  0  0  0  0
  -90.6724   22.9802   -0.4639 C   0  0  0  0  0  0  0  0  0  0  0  0
  -89.9750   23.4753   -1.5475 C   0  0  0  0  0  0  0  0  0  0  0  0
  -90.3114   24.7256   -2.0040 C   0  0  0  0  0  0  0  0  0  0  0  0
  -89.4829   34.9203   -5.7781 C   0  0  0  0  0  0  0  0  0  0  0  0
  -88.1668   35.2154   -5.4098 C   0  0  0  0  0  0  0  0  0  0  0  0
  -87.4749   36.1821   -6.1051 C   0  0  0  0  0  0  0  0  0  0  0  0
  -88.0435   36.8630   -7.1496 C   0  0  0  0  0  0  0  0  0  0  0  0
  -89.3297   36.5756   -7.5106 C   0  0  0  0  0  0  0  0  0  0  0  0
  -90.0635   35.5974   -6.8247 C   0  0  0  0  0  0  0  0  0  0  0  0
  1  2  1  0  0  0
  2  3  1  0  0  0
  3  4  1  0  0  0
  4  5  1  0  0  0
  5  6  1  0  0  0
  6  7  1  0  0  0
  7  8  1  0  0  0
  8  9  2  0  0  0
  8 10  1  0  0  0
 10 11  2  0  0  0
 11 12  1  0  0  0
 12 13  2  0  0  0
 13 14  1  0  0  0
 14 15  2  0  0  0
 13 16  1  0  0  0
 16 17  2  0  0  0
 17 18  1  0  0  0
 18 19  2  0  0  0
 19 20  1  0  0  0
 20 21  2  0  0  0
  4 22  1  0  0  0
 22 23  2  0  0  0
 23 24  1  0  0  0
 24 25  2  0  0  0
 25 26  1  0  0  0
 26 27  2  0  0  0
  7  2  1  0  0  0
 15 10  1  0  0  0
 21 16  1  0  0  0
 27 22  1  0  0  0
M  END
> <minimizedAffinity>
-5.85784

> <CNNscore>
0.1261959970

> <CNNaffinity>
4.4144530296

> <CNN_VS>
0.5570862889

> <CNNaffinity_variance>
0.2531234622

$$$$
[H]c1c([H])c([H])c(-c2c([H])c([H])c(C(=O)N3C([H])([H])C([H])([H])N(c4c([H])c([H])c([H])c([H])c4[H])C([H])([H])[C@]3([H])C([H])([H])[H])c([H])c2[H])c([H])c1[H]


 27 30  0  0  0  0  0  0  0  0999 V2000
  -89.6230   25.5338   -1.7728 C   0  0  0  0  0  0  0  0  0  0  0  0
  -90.2505   26.7608   -2.3986 C   0  0  0  0  0  0  0  0  0  0  0  0
  -91.2692   26.1866   -3.4259 C   0  0  0  0  0  0  0  0  0  0  0  0
  -92.3574   25.5540   -2.7562 N   0  0  0  0  0  0  0  0  0  0  0  0
  -92.7775   26.1047   -1.4804 C   0  0  0  0  0  0  0  0  0  0  0  0
  -92.4155   27.5757   -1.4987 C   0  0  0  0  0  0  0  0  0  0  0  0
  -90.9056   27.6294   -1.4944 N   0  0  0  0  0  0  0  0  0  0  0  0
  -90.3833   28.5331   -0.6013 C   0  0  0  0  0  0  0  0  0  0  0  0
  -91.3068   29.1723    0.1188 O   0  0  0  0  0  0  0  0  0  0  0  0
  -89.0238   28.9078   -0.3049 C   0  0  0  0  0  0  0  0  0  0  0  0
  -88.0768   28.1742    0.3296 C   0  0  0  0  0  0  0  0  0  0  0  0
  -86.7769   28.6600    0.6029 C   0  0  0  0  0  0  0  0  0  0  0  0
  -86.3869   29.9164    0.2391 C   0  0  0  0  0  0  0  0  0  0  0  0
  -87.3341   30.6724   -0.4056 C   0  0  0  0  0  0  0  0  0  0  0  0
  -88.5940   30.2148   -0.6752 C   0  0  0  0  0  0  0  0  0  0  0  0
  -85.0531   30.4230    0.5153 C   0  0  0  0  0  0  0  0  0  0  0  0
  -84.1319   29.7345    1.2505 C   0  0  0  0  0  0  0  0  0  0  0  0
  -82.8885   30.2420    1.4903 C   0  0  0  0  0  0  0  0  0  0  0  0
  -82.5388   31.4873    0.9804 C   0  0  0  0  0  0  0  0  0  0  0  0
  -83.4402   32.2169    0.2315 C   0  0  0  0  0  0  0  0  0  0  0  0
  -84.6798   31.6679    0.0149 C   0  0  0  0  0  0  0  0  0  0  0  0
  -93.0532   24.4317   -3.2692 C   0  0  0  0  0  0  0  0  0  0  0  0
  -94.1770   24.6020   -4.0833 C   0  0  0  0  0  0  0  0  0  0  0  0
  -94.8268   23.4909   -4.5733 C   0  0  0  0  0  0  0  0  0  0  0  0
  -94.4000   22.2215   -4.2831 C   0  0  0  0  0  0  0  0  0  0  0  0
  -93.3018   22.0536   -3.4875 C   0  0  0  0  0  0  0  0  0  0  0  0
  -92.6161   23.1624   -2.9716 C   0  0  0  0  0  0  0  0  0  0  0  0
  1  2  1  0  0  0
  2  3  1  0  0  0
  3  4  1  0  0  0
  4  5  1  0  0  0
  5  6  1  0  0  0
  6  7  1  0  0  0
  7  8  1  0  0  0
  8  9  2  0  0  0
  8 10  1  0  0  0
 10 11  2  0  0  0
 11 12  1  0  0  0
 12 13  2  0  0  0
 13 14  1  0  0  0
 14 15  2  0  0  0
 13 16  1  0  0  0
 16 17  2  0  0  0
 17 18  1  0  0  0
 18 19  2  0  0  0
 19 20  1  0  0  0
 20 21  2  0  0  0
  4 22  1  0  0  0
 22 23  2  0  0  0
 23 24  1  0  0  0
 24 25  2  0  0  0
 25 26  1  0  0  0
 26 27  2  0  0  0
  7  2  1  0  0  0
 15 10  1  0  0  0
 21 16  1  0  0  0
 27 22  1  0  0  0
M  END
> <minimizedAffinity>
-8.66212

> <CNNscore>
0.1216329783

> <CNNaffinity>
4.9723896980

> <CNN_VS>
0.6048065424

> <CNNaffinity_variance>
0.2741572559

$$$$
[H]c1c([H])c([H])c(-c2c([H])c([H])c(C(=O)N3C([H])([H])C([H])([H])N(c4c([H])c([H])c([H])c([H])c4[H])C([H])([H])[C@]3([H])C([H])([H])[H])c([H])c2[H])c([H])c1[H]


 27 30  0  0  0  0  0  0  0  0999 V2000
  -89.6294   30.9124   -0.6231 C   0  0  0  0  0  0  0  0  0  0  0  0
  -88.2204   30.5890   -1.0717 C   0  0  0  0  0  0  0  0  0  0  0  0
  -87.8507   29.3054   -0.2728 C   0  0  0  0  0  0  0  0  0  0  0  0
  -88.6151   28.1913   -0.7280 N   0  0  0  0  0  0  0  0  0  0  0  0
  -88.9730   28.1469   -2.1342 C   0  0  0  0  0  0  0  0  0  0  0  0
  -87.9056   28.9198   -2.8816 C   0  0  0  0  0  0  0  0  0  0  0  0
  -88.0681   30.3614   -2.4596 N   0  0  0  0  0  0  0  0  0  0  0  0
  -88.0380   31.2537   -3.5035 C   0  0  0  0  0  0  0  0  0  0  0  0
  -87.9029   30.6778   -4.6993 O   0  0  0  0  0  0  0  0  0  0  0  0
  -88.1289   32.6916   -3.5353 C   0  0  0  0  0  0  0  0  0  0  0  0
  -87.1220   33.5927   -3.4265 C   0  0  0  0  0  0  0  0  0  0  0  0
  -87.3322   34.9913   -3.4326 C   0  0  0  0  0  0  0  0  0  0  0  0
  -88.5803   35.5310   -3.5512 C   0  0  0  0  0  0  0  0  0  0  0  0
  -89.6113   34.6318   -3.6634 C   0  0  0  0  0  0  0  0  0  0  0  0
  -89.4216   33.2779   -3.6584 C   0  0  0  0  0  0  0  0  0  0  0  0
  -88.8049   36.9668   -3.5592 C   0  0  0  0  0  0  0  0  0  0  0  0
  -89.9241   37.5431   -4.0870 C   0  0  0  0  0  0  0  0  0  0  0  0
  -90.1008   38.8957   -4.0774 C   0  0  0  0  0  0  0  0  0  0  0  0
  -89.1270   39.7174   -3.5208 C   0  0  0  0  0  0  0  0  0  0  0  0
  -87.9800   39.1758   -2.9761 C   0  0  0  0  0  0  0  0  0  0  0  0
  -87.8437   37.8100   -3.0072 C   0  0  0  0  0  0  0  0  0  0  0  0
  -89.0324   27.1272    0.1089 C   0  0  0  0  0  0  0  0  0  0  0  0
  -89.5726   25.9600   -0.4395 C   0  0  0  0  0  0  0  0  0  0  0  0
  -89.9613   24.9401    0.4004 C   0  0  0  0  0  0  0  0  0  0  0  0
  -89.8323   25.0397    1.7610 C   0  0  0  0  0  0  0  0  0  0  0  0
  -89.3044   26.1798    2.2983 C   0  0  0  0  0  0  0  0  0  0  0  0
  -88.8982   27.2379    1.4729 C   0  0  0  0  0  0  0  0  0  0  0  0
  1  2  1  0  0  0
  2  3  1  0  0  0
  3  4  1  0  0  0
  4  5  1  0  0  0
  5  6  1  0  0  0
  6  7  1  0  0  0
  7  8  1  0  0  0
  8  9  2  0  0  0
  8 10  1  0  0  0
 10 11  2  0  0  0
 11 12  1  0  0  0
 12 13  2  0  0  0
 13 14  1  0  0  0
 14 15  2  0  0  0
 13 16  1  0  0  0
 16 17  2  0  0  0
 17 18  1  0  0  0
 18 19  2  0  0  0
 19 20  1  0  0  0
 20 21  2  0  0  0
  4 22  1  0  0  0
 22 23  2  0  0  0
 23 24  1  0  0  0
 24 25  2  0  0  0
 25 26  1  0  0  0
 26 27  2  0  0  0
  7  2  1  0  0  0
 15 10  1  0  0  0
 21 16  1  0  0  0
 27 22  1  0  0  0
M  END
> <minimizedAffinity>
-8.14989

> <CNNscore>
0.1201376468

> <CNNaffinity>
5.0326843262

> <CNN_VS>
0.6046148539

> <CNNaffinity_variance>
0.2708564103

$$$$
[H]c1c([H])c([H])c(C(=O)N2C([H])([H])C([H])([H])N(C(=O)c3c([H])c([H])c(-c4c([H])c([H])c([H])c([H])c4[H])c([H])c3[H])[C@]([H])(C([H])([H])[H])C2([H])[H])c([H])c1[H]


 29 32  0  0  0  0  0  0  0  0999 V2000
  -90.0854   30.9195   -1.9085 C   0  0  0  0  0  0  0  0  0  0  0  0
  -88.9342   30.9802   -2.8725 C   0  0  0  0  0  0  0  0  0  0  0  0
  -89.5394   31.3131   -4.2657 C   0  0  0  0  0  0  0  0  0  0  0  0
  -90.5278   30.2556   -4.6125 N   0  0  0  0  0  0  0  0  0  0  0  0
  -90.0870   28.9305   -4.4751 C   0  0  0  0  0  0  0  0  0  0  0  0
  -88.6051   28.8835   -4.1457 C   0  0  0  0  0  0  0  0  0  0  0  0
  -88.2814   29.7198   -2.9475 N   0  0  0  0  0  0  0  0  0  0  0  0
  -87.3674   29.1671   -2.0892 C   0  0  0  0  0  0  0  0  0  0  0  0
  -86.9687   27.9382   -2.4314 O   0  0  0  0  0  0  0  0  0  0  0  0
  -91.7602   30.7123   -5.0504 C   0  0  0  0  0  0  0  0  0  0  0  0
  -91.8486   32.0373   -5.1031 O   0  0  0  0  0  0  0  0  0  0  0  0
  -86.7548   29.6617   -0.8871 C   0  0  0  0  0  0  0  0  0  0  0  0
  -85.7489   30.5679   -0.7500 C   0  0  0  0  0  0  0  0  0  0  0  0
  -85.2583   30.9789    0.4769 C   0  0  0  0  0  0  0  0  0  0  0  0
  -85.7470   30.5049    1.6670 C   0  0  0  0  0  0  0  0  0  0  0  0
  -86.7647   29.5867    1.5554 C   0  0  0  0  0  0  0  0  0  0  0  0
  -87.2572   29.1732    0.3567 C   0  0  0  0  0  0  0  0  0  0  0  0
  -85.2370   30.9270    2.9595 C   0  0  0  0  0  0  0  0  0  0  0  0
  -84.7910   32.2138    3.1383 C   0  0  0  0  0  0  0  0  0  0  0  0
  -84.3045   32.6357    4.3585 C   0  0  0  0  0  0  0  0  0  0  0  0
  -84.2718   31.7317    5.4140 C   0  0  0  0  0  0  0  0  0  0  0  0
  -84.7103   30.4429    5.2631 C   0  0  0  0  0  0  0  0  0  0  0  0
  -85.1900   30.0606    4.0248 C   0  0  0  0  0  0  0  0  0  0  0  0
  -92.9310   29.9934   -5.4503 C   0  0  0  0  0  0  0  0  0  0  0  0
  -92.9573   28.8243   -6.1209 C   0  0  0  0  0  0  0  0  0  0  0  0
  -94.1563   28.1947   -6.5053 C   0  0  0  0  0  0  0  0  0  0  0  0
  -95.3396   28.7927   -6.1855 C   0  0  0  0  0  0  0  0  0  0  0  0
  -95.3660   29.9821   -5.5030 C   0  0  0  0  0  0  0  0  0  0  0  0
  -94.1897   30.5631   -5.1469 C   0  0  0  0  0  0  0  0  0  0  0  0
  1  2  1  0  0  0
  2  3  1  0  0  0
  3  4  1  0  0  0
  4  5  1  0  0  0
  5  6  1  0  0  0
  6  7  1  0  0  0
  7  8  1  0  0  0
  8  9  2  0  0  0
  8 12  1  0  0  0
 12 13  2  0  0  0
 13 14  1  0  0  0
 14 15  2  0  0  0
 15 16  1  0  0  0
 16 17  2  0  0  0
 15 18  1  0  0  0
 18 19  2  0  0  0
 19 20  1  0  0  0
 20 21  2  0  0  0
 21 22  1  0  0  0
 22 23  2  0  0  0
  4 10  1  0  0  0
 10 11  2  0  0  0
 10 24  1  0  0  0
 24 25  2  0  0  0
 25 26  1  0  0  0
 26 27  2  0  0  0
 27 28  1  0  0  0
 28 29  2  0  0  0
  7  2  1  0  0  0
 17 12  1  0  0  0
 23 18  1  0  0  0
 29 24  1  0  0  0
M  END
> <minimizedAffinity>
9.42554

> <CNNscore>
0.4088259637

> <CNNaffinity>
5.4898691177

> <CNN_VS>
2.2444009781

> <CNNaffinity_variance>
1.5928151608

$$$$
[H]c1c([H])c([H])c(C(=O)N2C([H])([H])C([H])([H])N(C(=O)c3c([H])c([H])c(-c4c([H])c([H])c([H])c([H])c4[H])c([H])c3[H])[C@]([H])(C([H])([H])[H])C2([H])[H])c([H])c1[H]


 29 32  0  0  0  0  0  0  0  0999 V2000
  -87.9258   25.5710   -1.1384 C   0  0  0  0  0  0  0  0  0  0  0  0
  -88.6408   26.7657   -1.7034 C   0  0  0  0  0  0  0  0  0  0  0  0
  -87.5897   27.9079   -1.7979 C   0  0  0  0  0  0  0  0  0  0  0  0
  -87.0408   28.1540   -0.4364 N   0  0  0  0  0  0  0  0  0  0  0  0
  -87.9848   28.3201    0.5884 C   0  0  0  0  0  0  0  0  0  0  0  0
  -89.3942   28.3697    0.0244 C   0  0  0  0  0  0  0  0  0  0  0  0
  -89.6858   27.1778   -0.8324 N   0  0  0  0  0  0  0  0  0  0  0  0
  -90.9438   26.6554   -0.6837 C   0  0  0  0  0  0  0  0  0  0  0  0
  -91.6789   27.2576    0.2562 O   0  0  0  0  0  0  0  0  0  0  0  0
  -85.6592   28.2098   -0.3520 C   0  0  0  0  0  0  0  0  0  0  0  0
  -85.0477   28.0477   -1.5208 O   0  0  0  0  0  0  0  0  0  0  0  0
  -91.6235   25.5790   -1.3502 C   0  0  0  0  0  0  0  0  0  0  0  0
  -92.1440   25.5439   -2.6071 C   0  0  0  0  0  0  0  0  0  0  0  0
  -92.7621   24.4278   -3.1427 C   0  0  0  0  0  0  0  0  0  0  0  0
  -92.9039   23.2542   -2.4482 C   0  0  0  0  0  0  0  0  0  0  0  0
  -92.3861   23.2640   -1.1743 C   0  0  0  0  0  0  0  0  0  0  0  0
  -91.7759   24.3532   -0.6343 C   0  0  0  0  0  0  0  0  0  0  0  0
  -93.5538   22.0784   -2.9998 C   0  0  0  0  0  0  0  0  0  0  0  0
  -93.4635   21.8068   -4.3432 C   0  0  0  0  0  0  0  0  0  0  0  0
  -94.0719   20.6943   -4.8872 C   0  0  0  0  0  0  0  0  0  0  0  0
  -94.7838   19.8444   -4.0487 C   0  0  0  0  0  0  0  0  0  0  0  0
  -94.8896   20.0917   -2.7056 C   0  0  0  0  0  0  0  0  0  0  0  0
  -94.2656   21.2166   -2.2009 C   0  0  0  0  0  0  0  0  0  0  0  0
  -84.8029   28.4137    0.7761 C   0  0  0  0  0  0  0  0  0  0  0  0
  -84.4855   27.4959    1.7111 C   0  0  0  0  0  0  0  0  0  0  0  0
  -83.6570   27.7863    2.8116 C   0  0  0  0  0  0  0  0  0  0  0  0
  -83.1547   29.0481    2.9359 C   0  0  0  0  0  0  0  0  0  0  0  0
  -83.4473   30.0171    2.0103 C   0  0  0  0  0  0  0  0  0  0  0  0
  -84.2507   29.7030    0.9597 C   0  0  0  0  0  0  0  0  0  0  0  0
  1  2  1  0  0  0
  2  3  1  0  0  0
  3  4  1  0  0  0
  4  5  1  0  0  0
  5  6  1  0  0  0
  6  7  1  0  0  0
  7  8  1  0  0  0
  8  9  2  0  0  0
  8 12  1  0  0  0
 12 13  2  0  0  0
 13 14  1  0  0  0
 14 15  2  0  0  0
 15 16  1  0  0  0
 16 17  2  0  0  0
 15 18  1  0  0  0
 18 19  2  0  0  0
 19 20  1  0  0  0
 20 21  2  0  0  0
 21 22  1  0  0  0
 22 23  2  0  0  0
  4 10  1  0  0  0
 10 11  2  0  0  0
 10 24  1  0  0  0
 24 25  2  0  0  0
 25 26  1  0  0  0
 26 27  2  0  0  0
 27 28  1  0  0  0
 28 29  2  0  0  0
  7  2  1  0  0  0
 17 12  1  0  0  0
 23 18  1  0  0  0
 29 24  1  0  0  0
M  END
> <minimizedAffinity>
-0.77664

> <CNNscore>
0.3995297551

> <CNNaffinity>
5.3147649765

> <CNN_VS>
2.1234066486

> <CNNaffinity_variance>
1.1680586338

$$$$
[H]c1c([H])c([H])c(C(=O)N2C([H])([H])C([H])([H])N(C(=O)c3c([H])c([H])c(-c4c([H])c([H])c([H])c([H])c4[H])c([H])c3[H])[C@]([H])(C([H])([H])[H])C2([H])[H])c([H])c1[H]


 29 32  0  0  0  0  0  0  0  0999 V2000
  -90.9073   25.1138   -0.7191 C   0  0  0  0  0  0  0  0  0  0  0  0
  -91.9177   25.7772    0.1735 C   0  0  0  0  0  0  0  0  0  0  0  0
  -93.1848   26.0201   -0.6947 C   0  0  0  0  0  0  0  0  0  0  0  0
  -92.8007   26.8641   -1.8591 N   0  0  0  0  0  0  0  0  0  0  0  0
  -92.0699   28.0252   -1.5648 C   0  0  0  0  0  0  0  0  0  0  0  0
  -91.9744   28.2400   -0.0643 C   0  0  0  0  0  0  0  0  0  0  0  0
  -91.4300   27.0316    0.6306 N   0  0  0  0  0  0  0  0  0  0  0  0
  -90.5480   27.2988    1.6447 C   0  0  0  0  0  0  0  0  0  0  0  0
  -90.2673   28.5964    1.7982 O   0  0  0  0  0  0  0  0  0  0  0  0
  -93.2322   26.4078   -3.0939 C   0  0  0  0  0  0  0  0  0  0  0  0
  -93.9406   25.2852   -3.0285 O   0  0  0  0  0  0  0  0  0  0  0  0
  -89.8664   26.4439    2.5772 C   0  0  0  0  0  0  0  0  0  0  0  0
  -88.5609   26.0601    2.5894 C   0  0  0  0  0  0  0  0  0  0  0  0
  -88.0185   25.2416    3.5643 C   0  0  0  0  0  0  0  0  0  0  0  0
  -88.7550   24.7439    4.6081 C   0  0  0  0  0  0  0  0  0  0  0  0
  -90.0785   25.1171    4.6183 C   0  0  0  0  0  0  0  0  0  0  0  0
  -90.6258   25.9208    3.6671 C   0  0  0  0  0  0  0  0  0  0  0  0
  -88.1963   23.8816    5.6344 C   0  0  0  0  0  0  0  0  0  0  0  0
  -87.7826   24.4128    6.8317 C   0  0  0  0  0  0  0  0  0  0  0  0
  -87.2508   23.6110    7.8205 C   0  0  0  0  0  0  0  0  0  0  0  0
  -87.1386   22.2455    7.5859 C   0  0  0  0  0  0  0  0  0  0  0  0
  -87.5435   21.6898    6.4012 C   0  0  0  0  0  0  0  0  0  0  0  0
  -88.0705   22.5278    5.4370 C   0  0  0  0  0  0  0  0  0  0  0  0
  -93.0404   26.9478   -4.4049 C   0  0  0  0  0  0  0  0  0  0  0  0
  -92.8966   28.2517   -4.7159 C   0  0  0  0  0  0  0  0  0  0  0  0
  -92.7422   28.7054   -6.0396 C   0  0  0  0  0  0  0  0  0  0  0  0
  -92.7375   27.7875   -7.0483 C   0  0  0  0  0  0  0  0  0  0  0  0
  -92.8792   26.4492   -6.7835 C   0  0  0  0  0  0  0  0  0  0  0  0
  -93.0263   26.0452   -5.4939 C   0  0  0  0  0  0  0  0  0  0  0  0
  1  2  1  0  0  0
  2  3  1  0  0  0
  3  4  1  0  0  0
  4  5  1  0  0  0
  5  6  1  0  0  0
  6  7  1  0  0  0
  7  8  1  0  0  0
  8  9  2  0  0  0
  8 12  1  0  0  0
 12 13  2  0  0  0
 13 14  1  0  0  0
 14 15  2  0  0  0
 15 16  1  0  0  0
 16 17  2  0  0  0
 15 18  1  0  0  0
 18 19  2  0  0  0
 19 20  1  0  0  0
 20 21  2  0  0  0
 21 22  1  0  0  0
 22 23  2  0  0  0
  4 10  1  0  0  0
 10 11  2  0  0  0
 10 24  1  0  0  0
 24 25  2  0  0  0
 25 26  1  0  0  0
 26 27  2  0  0  0
 27 28  1  0  0  0
 28 29  2  0  0  0
  7  2  1  0  0  0
 17 12  1  0  0  0
 23 18  1  0  0  0
 29 24  1  0  0  0
M  END
> <minimizedAffinity>
-5.58608

> <CNNscore>
0.3489022255

> <CNNaffinity>
4.8676452637

> <CNN_VS>
1.6983323097

> <CNNaffinity_variance>
0.4289161563

$$$$
[H]c1c([H])c([H])c(C(=O)N2C([H])([H])C([H])([H])N(C(=O)c3c([H])c([H])c(-c4c([H])c([H])c([H])c([H])c4[H])c([H])c3[H])[C@]([H])(C([H])([H])[H])C2([H])[H])c([H])c1[H]


 29 32  0  0  0  0  0  0  0  0999 V2000
  -89.2417   31.5472   -0.6390 C   0  0  0  0  0  0  0  0  0  0  0  0
  -90.0317   31.1887   -1.8659 C   0  0  0  0  0  0  0  0  0  0  0  0
  -91.0319   30.0767   -1.4401 C   0  0  0  0  0  0  0  0  0  0  0  0
  -90.2545   28.9290   -0.8981 N   0  0  0  0  0  0  0  0  0  0  0  0
  -89.1894   28.4760   -1.6914 C   0  0  0  0  0  0  0  0  0  0  0  0
  -89.1760   29.1825   -3.0358 C   0  0  0  0  0  0  0  0  0  0  0  0
  -89.1752   30.6704   -2.8750 N   0  0  0  0  0  0  0  0  0  0  0  0
  -88.3639   31.3439   -3.7501 C   0  0  0  0  0  0  0  0  0  0  0  0
  -87.6531   30.5513   -4.5581 O   0  0  0  0  0  0  0  0  0  0  0  0
  -90.6933   28.4336    0.3190 C   0  0  0  0  0  0  0  0  0  0  0  0
  -91.7602   29.0656    0.7972 O   0  0  0  0  0  0  0  0  0  0  0  0
  -88.1331   32.7461   -3.9634 C   0  0  0  0  0  0  0  0  0  0  0  0
  -88.6087   33.5507   -4.9525 C   0  0  0  0  0  0  0  0  0  0  0  0
  -88.3257   34.9026   -5.0344 C   0  0  0  0  0  0  0  0  0  0  0  0
  -87.5364   35.5513   -4.1201 C   0  0  0  0  0  0  0  0  0  0  0  0
  -87.0425   34.7596   -3.1100 C   0  0  0  0  0  0  0  0  0  0  0  0
  -87.3120   33.4296   -3.0162 C   0  0  0  0  0  0  0  0  0  0  0  0
  -87.2305   36.9688   -4.1989 C   0  0  0  0  0  0  0  0  0  0  0  0
  -86.3780   37.4376   -5.1685 C   0  0  0  0  0  0  0  0  0  0  0  0
  -86.0756   38.7805   -5.2619 C   0  0  0  0  0  0  0  0  0  0  0  0
  -86.6512   39.6604   -4.3526 C   0  0  0  0  0  0  0  0  0  0  0  0
  -87.5045   39.2195   -3.3760 C   0  0  0  0  0  0  0  0  0  0  0  0
  -87.7811   37.8669   -3.3170 C   0  0  0  0  0  0  0  0  0  0  0  0
  -90.1884   27.3654    1.1260 C   0  0  0  0  0  0  0  0  0  0  0  0
  -90.3561   26.0474    0.8982 C   0  0  0  0  0  0  0  0  0  0  0  0
  -89.8513   25.0560    1.7609 C   0  0  0  0  0  0  0  0  0  0  0  0
  -89.1640   25.4459    2.8724 C   0  0  0  0  0  0  0  0  0  0  0  0
  -88.9656   26.7748    3.1479 C   0  0  0  0  0  0  0  0  0  0  0  0
  -89.4665   27.7062    2.2938 C   0  0  0  0  0  0  0  0  0  0  0  0
  1  2  1  0  0  0
  2  3  1  0  0  0
  3  4  1  0  0  0
  4  5  1  0  0  0
  5  6  1  0  0  0
  6  7  1  0  0  0
  7  8  1  0  0  0
  8  9  2  0  0  0
  8 12  1  0  0  0
 12 13  2  0  0  0
 13 14  1  0  0  0
 14 15  2  0  0  0
 15 16  1  0  0  0
 16 17  2  0  0  0
 15 18  1  0  0  0
 18 19  2  0  0  0
 19 20  1  0  0  0
 20 21  2  0  0  0
 21 22  1  0  0  0
 22 23  2  0  0  0
  4 10  1  0  0  0
 10 11  2  0  0  0
 10 24  1  0  0  0
 24 25  2  0  0  0
 25 26  1  0  0  0
 26 27  2  0  0  0
 27 28  1  0  0  0
 28 29  2  0  0  0
  7  2  1  0  0  0
 17 12  1  0  0  0
 23 18  1  0  0  0
 29 24  1  0  0  0
M  END
> <minimizedAffinity>
-7.67291

> <CNNscore>
0.1992288381

> <CNNaffinity>
5.3479166031

> <CNN_VS>
1.0654592514

> <CNNaffinity_variance>
0.2137328088

$$$$
[H]c1c([H])c([H])c(C(=O)N2C([H])([H])C([H])([H])N(C(=O)c3c([H])c([H])c(-c4c([H])c([H])c([H])c([H])c4[H])c([H])c3[H])[C@]([H])(C([H])([H])[H])C2([H])[H])c([H])c1[H]


 29 32  0  0  0  0  0  0  0  0999 V2000
  -87.8738   30.9964   -2.5543 C   0  0  0  0  0  0  0  0  0  0  0  0
  -88.8145   31.7055   -1.6214 C   0  0  0  0  0  0  0  0  0  0  0  0
  -87.9622   32.1855   -0.4125 C   0  0  0  0  0  0  0  0  0  0  0  0
  -87.3192   30.9961    0.2098 N   0  0  0  0  0  0  0  0  0  0  0  0
  -88.1667   29.9142    0.4930 C   0  0  0  0  0  0  0  0  0  0  0  0
  -89.6181   30.2808    0.2361 C   0  0  0  0  0  0  0  0  0  0  0  0
  -89.8141   30.8120   -1.1493 N   0  0  0  0  0  0  0  0  0  0  0  0
  -90.9573   30.3859   -1.7731 C   0  0  0  0  0  0  0  0  0  0  0  0
  -91.6737   29.5088   -1.0634 O   0  0  0  0  0  0  0  0  0  0  0  0
  -85.9603   31.1122    0.4531 C   0  0  0  0  0  0  0  0  0  0  0  0
  -85.4551   32.2895    0.0994 O   0  0  0  0  0  0  0  0  0  0  0  0
  -91.5327   30.7059   -3.0504 C   0  0  0  0  0  0  0  0  0  0  0  0
  -90.9310   30.7629   -4.2697 C   0  0  0  0  0  0  0  0  0  0  0  0
  -91.6079   31.0663   -5.4377 C   0  0  0  0  0  0  0  0  0  0  0  0
  -92.9516   31.3373   -5.4666 C   0  0  0  0  0  0  0  0  0  0  0  0
  -93.5832   31.2865   -4.2462 C   0  0  0  0  0  0  0  0  0  0  0  0
  -92.9313   30.9898   -3.0898 C   0  0  0  0  0  0  0  0  0  0  0  0
  -93.6706   31.6601   -6.6863 C   0  0  0  0  0  0  0  0  0  0  0  0
  -94.7037   30.8602   -7.1103 C   0  0  0  0  0  0  0  0  0  0  0  0
  -95.4008   31.1499   -8.2651 C   0  0  0  0  0  0  0  0  0  0  0  0
  -95.0398   32.2732   -9.0000 C   0  0  0  0  0  0  0  0  0  0  0  0
  -94.0139   33.0878   -8.5999 C   0  0  0  0  0  0  0  0  0  0  0  0
  -93.3412   32.7621   -7.4376 C   0  0  0  0  0  0  0  0  0  0  0  0
  -85.0327   30.1807    1.0180 C   0  0  0  0  0  0  0  0  0  0  0  0
  -85.3300   28.9642    1.5170 C   0  0  0  0  0  0  0  0  0  0  0  0
  -84.3596   28.1173    2.0855 C   0  0  0  0  0  0  0  0  0  0  0  0
  -83.0657   28.5459    2.1325 C   0  0  0  0  0  0  0  0  0  0  0  0
  -82.7123   29.7750    1.6370 C   0  0  0  0  0  0  0  0  0  0  0  0
  -83.6743   30.5678    1.0948 C   0  0  0  0  0  0  0  0  0  0  0  0
  1  2  1  0  0  0
  2  3  1  0  0  0
  3  4  1  0  0  0
  4  5  1  0  0  0
  5  6  1  0  0  0
  6  7  1  0  0  0
  7  8  1  0  0  0
  8  9  2  0  0  0
  8 12  1  0  0  0
 12 13  2  0  0  0
 13 14  1  0  0  0
 14 15  2  0  0  0
 15 16  1  0  0  0
 16 17  2  0  0  0
 15 18  1  0  0  0
 18 19  2  0  0  0
 19 20  1  0  0  0
 20 21  2  0  0  0
 21 22  1  0  0  0
 22 23  2  0  0  0
  4 10  1  0  0  0
 10 11  2  0  0  0
 10 24  1  0  0  0
 24 25  2  0  0  0
 25 26  1  0  0  0
 26 27  2  0  0  0
 27 28  1  0  0  0
 28 29  2  0  0  0
  7  2  1  0  0  0
 17 12  1  0  0  0
 23 18  1  0  0  0
 29 24  1  0  0  0
M  END
> <minimizedAffinity>
-7.36240

> <CNNscore>
0.1979558468

> <CNNaffinity>
5.2985777855

> <CNN_VS>
1.0488845110

> <CNNaffinity_variance>
0.9208905101

$$$$
[H]c1c([H])c([H])c(C(=O)N2C([H])([H])C([H])([H])N(C(=O)c3c([H])c([H])c(-c4c([H])c([H])c([H])c([H])c4[H])c([H])c3[H])[C@]([H])(C([H])([H])[H])C2([H])[H])c([H])c1[H]


 29 32  0  0  0  0  0  0  0  0999 V2000
  -87.9884   28.2326    0.5117 C   0  0  0  0  0  0  0  0  0  0  0  0
  -89.3444   27.6451    0.2396 C   0  0  0  0  0  0  0  0  0  0  0  0
  -89.7631   28.1329   -1.1764 C   0  0  0  0  0  0  0  0  0  0  0  0
  -89.7680   29.6213   -1.1773 N   0  0  0  0  0  0  0  0  0  0  0  0
  -90.4628   30.2364   -0.1248 C   0  0  0  0  0  0  0  0  0  0  0  0
  -91.2059   29.2071    0.7089 C   0  0  0  0  0  0  0  0  0  0  0  0
  -90.2920   28.1221    1.1856 N   0  0  0  0  0  0  0  0  0  0  0  0
  -90.5120   27.7079    2.4731 C   0  0  0  0  0  0  0  0  0  0  0  0
  -91.4641   28.3934    3.1134 O   0  0  0  0  0  0  0  0  0  0  0  0
  -89.1003   30.2188   -2.2339 C   0  0  0  0  0  0  0  0  0  0  0  0
  -88.5735   29.3496   -3.0903 O   0  0  0  0  0  0  0  0  0  0  0  0
  -89.9101   26.6721    3.2666 C   0  0  0  0  0  0  0  0  0  0  0  0
  -89.3887   25.4809    2.8654 C   0  0  0  0  0  0  0  0  0  0  0  0
  -88.8141   24.5712    3.7354 C   0  0  0  0  0  0  0  0  0  0  0  0
  -88.7206   24.7937    5.0851 C   0  0  0  0  0  0  0  0  0  0  0  0
  -89.2410   25.9914    5.5162 C   0  0  0  0  0  0  0  0  0  0  0  0
  -89.8088   26.8953    4.6731 C   0  0  0  0  0  0  0  0  0  0  0  0
  -88.1226   23.8443    6.0070 C   0  0  0  0  0  0  0  0  0  0  0  0
  -88.0249   22.5178    5.6641 C   0  0  0  0  0  0  0  0  0  0  0  0
  -87.4587   21.5998    6.5245 C   0  0  0  0  0  0  0  0  0  0  0  0
  -86.9842   22.0404    7.7546 C   0  0  0  0  0  0  0  0  0  0  0  0
  -87.0691   23.3574    8.1215 C   0  0  0  0  0  0  0  0  0  0  0  0
  -87.6432   24.2443    7.2308 C   0  0  0  0  0  0  0  0  0  0  0  0
  -88.8950   31.6006   -2.5435 C   0  0  0  0  0  0  0  0  0  0  0  0
  -89.6376   32.3468   -3.3855 C   0  0  0  0  0  0  0  0  0  0  0  0
  -89.3497   33.6971   -3.6604 C   0  0  0  0  0  0  0  0  0  0  0  0
  -88.2754   34.2735   -3.0490 C   0  0  0  0  0  0  0  0  0  0  0  0
  -87.4895   33.5568   -2.1831 C   0  0  0  0  0  0  0  0  0  0  0  0
  -87.7956   32.2548   -1.9400 C   0  0  0  0  0  0  0  0  0  0  0  0
  1  2  1  0  0  0
  2  3  1  0  0  0
  3  4  1  0  0  0
  4  5  1  0  0  0
  5  6  1  0  0  0
  6  7  1  0  0  0
  7  8  1  0  0  0
  8  9  2  0  0  0
  8 12  1  0  0  0
 12 13  2  0  0  0
 13 14  1  0  0  0
 14 15  2  0  0  0
 15 16  1  0  0  0
 16 17  2  0  0  0
 15 18  1  0  0  0
 18 19  2  0  0  0
 19 20  1  0  0  0
 20 21  2  0  0  0
 21 22  1  0  0  0
 22 23  2  0  0  0
  4 10  1  0  0  0
 10 11  2  0  0  0
 10 24  1  0  0  0
 24 25  2  0  0  0
 25 26  1  0  0  0
 26 27  2  0  0  0
 27 28  1  0  0  0
 28 29  2  0  0  0
  7  2  1  0  0  0
 17 12  1  0  0  0
 23 18  1  0  0  0
 29 24  1  0  0  0
M  END
> <minimizedAffinity>
-8.32409

> <CNNscore>
0.1788136810

> <CNNaffinity>
5.2758054733

> <CNN_VS>
0.9433861971

> <CNNaffinity_variance>
0.2520084083

$$$$
[H]c1c([H])c([H])c(C(=O)N2C([H])([H])C([H])([H])N(C(=O)c3c([H])c([H])c(-c4c([H])c([H])c([H])c([H])c4[H])c([H])c3[H])[C@]([H])(C([H])([H])[H])C2([H])[H])c([H])c1[H]


 29 32  0  0  0  0  0  0  0  0999 V2000
  -87.4932   34.8774   -2.7331 C   0  0  0  0  0  0  0  0  0  0  0  0
  -87.7051   33.7394   -3.6912 C   0  0  0  0  0  0  0  0  0  0  0  0
  -88.0589   34.3762   -5.0651 C   0  0  0  0  0  0  0  0  0  0  0  0
  -89.2732   35.2195   -4.8924 N   0  0  0  0  0  0  0  0  0  0  0  0
  -90.3573   34.6133   -4.2397 C   0  0  0  0  0  0  0  0  0  0  0  0
  -90.0870   33.1389   -3.9944 C   0  0  0  0  0  0  0  0  0  0  0  0
  -88.7948   32.9302   -3.2689 N   0  0  0  0  0  0  0  0  0  0  0  0
  -88.8261   31.9566   -2.3051 C   0  0  0  0  0  0  0  0  0  0  0  0
  -90.0290   31.4024   -2.1259 O   0  0  0  0  0  0  0  0  0  0  0  0
  -89.1904   36.4983   -5.4186 C   0  0  0  0  0  0  0  0  0  0  0  0
  -88.0292   36.7555   -6.0118 O   0  0  0  0  0  0  0  0  0  0  0  0
  -87.8059   31.4176   -1.4486 C   0  0  0  0  0  0  0  0  0  0  0  0
  -86.9541   32.0742   -0.6148 C   0  0  0  0  0  0  0  0  0  0  0  0
  -86.0220   31.4306    0.1800 C   0  0  0  0  0  0  0  0  0  0  0  0
  -85.8760   30.0675    0.1953 C   0  0  0  0  0  0  0  0  0  0  0  0
  -86.7257   29.3804   -0.6397 C   0  0  0  0  0  0  0  0  0  0  0  0
  -87.6468   29.9990   -1.4266 C   0  0  0  0  0  0  0  0  0  0  0  0
  -84.8988   29.3826    1.0230 C   0  0  0  0  0  0  0  0  0  0  0  0
  -85.2282   28.2042    1.6471 C   0  0  0  0  0  0  0  0  0  0  0  0
  -84.3143   27.5367    2.4362 C   0  0  0  0  0  0  0  0  0  0  0  0
  -83.0437   28.0785    2.5920 C   0  0  0  0  0  0  0  0  0  0  0  0
  -82.6890   29.2520    1.9809 C   0  0  0  0  0  0  0  0  0  0  0  0
  -83.6339   29.8890    1.1992 C   0  0  0  0  0  0  0  0  0  0  0  0
  -90.1433   37.5657   -5.4255 C   0  0  0  0  0  0  0  0  0  0  0  0
  -90.8941   37.9559   -6.4749 C   0  0  0  0  0  0  0  0  0  0  0  0
  -91.7898   39.0400   -6.4080 C   0  0  0  0  0  0  0  0  0  0  0  0
  -91.9023   39.7227   -5.2328 C   0  0  0  0  0  0  0  0  0  0  0  0
  -91.1609   39.3639   -4.1360 C   0  0  0  0  0  0  0  0  0  0  0  0
  -90.3054   38.3121   -4.2350 C   0  0  0  0  0  0  0  0  0  0  0  0
  1  2  1  0  0  0
  2  3  1  0  0  0
  3  4  1  0  0  0
  4  5  1  0  0  0
  5  6  1  0  0  0
  6  7  1  0  0  0
  7  8  1  0  0  0
  8  9  2  0  0  0
  8 12  1  0  0  0
 12 13  2  0  0  0
 13 14  1  0  0  0
 14 15  2  0  0  0
 15 16  1  0  0  0
 16 17  2  0  0  0
 15 18  1  0  0  0
 18 19  2  0  0  0
 19 20  1  0  0  0
 20 21  2  0  0  0
 21 22  1  0  0  0
 22 23  2  0  0  0
  4 10  1  0  0  0
 10 11  2  0  0  0
 10 24  1  0  0  0
 24 25  2  0  0  0
 25 26  1  0  0  0
 26 27  2  0  0  0
 27 28  1  0  0  0
 28 29  2  0  0  0
  7  2  1  0  0  0
 17 12  1  0  0  0
 23 18  1  0  0  0
 29 24  1  0  0  0
M  END
> <minimizedAffinity>
-9.34666

> <CNNscore>
0.1610339731

> <CNNaffinity>
5.3678259850

> <CNN_VS>
0.8644023538

> <CNNaffinity_variance>
0.1824294925

$$$$
[H]c1c([H])c([H])c(C(=O)N2C([H])([H])C([H])([H])N(C(=O)c3c([H])c([H])c(-c4c([H])c([H])c([H])c([H])c4[H])c([H])c3[H])[C@]([H])(C([H])([H])[H])C2([H])[H])c([H])c1[H]


 29 32  0  0  0  0  0  0  0  0999 V2000
  -89.6964   26.5625   -2.7170 C   0  0  0  0  0  0  0  0  0  0  0  0
  -90.2698   26.4124   -1.3362 C   0  0  0  0  0  0  0  0  0  0  0  0
  -91.3321   25.2797   -1.4177 C   0  0  0  0  0  0  0  0  0  0  0  0
  -92.3540   25.6668   -2.4282 N   0  0  0  0  0  0  0  0  0  0  0  0
  -92.8922   26.9562   -2.2984 C   0  0  0  0  0  0  0  0  0  0  0  0
  -92.4071   27.6201   -1.0215 C   0  0  0  0  0  0  0  0  0  0  0  0
  -90.9132   27.6136   -0.9316 N   0  0  0  0  0  0  0  0  0  0  0  0
  -90.3608   28.7665   -0.4385 C   0  0  0  0  0  0  0  0  0  0  0  0
  -91.2478   29.7334   -0.1846 O   0  0  0  0  0  0  0  0  0  0  0  0
  -92.6645   24.6942   -3.3646 C   0  0  0  0  0  0  0  0  0  0  0  0
  -91.9996   23.5566   -3.1907 O   0  0  0  0  0  0  0  0  0  0  0  0
  -89.0033   29.1326   -0.1417 C   0  0  0  0  0  0  0  0  0  0  0  0
  -88.0574   28.4307    0.5400 C   0  0  0  0  0  0  0  0  0  0  0  0
  -86.7681   28.8906    0.7416 C   0  0  0  0  0  0  0  0  0  0  0  0
  -86.3304   30.1007    0.2686 C   0  0  0  0  0  0  0  0  0  0  0  0
  -87.2682   30.8300   -0.4241 C   0  0  0  0  0  0  0  0  0  0  0  0
  -88.5391   30.3912   -0.6302 C   0  0  0  0  0  0  0  0  0  0  0  0
  -84.9806   30.5940    0.4775 C   0  0  0  0  0  0  0  0  0  0  0  0
  -84.0705   29.8387    1.1761 C   0  0  0  0  0  0  0  0  0  0  0  0
  -82.7827   30.2880    1.3842 C   0  0  0  0  0  0  0  0  0  0  0  0
  -82.4159   31.5271    0.8721 C   0  0  0  0  0  0  0  0  0  0  0  0
  -83.3035   32.3005    0.1718 C   0  0  0  0  0  0  0  0  0  0  0  0
  -84.5833   31.8138   -0.0143 C   0  0  0  0  0  0  0  0  0  0  0  0
  -93.5749   24.7212   -4.4681 C   0  0  0  0  0  0  0  0  0  0  0  0
  -94.5613   23.8344   -4.7085 C   0  0  0  0  0  0  0  0  0  0  0  0
  -95.3974   23.9144   -5.8383 C   0  0  0  0  0  0  0  0  0  0  0  0
  -95.2010   24.9315   -6.7254 C   0  0  0  0  0  0  0  0  0  0  0  0
  -94.2114   25.8598   -6.5249 C   0  0  0  0  0  0  0  0  0  0  0  0
  -93.4218   25.7530   -5.4235 C   0  0  0  0  0  0  0  0  0  0  0  0
  1  2  1  0  0  0
  2  3  1  0  0  0
  3  4  1  0  0  0
  4  5  1  0  0  0
  5  6  1  0  0  0
  6  7  1  0  0  0
  7  8  1  0  0  0
  8  9  2  0  0  0
  8 12  1  0  0  0
 12 13  2  0  0  0
 13 14  1  0  0  0
 14 15  2  0  0  0
 15 16  1  0  0  0
 16 17  2  0  0  0
 15 18  1  0  0  0
 18 19  2  0  0  0
 19 20  1  0  0  0
 20 21  2  0  0  0
 21 22  1  0  0  0
 22 23  2  0  0  0
  4 10  1  0  0  0
 10 11  2  0  0  0
 10 24  1  0  0  0
 24 25  2  0  0  0
 25 26  1  0  0  0
 26 27  2  0  0  0
 27 28  1  0  0  0
 28 29  2  0  0  0
  7  2  1  0  0  0
 17 12  1  0  0  0
 23 18  1  0  0  0
 29 24  1  0  0  0
M  END
> <minimizedAffinity>
-8.71800

> <CNNscore>
0.1602016836

> <CNNaffinity>
5.2393703461

> <CNN_VS>
0.8393559456

> <CNNaffinity_variance>
0.1753615886

$$$$
[H]c1c([H])c([H])c(C(=O)N2C([H])([H])C([H])([H])N(C(=O)c3c([H])c([H])c(-c4c([H])c([H])c([H])c([H])c4[H])c([H])c3[H])[C@]([H])(C([H])([H])[H])C2([H])[H])c([H])c1[H]


 29 32  0  0  0  0  0  0  0  0999 V2000
  -88.2822   34.6413   -3.4488 C   0  0  0  0  0  0  0  0  0  0  0  0
  -88.5530   33.3597   -4.1851 C   0  0  0  0  0  0  0  0  0  0  0  0
  -89.0704   33.7595   -5.5960 C   0  0  0  0  0  0  0  0  0  0  0  0
  -90.2889   34.5977   -5.4285 N   0  0  0  0  0  0  0  0  0  0  0  0
  -91.2770   34.0858   -4.5737 C   0  0  0  0  0  0  0  0  0  0  0  0
  -90.9309   32.6757   -4.1282 C   0  0  0  0  0  0  0  0  0  0  0  0
  -89.5634   32.6101   -3.5236 N   0  0  0  0  0  0  0  0  0  0  0  0
  -89.4597   31.8049   -2.4198 C   0  0  0  0  0  0  0  0  0  0  0  0
  -90.6171   31.2655   -2.0250 O   0  0  0  0  0  0  0  0  0  0  0  0
  -90.3065   35.7759   -6.1570 C   0  0  0  0  0  0  0  0  0  0  0  0
  -89.2234   35.9545   -6.9063 O   0  0  0  0  0  0  0  0  0  0  0  0
  -88.3373   31.4298   -1.6046 C   0  0  0  0  0  0  0  0  0  0  0  0
  -87.5361   32.2179   -0.8371 C   0  0  0  0  0  0  0  0  0  0  0  0
  -86.4907   31.7259   -0.0758 C   0  0  0  0  0  0  0  0  0  0  0  0
  -86.1705   30.3935   -0.0295 C   0  0  0  0  0  0  0  0  0  0  0  0
  -86.9657   29.5755   -0.7974 C   0  0  0  0  0  0  0  0  0  0  0  0
  -87.9966   30.0445   -1.5507 C   0  0  0  0  0  0  0  0  0  0  0  0
  -85.0735   29.8674    0.7634 C   0  0  0  0  0  0  0  0  0  0  0  0
  -85.2571   28.7483    1.5384 C   0  0  0  0  0  0  0  0  0  0  0  0
  -84.2277   28.2313    2.2977 C   0  0  0  0  0  0  0  0  0  0  0  0
  -82.9907   28.8646    2.2668 C   0  0  0  0  0  0  0  0  0  0  0  0
  -82.7803   29.9818    1.5027 C   0  0  0  0  0  0  0  0  0  0  0  0
  -83.8376   30.4675    0.7571 C   0  0  0  0  0  0  0  0  0  0  0  0
  -91.2918   36.8109   -6.2298 C   0  0  0  0  0  0  0  0  0  0  0  0
  -91.3895   37.8765   -5.4099 C   0  0  0  0  0  0  0  0  0  0  0  0
  -92.4110   38.8376   -5.5300 C   0  0  0  0  0  0  0  0  0  0  0  0
  -93.3395   38.6839   -6.5171 C   0  0  0  0  0  0  0  0  0  0  0  0
  -93.2829   37.6173   -7.3776 C   0  0  0  0  0  0  0  0  0  0  0  0
  -92.2831   36.7075   -7.2335 C   0  0  0  0  0  0  0  0  0  0  0  0
  1  2  1  0  0  0
  2  3  1  0  0  0
  3  4  1  0  0  0
  4  5  1  0  0  0
  5  6  1  0  0  0
  6  7  1  0  0  0
  7  8  1  0  0  0
  8  9  2  0  0  0
  8 12  1  0  0  0
 12 13  2  0  0  0
 13 14  1  0  0  0
 14 15  2  0  0  0
 15 16  1  0  0  0
 16 17  2  0  0  0
 15 18  1  0  0  0
 18 19  2  0  0  0
 19 20  1  0  0  0
 20 21  2  0  0  0
 21 22  1  0  0  0
 22 23  2  0  0  0
  4 10  1  0  0  0
 10 11  2  0  0  0
 10 24  1  0  0  0
 24 25  2  0  0  0
 25 26  1  0  0  0
 26 27  2  0  0  0
 27 28  1  0  0  0
 28 29  2  0  0  0
  7  2  1  0  0  0
 17 12  1  0  0  0
 23 18  1  0  0  0
 29 24  1  0  0  0
M  END
> <minimizedAffinity>
-8.62766

> <CNNscore>
0.1352410913

> <CNNaffinity>
5.4111752510

> <CNN_VS>
0.7318132520

> <CNNaffinity_variance>
0.1787003577

$$$$
[H]c1c([H])c([H])c(-c2c([H])c([H])c(N3C([H])([H])C([H])([H])N(C(=O)c4c([H])c([H])c(F)c([H])c4F)[C@]([H])(C([H])([H])[H])C3([H])[H])c([H])c2[H])c([H])c1[H]


 29 32  0  0  0  0  0  0  0  0999 V2000
  -87.2858   26.3638    1.4547 C   0  0  0  0  0  0  0  0  0  0  0  0
  -87.7444   27.8004    1.6607 C   0  0  0  0  0  0  0  0  0  0  0  0
  -89.1547   28.0017    1.1522 C   0  0  0  0  0  0  0  0  0  0  0  0
  -89.1635   28.4859   -0.2190 N   0  0  0  0  0  0  0  0  0  0  0  0
  -88.2769   29.5852   -0.5097 C   0  0  0  0  0  0  0  0  0  0  0  0
  -86.8544   29.0435   -0.2929 C   0  0  0  0  0  0  0  0  0  0  0  0
  -86.7891   28.7338    1.1197 N   0  0  0  0  0  0  0  0  0  0  0  0
  -85.7864   29.3657    1.8986 C   0  0  0  0  0  0  0  0  0  0  0  0
  -85.7384   29.0900    3.1210 O   0  0  0  0  0  0  0  0  0  0  0  0
  -84.8435   30.2979    1.3206 C   0  0  0  0  0  0  0  0  0  0  0  0
  -85.3019   31.4714    0.7237 C   0  0  0  0  0  0  0  0  0  0  0  0
  -84.4293   32.3777    0.1655 C   0  0  0  0  0  0  0  0  0  0  0  0
  -83.0745   32.1247    0.1945 C   0  0  0  0  0  0  0  0  0  0  0  0
  -82.2659   33.0542   -0.3712 F   0  0  0  0  0  0  0  0  0  0  0  0
  -82.5955   30.9713    0.7790 C   0  0  0  0  0  0  0  0  0  0  0  0
  -83.4995   30.0700    1.3370 C   0  0  0  0  0  0  0  0  0  0  0  0
  -83.0345   28.9359    1.9119 F   0  0  0  0  0  0  0  0  0  0  0  0
  -89.9855   27.9487   -1.2292 C   0  0  0  0  0  0  0  0  0  0  0  0
  -91.1153   28.6314   -1.6894 C   0  0  0  0  0  0  0  0  0  0  0  0
  -91.9179   28.0928   -2.6649 C   0  0  0  0  0  0  0  0  0  0  0  0
  -91.6738   26.8699   -3.2471 C   0  0  0  0  0  0  0  0  0  0  0  0
  -90.5620   26.1977   -2.7942 C   0  0  0  0  0  0  0  0  0  0  0  0
  -89.7340   26.7232   -1.8068 C   0  0  0  0  0  0  0  0  0  0  0  0
  -92.5492   26.3311   -4.2802 C   0  0  0  0  0  0  0  0  0  0  0  0
  -93.2270   25.1548   -4.0401 C   0  0  0  0  0  0  0  0  0  0  0  0
  -94.0722   24.5999   -4.9897 C   0  0  0  0  0  0  0  0  0  0  0  0
  -94.2558   25.2186   -6.2082 C   0  0  0  0  0  0  0  0  0  0  0  0
  -93.5881   26.3961   -6.4703 C   0  0  0  0  0  0  0  0  0  0  0  0
  -92.7448   26.9359   -5.5042 C   0  0  0  0  0  0  0  0  0  0  0  0
  1  2  1  0  0  0
  2  3  1  0  0  0
  3  4  1  0  0  0
  4  5  1  0  0  0
  5  6  1  0  0  0
  6  7  1  0  0  0
  7  8  1  0  0  0
  8  9  2  0  0  0
  8 10  1  0  0  0
 10 11  2  0  0  0
 11 12  1  0  0  0
 12 13  2  0  0  0
 13 14  1  0  0  0
 13 15  1  0  0  0
 15 16  2  0  0  0
 16 17  1  0  0  0
  4 18  1  0  0  0
 18 19  2  0  0  0
 19 20  1  0  0  0
 20 21  2  0  0  0
 21 22  1  0  0  0
 22 23  2  0  0  0
 21 24  1  0  0  0
 24 25  2  0  0  0
 25 26  1  0  0  0
 26 27  2  0  0  0
 27 28  1  0  0  0
 28 29  2  0  0  0
  7  2  1  0  0  0
 16 10  1  0  0  0
 23 18  1  0  0  0
 29 24  1  0  0  0
M  END
> <minimizedAffinity>
-9.59471

> <CNNscore>
0.2413816452

> <CNNaffinity>
5.6644797325

> <CNN_VS>
1.3673014641

> <CNNaffinity_variance>
0.2916374207

$$$$
[H]c1c([H])c([H])c(-c2c([H])c([H])c(N3C([H])([H])C([H])([H])N(C(=O)c4c([H])c([H])c(F)c([H])c4F)[C@]([H])(C([H])([H])[H])C3([H])[H])c([H])c2[H])c([H])c1[H]


 29 32  0  0  0  0  0  0  0  0999 V2000
  -86.7703   34.1918   -0.4267 C   0  0  0  0  0  0  0  0  0  0  0  0
  -85.9347   33.1674   -1.1811 C   0  0  0  0  0  0  0  0  0  0  0  0
  -86.5713   32.8127   -2.5066 C   0  0  0  0  0  0  0  0  0  0  0  0
  -87.4156   31.6341   -2.3945 N   0  0  0  0  0  0  0  0  0  0  0  0
  -86.8425   30.5061   -1.7031 C   0  0  0  0  0  0  0  0  0  0  0  0
  -86.6226   30.9715   -0.2544 C   0  0  0  0  0  0  0  0  0  0  0  0
  -85.6368   32.0271   -0.3519 N   0  0  0  0  0  0  0  0  0  0  0  0
  -84.4277   31.8840    0.3754 C   0  0  0  0  0  0  0  0  0  0  0  0
  -83.5808   32.8045    0.2843 O   0  0  0  0  0  0  0  0  0  0  0  0
  -84.1632   30.7245    1.1986 C   0  0  0  0  0  0  0  0  0  0  0  0
  -85.1409   30.2553    2.0747 C   0  0  0  0  0  0  0  0  0  0  0  0
  -84.9189   29.1544    2.8705 C   0  0  0  0  0  0  0  0  0  0  0  0
  -83.7077   28.4995    2.8037 C   0  0  0  0  0  0  0  0  0  0  0  0
  -83.5488   27.4225    3.6115 F   0  0  0  0  0  0  0  0  0  0  0  0
  -82.7242   28.9435    1.9453 C   0  0  0  0  0  0  0  0  0  0  0  0
  -82.9738   30.0601    1.1504 C   0  0  0  0  0  0  0  0  0  0  0  0
  -82.0114   30.5004    0.3060 F   0  0  0  0  0  0  0  0  0  0  0  0
  -88.7168   31.5548   -2.9290 C   0  0  0  0  0  0  0  0  0  0  0  0
  -88.9675   31.8176   -4.2789 C   0  0  0  0  0  0  0  0  0  0  0  0
  -90.2415   31.7510   -4.7872 C   0  0  0  0  0  0  0  0  0  0  0  0
  -91.3389   31.4279   -4.0219 C   0  0  0  0  0  0  0  0  0  0  0  0
  -91.0924   31.1693   -2.6933 C   0  0  0  0  0  0  0  0  0  0  0  0
  -89.8102   31.2307   -2.1557 C   0  0  0  0  0  0  0  0  0  0  0  0
  -92.6763   31.3673   -4.5977 C   0  0  0  0  0  0  0  0  0  0  0  0
  -92.9113   31.9693   -5.8156 C   0  0  0  0  0  0  0  0  0  0  0  0
  -94.1657   31.9404   -6.4069 C   0  0  0  0  0  0  0  0  0  0  0  0
  -95.2172   31.3024   -5.7838 C   0  0  0  0  0  0  0  0  0  0  0  0
  -95.0054   30.6934   -4.5650 C   0  0  0  0  0  0  0  0  0  0  0  0
  -93.7396   30.7340   -3.9890 C   0  0  0  0  0  0  0  0  0  0  0  0
  1  2  1  0  0  0
  2  3  1  0  0  0
  3  4  1  0  0  0
  4  5  1  0  0  0
  5  6  1  0  0  0
  6  7  1  0  0  0
  7  8  1  0  0  0
  8  9  2  0  0  0
  8 10  1  0  0  0
 10 11  2  0  0  0
 11 12  1  0  0  0
 12 13  2  0  0  0
 13 14  1  0  0  0
 13 15  1  0  0  0
 15 16  2  0  0  0
 16 17  1  0  0  0
  4 18  1  0  0  0
 18 19  2  0  0  0
 19 20  1  0  0  0
 20 21  2  0  0  0
 21 22  1  0  0  0
 22 23  2  0  0  0
 21 24  1  0  0  0
 24 25  2  0  0  0
 25 26  1  0  0  0
 26 27  2  0  0  0
 27 28  1  0  0  0
 28 29  2  0  0  0
  7  2  1  0  0  0
 16 10  1  0  0  0
 23 18  1  0  0  0
 29 24  1  0  0  0
M  END
> <minimizedAffinity>
-7.25699

> <CNNscore>
0.2111424655

> <CNNaffinity>
5.9832267761

> <CNN_VS>
1.2633132935

> <CNNaffinity_variance>
0.3025070727

$$$$
[H]c1c([H])c([H])c(-c2c([H])c([H])c(N3C([H])([H])C([H])([H])N(C(=O)c4c([H])c([H])c(F)c([H])c4F)[C@]([H])(C([H])([H])[H])C3([H])[H])c([H])c2[H])c([H])c1[H]


 29 32  0  0  0  0  0  0  0  0999 V2000
  -89.5303   28.7237    2.3644 C   0  0  0  0  0  0  0  0  0  0  0  0
  -88.6059   29.2079    1.2564 C   0  0  0  0  0  0  0  0  0  0  0  0
  -89.2177   28.9731   -0.1069 C   0  0  0  0  0  0  0  0  0  0  0  0
  -88.7845   27.7067   -0.6753 N   0  0  0  0  0  0  0  0  0  0  0  0
  -87.3694   27.4360   -0.6173 C   0  0  0  0  0  0  0  0  0  0  0  0
  -87.0240   27.3349    0.8774 C   0  0  0  0  0  0  0  0  0  0  0  0
  -87.2825   28.6576    1.4058 N   0  0  0  0  0  0  0  0  0  0  0  0
  -86.2182   29.3437    2.0445 C   0  0  0  0  0  0  0  0  0  0  0  0
  -86.4530   30.4887    2.4991 O   0  0  0  0  0  0  0  0  0  0  0  0
  -84.9017   28.7592    2.1764 C   0  0  0  0  0  0  0  0  0  0  0  0
  -84.7649   27.4460    2.6239 C   0  0  0  0  0  0  0  0  0  0  0  0
  -83.5258   26.8623    2.7595 C   0  0  0  0  0  0  0  0  0  0  0  0
  -82.3947   27.5863    2.4482 C   0  0  0  0  0  0  0  0  0  0  0  0
  -81.2037   26.9574    2.6021 F   0  0  0  0  0  0  0  0  0  0  0  0
  -82.5030   28.8870    2.0036 C   0  0  0  0  0  0  0  0  0  0  0  0
  -83.7687   29.4548    1.8748 C   0  0  0  0  0  0  0  0  0  0  0  0
  -83.8806   30.7317    1.4389 F   0  0  0  0  0  0  0  0  0  0  0  0
  -89.6626   26.7788   -1.2692 C   0  0  0  0  0  0  0  0  0  0  0  0
  -90.3587   27.0822   -2.4430 C   0  0  0  0  0  0  0  0  0  0  0  0
  -91.2229   26.1759   -3.0065 C   0  0  0  0  0  0  0  0  0  0  0  0
  -91.4608   24.9315   -2.4691 C   0  0  0  0  0  0  0  0  0  0  0  0
  -90.7759   24.6326   -1.3139 C   0  0  0  0  0  0  0  0  0  0  0  0
  -89.8953   25.5348   -0.7245 C   0  0  0  0  0  0  0  0  0  0  0  0
  -92.3858   23.9963   -3.0966 C   0  0  0  0  0  0  0  0  0  0  0  0
  -92.1631   22.6419   -2.9667 C   0  0  0  0  0  0  0  0  0  0  0  0
  -93.0132   21.7102   -3.5441 C   0  0  0  0  0  0  0  0  0  0  0  0
  -94.1117   22.1216   -4.2688 C   0  0  0  0  0  0  0  0  0  0  0  0
  -94.3542   23.4714   -4.4120 C   0  0  0  0  0  0  0  0  0  0  0  0
  -93.4892   24.3894   -3.8248 C   0  0  0  0  0  0  0  0  0  0  0  0
  1  2  1  0  0  0
  2  3  1  0  0  0
  3  4  1  0  0  0
  4  5  1  0  0  0
  5  6  1  0  0  0
  6  7  1  0  0  0
  7  8  1  0  0  0
  8  9  2  0  0  0
  8 10  1  0  0  0
 10 11  2  0  0  0
 11 12  1  0  0  0
 12 13  2  0  0  0
 13 14  1  0  0  0
 13 15  1  0  0  0
 15 16  2  0  0  0
 16 17  1  0  0  0
  4 18  1  0  0  0
 18 19  2  0  0  0
 19 20  1  0  0  0
 20 21  2  0  0  0
 21 22  1  0  0  0
 22 23  2  0  0  0
 21 24  1  0  0  0
 24 25  2  0  0  0
 25 26  1  0  0  0
 26 27  2  0  0  0
 27 28  1  0  0  0
 28 29  2  0  0  0
  7  2  1  0  0  0
 16 10  1  0  0  0
 23 18  1  0  0  0
 29 24  1  0  0  0
M  END
> <minimizedAffinity>
-3.90389

> <CNNscore>
0.1916855425

> <CNNaffinity>
5.4173789024

> <CNN_VS>
1.0384331942

> <CNNaffinity_variance>
0.5186348557

$$$$
[H]c1c([H])c([H])c(-c2c([H])c([H])c(N3C([H])([H])C([H])([H])N(C(=O)c4c([H])c([H])c(F)c([H])c4F)[C@]([H])(C([H])([H])[H])C3([H])[H])c([H])c2[H])c([H])c1[H]


 29 32  0  0  0  0  0  0  0  0999 V2000
  -87.8091   29.0191   -2.8810 C   0  0  0  0  0  0  0  0  0  0  0  0
  -89.2400   29.2616   -2.4223 C   0  0  0  0  0  0  0  0  0  0  0  0
  -89.7945   30.5381   -3.0148 C   0  0  0  0  0  0  0  0  0  0  0  0
  -89.6072   31.6678   -2.1186 N   0  0  0  0  0  0  0  0  0  0  0  0
  -89.9797   31.4546   -0.7421 C   0  0  0  0  0  0  0  0  0  0  0  0
  -89.0255   30.3711   -0.2138 C   0  0  0  0  0  0  0  0  0  0  0  0
  -89.3451   29.1896   -0.9869 N   0  0  0  0  0  0  0  0  0  0  0  0
  -89.7450   28.0208   -0.2901 C   0  0  0  0  0  0  0  0  0  0  0  0
  -90.0191   27.0029   -0.9694 O   0  0  0  0  0  0  0  0  0  0  0  0
  -89.8389   27.9854    1.1528 C   0  0  0  0  0  0  0  0  0  0  0  0
  -90.9758   28.4821    1.7887 C   0  0  0  0  0  0  0  0  0  0  0  0
  -91.0944   28.4620    3.1598 C   0  0  0  0  0  0  0  0  0  0  0  0
  -90.0717   27.9417    3.9238 C   0  0  0  0  0  0  0  0  0  0  0  0
  -90.2468   27.9496    5.2681 F   0  0  0  0  0  0  0  0  0  0  0  0
  -88.9367   27.4443    3.3193 C   0  0  0  0  0  0  0  0  0  0  0  0
  -88.8411   27.4761    1.9297 C   0  0  0  0  0  0  0  0  0  0  0  0
  -87.7287   26.9892    1.3310 F   0  0  0  0  0  0  0  0  0  0  0  0
  -89.1075   32.9176   -2.5351 C   0  0  0  0  0  0  0  0  0  0  0  0
  -87.8025   33.3180   -2.2332 C   0  0  0  0  0  0  0  0  0  0  0  0
  -87.3294   34.5439   -2.6320 C   0  0  0  0  0  0  0  0  0  0  0  0
  -88.0882   35.4467   -3.3416 C   0  0  0  0  0  0  0  0  0  0  0  0
  -89.3725   35.0528   -3.6386 C   0  0  0  0  0  0  0  0  0  0  0  0
  -89.8740   33.8157   -3.2452 C   0  0  0  0  0  0  0  0  0  0  0  0
  -87.5506   36.7391   -3.7472 C   0  0  0  0  0  0  0  0  0  0  0  0
  -87.9100   37.8676   -3.0416 C   0  0  0  0  0  0  0  0  0  0  0  0
  -87.4264   39.1212   -3.3864 C   0  0  0  0  0  0  0  0  0  0  0  0
  -86.5663   39.2687   -4.4538 C   0  0  0  0  0  0  0  0  0  0  0  0
  -86.1931   38.1538   -5.1741 C   0  0  0  0  0  0  0  0  0  0  0  0
  -86.6895   36.9056   -4.8117 C   0  0  0  0  0  0  0  0  0  0  0  0
  1  2  1  0  0  0
  2  3  1  0  0  0
  3  4  1  0  0  0
  4  5  1  0  0  0
  5  6  1  0  0  0
  6  7  1  0  0  0
  7  8  1  0  0  0
  8  9  2  0  0  0
  8 10  1  0  0  0
 10 11  2  0  0  0
 11 12  1  0  0  0
 12 13  2  0  0  0
 13 14  1  0  0  0
 13 15  1  0  0  0
 15 16  2  0  0  0
 16 17  1  0  0  0
  4 18  1  0  0  0
 18 19  2  0  0  0
 19 20  1  0  0  0
 20 21  2  0  0  0
 21 22  1  0  0  0
 22 23  2  0  0  0
 21 24  1  0  0  0
 24 25  2  0  0  0
 25 26  1  0  0  0
 26 27  2  0  0  0
 27 28  1  0  0  0
 28 29  2  0  0  0
  7  2  1  0  0  0
 16 10  1  0  0  0
 23 18  1  0  0  0
 29 24  1  0  0  0
M  END
> <minimizedAffinity>
-8.51703

> <CNNscore>
0.1675155908

> <CNNaffinity>
5.6315321922

> <CNN_VS>
0.9433694482

> <CNNaffinity_variance>
0.1844213903

$$$$
[H]c1c([H])c([H])c(-c2c([H])c([H])c(N3C([H])([H])C([H])([H])N(C(=O)c4c([H])c([H])c(F)c([H])c4F)[C@]([H])(C([H])([H])[H])C3([H])[H])c([H])c2[H])c([H])c1[H]


 29 32  0  0  0  0  0  0  0  0999 V2000
  -89.5828   31.9783   -0.2945 C   0  0  0  0  0  0  0  0  0  0  0  0
  -88.4510   31.7513   -1.2866 C   0  0  0  0  0  0  0  0  0  0  0  0
  -88.9472   31.0456   -2.5291 C   0  0  0  0  0  0  0  0  0  0  0  0
  -88.7786   29.6048   -2.4276 N   0  0  0  0  0  0  0  0  0  0  0  0
  -87.4890   29.1470   -1.9734 C   0  0  0  0  0  0  0  0  0  0  0  0
  -87.3466   29.6621   -0.5318 C   0  0  0  0  0  0  0  0  0  0  0  0
  -87.3285   31.1043   -0.6558 N   0  0  0  0  0  0  0  0  0  0  0  0
  -86.2055   31.8064   -0.1484 C   0  0  0  0  0  0  0  0  0  0  0  0
  -86.2002   33.0555   -0.2605 O   0  0  0  0  0  0  0  0  0  0  0  0
  -85.0962   31.1228    0.4794 C   0  0  0  0  0  0  0  0  0  0  0  0
  -85.3342   30.1903    1.4880 C   0  0  0  0  0  0  0  0  0  0  0  0
  -84.2995   29.5237    2.1040 C   0  0  0  0  0  0  0  0  0  0  0  0
  -83.0005   29.7798    1.7199 C   0  0  0  0  0  0  0  0  0  0  0  0
  -82.0251   29.0923    2.3633 F   0  0  0  0  0  0  0  0  0  0  0  0
  -82.7384   30.6975    0.7249 C   0  0  0  0  0  0  0  0  0  0  0  0
  -83.8033   31.3588    0.1170 C   0  0  0  0  0  0  0  0  0  0  0  0
  -83.5515   32.2612   -0.8605 F   0  0  0  0  0  0  0  0  0  0  0  0
  -89.7868   28.6777   -2.7580 C   0  0  0  0  0  0  0  0  0  0  0  0
  -89.5722   27.3002   -2.6556 C   0  0  0  0  0  0  0  0  0  0  0  0
  -90.5569   26.4045   -2.9930 C   0  0  0  0  0  0  0  0  0  0  0  0
  -91.7982   26.7892   -3.4461 C   0  0  0  0  0  0  0  0  0  0  0  0
  -92.0097   28.1449   -3.5470 C   0  0  0  0  0  0  0  0  0  0  0  0
  -91.0271   29.0715   -3.2110 C   0  0  0  0  0  0  0  0  0  0  0  0
  -92.8181   25.8083   -3.7947 C   0  0  0  0  0  0  0  0  0  0  0  0
  -92.8063   24.5773   -3.1739 C   0  0  0  0  0  0  0  0  0  0  0  0
  -93.7543   23.6088   -3.4696 C   0  0  0  0  0  0  0  0  0  0  0  0
  -94.7402   23.8575   -4.4007 C   0  0  0  0  0  0  0  0  0  0  0  0
  -94.7716   25.0818   -5.0342 C   0  0  0  0  0  0  0  0  0  0  0  0
  -93.8114   26.0395   -4.7232 C   0  0  0  0  0  0  0  0  0  0  0  0
  1  2  1  0  0  0
  2  3  1  0  0  0
  3  4  1  0  0  0
  4  5  1  0  0  0
  5  6  1  0  0  0
  6  7  1  0  0  0
  7  8  1  0  0  0
  8  9  2  0  0  0
  8 10  1  0  0  0
 10 11  2  0  0  0
 11 12  1  0  0  0
 12 13  2  0  0  0
 13 14  1  0  0  0
 13 15  1  0  0  0
 15 16  2  0  0  0
 16 17  1  0  0  0
  4 18  1  0  0  0
 18 19  2  0  0  0
 19 20  1  0  0  0
 20 21  2  0  0  0
 21 22  1  0  0  0
 22 23  2  0  0  0
 21 24  1  0  0  0
 24 25  2  0  0  0
 25 26  1  0  0  0
 26 27  2  0  0  0
 27 28  1  0  0  0
 28 29  2  0  0  0
  7  2  1  0  0  0
 16 10  1  0  0  0
 23 18  1  0  0  0
 29 24  1  0  0  0
M  END
> <minimizedAffinity>
-9.42739

> <CNNscore>
0.1660543829

> <CNNaffinity>
5.4549360275

> <CNN_VS>
0.9058160186

> <CNNaffinity_variance>
0.3426321447

$$$$
[H]c1c([H])c([H])c(-c2c([H])c([H])c(N3C([H])([H])C([H])([H])N(C(=O)c4c([H])c([H])c(F)c([H])c4F)[C@]([H])(C([H])([H])[H])C3([H])[H])c([H])c2[H])c([H])c1[H]


 29 32  0  0  0  0  0  0  0  0999 V2000
  -85.8343   34.0975   -0.1991 C   0  0  0  0  0  0  0  0  0  0  0  0
  -85.6663   32.9410   -1.1742 C   0  0  0  0  0  0  0  0  0  0  0  0
  -86.2059   33.2969   -2.5417 C   0  0  0  0  0  0  0  0  0  0  0  0
  -87.5865   32.8681   -2.6988 N   0  0  0  0  0  0  0  0  0  0  0  0
  -87.8823   31.5176   -2.2892 C   0  0  0  0  0  0  0  0  0  0  0  0
  -87.6272   31.4751   -0.7737 C   0  0  0  0  0  0  0  0  0  0  0  0
  -86.2076   31.7206   -0.6317 N   0  0  0  0  0  0  0  0  0  0  0  0
  -85.4225   30.7460    0.0356 C   0  0  0  0  0  0  0  0  0  0  0  0
  -84.1941   30.9688    0.1535 O   0  0  0  0  0  0  0  0  0  0  0  0
  -86.0010   29.5319    0.5680 C   0  0  0  0  0  0  0  0  0  0  0  0
  -86.5639   28.5926   -0.2948 C   0  0  0  0  0  0  0  0  0  0  0  0
  -87.1217   27.4280    0.1818 C   0  0  0  0  0  0  0  0  0  0  0  0
  -87.1264   27.1810    1.5380 C   0  0  0  0  0  0  0  0  0  0  0  0
  -87.6899   26.0175    1.9463 F   0  0  0  0  0  0  0  0  0  0  0  0
  -86.5760   28.0940    2.4124 C   0  0  0  0  0  0  0  0  0  0  0  0
  -86.0176   29.2651    1.9048 C   0  0  0  0  0  0  0  0  0  0  0  0
  -85.4761   30.1651    2.7590 F   0  0  0  0  0  0  0  0  0  0  0  0
  -88.6013   33.6891   -3.2291 C   0  0  0  0  0  0  0  0  0  0  0  0
  -89.7246   33.1449   -3.8585 C   0  0  0  0  0  0  0  0  0  0  0  0
  -90.7016   33.9541   -4.3842 C   0  0  0  0  0  0  0  0  0  0  0  0
  -90.6471   35.3283   -4.3307 C   0  0  0  0  0  0  0  0  0  0  0  0
  -89.5415   35.8641   -3.7114 C   0  0  0  0  0  0  0  0  0  0  0  0
  -88.5388   35.0644   -3.1714 C   0  0  0  0  0  0  0  0  0  0  0  0
  -91.7041   36.1541   -4.9005 C   0  0  0  0  0  0  0  0  0  0  0  0
  -92.9863   35.6517   -4.9682 C   0  0  0  0  0  0  0  0  0  0  0  0
  -94.0281   36.3966   -5.5010 C   0  0  0  0  0  0  0  0  0  0  0  0
  -93.8028   37.6697   -5.9800 C   0  0  0  0  0  0  0  0  0  0  0  0
  -92.5283   38.1927   -5.9225 C   0  0  0  0  0  0  0  0  0  0  0  0
  -91.4974   37.4290   -5.3843 C   0  0  0  0  0  0  0  0  0  0  0  0
  1  2  1  0  0  0
  2  3  1  0  0  0
  3  4  1  0  0  0
  4  5  1  0  0  0
  5  6  1  0  0  0
  6  7  1  0  0  0
  7  8  1  0  0  0
  8  9  2  0  0  0
  8 10  1  0  0  0
 10 11  2  0  0  0
 11 12  1  0  0  0
 12 13  2  0  0  0
 13 14  1  0  0  0
 13 15  1  0  0  0
 15 16  2  0  0  0
 16 17  1  0  0  0
  4 18  1  0  0  0
 18 19  2  0  0  0
 19 20  1  0  0  0
 20 21  2  0  0  0
 21 22  1  0  0  0
 22 23  2  0  0  0
 21 24  1  0  0  0
 24 25  2  0  0  0
 25 26  1  0  0  0
 26 27  2  0  0  0
 27 28  1  0  0  0
 28 29  2  0  0  0
  7  2  1  0  0  0
 16 10  1  0  0  0
 23 18  1  0  0  0
 29 24  1  0  0  0
M  END
> <minimizedAffinity>
-7.09944

> <CNNscore>
0.1587639451

> <CNNaffinity>
5.7294793129

> <CNN_VS>
0.9096347094

> <CNNaffinity_variance>
0.2769790292

$$$$
[H]c1c([H])c([H])c(-c2c([H])c([H])c(N3C([H])([H])C([H])([H])N(C(=O)c4c([H])c([H])c(F)c([H])c4F)[C@]([H])(C([H])([H])[H])C3([H])[H])c([H])c2[H])c([H])c1[H]


 29 32  0  0  0  0  0  0  0  0999 V2000
  -89.8560   30.5662   -0.1855 C   0  0  0  0  0  0  0  0  0  0  0  0
  -88.7394   30.3218   -1.1905 C   0  0  0  0  0  0  0  0  0  0  0  0
  -89.1859   29.3766   -2.2838 C   0  0  0  0  0  0  0  0  0  0  0  0
  -88.8355   27.9995   -1.9746 N   0  0  0  0  0  0  0  0  0  0  0  0
  -87.4841   27.7739   -1.5254 C   0  0  0  0  0  0  0  0  0  0  0  0
  -87.3578   28.5216   -0.1880 C   0  0  0  0  0  0  0  0  0  0  0  0
  -87.5240   29.9185   -0.5295 N   0  0  0  0  0  0  0  0  0  0  0  0
  -86.4806   30.8189   -0.1946 C   0  0  0  0  0  0  0  0  0  0  0  0
  -86.6351   32.0268   -0.4945 O   0  0  0  0  0  0  0  0  0  0  0  0
  -85.2739   30.3778    0.4696 C   0  0  0  0  0  0  0  0  0  0  0  0
  -85.3301   29.3384    1.3970 C   0  0  0  0  0  0  0  0  0  0  0  0
  -84.1990   28.8965    2.0450 C   0  0  0  0  0  0  0  0  0  0  0  0
  -82.9844   29.4902    1.7754 C   0  0  0  0  0  0  0  0  0  0  0  0
  -81.9071   29.0116    2.4449 F   0  0  0  0  0  0  0  0  0  0  0  0
  -82.9020   30.5201    0.8624 C   0  0  0  0  0  0  0  0  0  0  0  0
  -84.0615   30.9489    0.2199 C   0  0  0  0  0  0  0  0  0  0  0  0
  -83.9862   31.9600   -0.6773 F   0  0  0  0  0  0  0  0  0  0  0  0
  -89.7309   26.9198   -2.1068 C   0  0  0  0  0  0  0  0  0  0  0  0
  -89.4419   25.6629   -1.5674 C   0  0  0  0  0  0  0  0  0  0  0  0
  -90.3151   24.6133   -1.7136 C   0  0  0  0  0  0  0  0  0  0  0  0
  -91.5110   24.7200   -2.3863 C   0  0  0  0  0  0  0  0  0  0  0  0
  -91.7957   25.9569   -2.9174 C   0  0  0  0  0  0  0  0  0  0  0  0
  -90.9264   27.0352   -2.7822 C   0  0  0  0  0  0  0  0  0  0  0  0
  -92.4121   23.5826   -2.5206 C   0  0  0  0  0  0  0  0  0  0  0  0
  -93.0504   23.3696   -3.7240 C   0  0  0  0  0  0  0  0  0  0  0  0
  -93.9175   22.3020   -3.9041 C   0  0  0  0  0  0  0  0  0  0  0  0
  -94.1635   21.4202   -2.8731 C   0  0  0  0  0  0  0  0  0  0  0  0
  -93.5363   21.6136   -1.6605 C   0  0  0  0  0  0  0  0  0  0  0  0
  -92.6702   22.6908   -1.5007 C   0  0  0  0  0  0  0  0  0  0  0  0
  1  2  1  0  0  0
  2  3  1  0  0  0
  3  4  1  0  0  0
  4  5  1  0  0  0
  5  6  1  0  0  0
  6  7  1  0  0  0
  7  8  1  0  0  0
  8  9  2  0  0  0
  8 10  1  0  0  0
 10 11  2  0  0  0
 11 12  1  0  0  0
 12 13  2  0  0  0
 13 14  1  0  0  0
 13 15  1  0  0  0
 15 16  2  0  0  0
 16 17  1  0  0  0
  4 18  1  0  0  0
 18 19  2  0  0  0
 19 20  1  0  0  0
 20 21  2  0  0  0
 21 22  1  0  0  0
 22 23  2  0  0  0
 21 24  1  0  0  0
 24 25  2  0  0  0
 25 26  1  0  0  0
 26 27  2  0  0  0
 27 28  1  0  0  0
 28 29  2  0  0  0
  7  2  1  0  0  0
 16 10  1  0  0  0
 23 18  1  0  0  0
 29 24  1  0  0  0
M  END
> <minimizedAffinity>
-9.22150

> <CNNscore>
0.1545078456

> <CNNaffinity>
5.2934603691

> <CNN_VS>
0.8178811669

> <CNNaffinity_variance>
0.5537357330

$$$$
[H]c1c([H])c([H])c(-c2c([H])c([H])c(N3C([H])([H])C([H])([H])N(C(=O)c4c([H])c([H])c(F)c([H])c4F)[C@]([H])(C([H])([H])[H])C3([H])[H])c([H])c2[H])c([H])c1[H]


 29 32  0  0  0  0  0  0  0  0999 V2000
  -89.2756   30.0292   -2.5528 C   0  0  0  0  0  0  0  0  0  0  0  0
  -89.0887   30.9198   -1.3327 C   0  0  0  0  0  0  0  0  0  0  0  0
  -89.4583   32.3537   -1.6415 C   0  0  0  0  0  0  0  0  0  0  0  0
  -88.2961   33.1295   -2.0439 N   0  0  0  0  0  0  0  0  0  0  0  0
  -87.1250   32.9957   -1.2136 C   0  0  0  0  0  0  0  0  0  0  0  0
  -86.6839   31.5288   -1.3463 C   0  0  0  0  0  0  0  0  0  0  0  0
  -87.7704   30.7637   -0.7721 N   0  0  0  0  0  0  0  0  0  0  0  0
  -87.4801   29.8986    0.3136 C   0  0  0  0  0  0  0  0  0  0  0  0
  -88.4285   29.2401    0.8032 O   0  0  0  0  0  0  0  0  0  0  0  0
  -86.1434   29.7672    0.8504 C   0  0  0  0  0  0  0  0  0  0  0  0
  -85.5285   28.5167    0.8885 C   0  0  0  0  0  0  0  0  0  0  0  0
  -84.2575   28.3600    1.3931 C   0  0  0  0  0  0  0  0  0  0  0  0
  -83.5751   29.4582    1.8715 C   0  0  0  0  0  0  0  0  0  0  0  0
  -82.3277   29.2405    2.3556 F   0  0  0  0  0  0  0  0  0  0  0  0
  -84.1611   30.7060    1.8449 C   0  0  0  0  0  0  0  0  0  0  0  0
  -85.4485   30.8379    1.3291 C   0  0  0  0  0  0  0  0  0  0  0  0
  -86.0286   32.0609    1.3009 F   0  0  0  0  0  0  0  0  0  0  0  0
  -88.2801   33.9838   -3.1642 C   0  0  0  0  0  0  0  0  0  0  0  0
  -89.0383   33.7042   -4.3049 C   0  0  0  0  0  0  0  0  0  0  0  0
  -89.0052   34.5361   -5.3969 C   0  0  0  0  0  0  0  0  0  0  0  0
  -88.2407   35.6795   -5.4465 C   0  0  0  0  0  0  0  0  0  0  0  0
  -87.4944   35.9549   -4.3239 C   0  0  0  0  0  0  0  0  0  0  0  0
  -87.5117   35.1268   -3.2056 C   0  0  0  0  0  0  0  0  0  0  0  0
  -88.2317   36.5379   -6.6242 C   0  0  0  0  0  0  0  0  0  0  0  0
  -87.0494   37.1295   -7.0153 C   0  0  0  0  0  0  0  0  0  0  0  0
  -86.9868   37.9546   -8.1286 C   0  0  0  0  0  0  0  0  0  0  0  0
  -88.1174   38.2047   -8.8771 C   0  0  0  0  0  0  0  0  0  0  0  0
  -89.3111   37.6237   -8.5046 C   0  0  0  0  0  0  0  0  0  0  0  0
  -89.3522   36.7993   -7.3847 C   0  0  0  0  0  0  0  0  0  0  0  0
  1  2  1  0  0  0
  2  3  1  0  0  0
  3  4  1  0  0  0
  4  5  1  0  0  0
  5  6  1  0  0  0
  6  7  1  0  0  0
  7  8  1  0  0  0
  8  9  2  0  0  0
  8 10  1  0  0  0
 10 11  2  0  0  0
 11 12  1  0  0  0
 12 13  2  0  0  0
 13 14  1  0  0  0
 13 15  1  0  0  0
 15 16  2  0  0  0
 16 17  1  0  0  0
  4 18  1  0  0  0
 18 19  2  0  0  0
 19 20  1  0  0  0
 20 21  2  0  0  0
 21 22  1  0  0  0
 22 23  2  0  0  0
 21 24  1  0  0  0
 24 25  2  0  0  0
 25 26  1  0  0  0
 26 27  2  0  0  0
 27 28  1  0  0  0
 28 29  2  0  0  0
  7  2  1  0  0  0
 16 10  1  0  0  0
 23 18  1  0  0  0
 29 24  1  0  0  0
M  END
> <minimizedAffinity>
-8.13979

> <CNNscore>
0.1479631811

> <CNNaffinity>
5.7229919434

> <CNN_VS>
0.8467921019

> <CNNaffinity_variance>
0.1662282050

$$$$
[H]c1c([H])c([H])c(-c2c([H])c([H])c(N3C([H])([H])C([H])([H])N(C(=O)c4c([H])c([H])c(F)c([H])c4F)[C@]([H])(C([H])([H])[H])C3([H])[H])c([H])c2[H])c([H])c1[H]


 29 32  0  0  0  0  0  0  0  0999 V2000
  -89.3783   26.9298   -1.8903 C   0  0  0  0  0  0  0  0  0  0  0  0
  -90.5984   27.3958   -1.1086 C   0  0  0  0  0  0  0  0  0  0  0  0
  -91.1378   28.6960   -1.6623 C   0  0  0  0  0  0  0  0  0  0  0  0
  -90.5899   29.8441   -0.9579 N   0  0  0  0  0  0  0  0  0  0  0  0
  -90.6067   29.7727    0.4821 C   0  0  0  0  0  0  0  0  0  0  0  0
  -89.6792   28.6040    0.8534 C   0  0  0  0  0  0  0  0  0  0  0  0
  -90.3272   27.4309    0.3063 N   0  0  0  0  0  0  0  0  0  0  0  0
  -90.6613   26.3752    1.1925 C   0  0  0  0  0  0  0  0  0  0  0  0
  -91.2219   25.3634    0.7080 O   0  0  0  0  0  0  0  0  0  0  0  0
  -90.3732   26.4453    2.6082 C   0  0  0  0  0  0  0  0  0  0  0  0
  -90.6184   27.6242    3.3108 C   0  0  0  0  0  0  0  0  0  0  0  0
  -90.3548   27.7215    4.6582 C   0  0  0  0  0  0  0  0  0  0  0  0
  -89.8379   26.6348    5.3307 C   0  0  0  0  0  0  0  0  0  0  0  0
  -89.5993   26.7919    6.6559 F   0  0  0  0  0  0  0  0  0  0  0  0
  -89.5864   25.4573    4.6588 C   0  0  0  0  0  0  0  0  0  0  0  0
  -89.8620   25.3845    3.2951 C   0  0  0  0  0  0  0  0  0  0  0  0
  -89.6166   24.2308    2.6304 F   0  0  0  0  0  0  0  0  0  0  0  0
  -90.0766   30.9840   -1.6077 C   0  0  0  0  0  0  0  0  0  0  0  0
  -90.4314   31.2944   -2.9238 C   0  0  0  0  0  0  0  0  0  0  0  0
  -89.9149   32.4004   -3.5529 C   0  0  0  0  0  0  0  0  0  0  0  0
  -89.0306   33.2638   -2.9472 C   0  0  0  0  0  0  0  0  0  0  0  0
  -88.6812   32.9584   -1.6521 C   0  0  0  0  0  0  0  0  0  0  0  0
  -89.1915   31.8433   -0.9940 C   0  0  0  0  0  0  0  0  0  0  0  0
  -88.5037   34.4279   -3.6480 C   0  0  0  0  0  0  0  0  0  0  0  0
  -88.2333   35.5761   -2.9343 C   0  0  0  0  0  0  0  0  0  0  0  0
  -87.7308   36.7113   -3.5533 C   0  0  0  0  0  0  0  0  0  0  0  0
  -87.4878   36.7173   -4.9105 C   0  0  0  0  0  0  0  0  0  0  0  0
  -87.7508   35.5801   -5.6444 C   0  0  0  0  0  0  0  0  0  0  0  0
  -88.2546   34.4522   -5.0043 C   0  0  0  0  0  0  0  0  0  0  0  0
  1  2  1  0  0  0
  2  3  1  0  0  0
  3  4  1  0  0  0
  4  5  1  0  0  0
  5  6  1  0  0  0
  6  7  1  0  0  0
  7  8  1  0  0  0
  8  9  2  0  0  0
  8 10  1  0  0  0
 10 11  2  0  0  0
 11 12  1  0  0  0
 12 13  2  0  0  0
 13 14  1  0  0  0
 13 15  1  0  0  0
 15 16  2  0  0  0
 16 17  1  0  0  0
  4 18  1  0  0  0
 18 19  2  0  0  0
 19 20  1  0  0  0
 20 21  2  0  0  0
 21 22  1  0  0  0
 22 23  2  0  0  0
 21 24  1  0  0  0
 24 25  2  0  0  0
 25 26  1  0  0  0
 26 27  2  0  0  0
 27 28  1  0  0  0
 28 29  2  0  0  0
  7  2  1  0  0  0
 16 10  1  0  0  0
 23 18  1  0  0  0
 29 24  1  0  0  0
M  END
> <minimizedAffinity>
-8.47520

> <CNNscore>
0.1306913644

> <CNNaffinity>
5.5088224411

> <CNN_VS>
0.7199555039

> <CNNaffinity_variance>
0.1910465062

$$$$
[H]c1c([H])c([H])c(-c2c([H])c([H])c(N3C([H])([H])C([H])([H])N(C(=O)c4c([H])c(OC([H])([H])[H])c(OC([H])([H])[H])c(OC([H])([H])[H])c4[H])C([H])([H])C3([H])[H])c([H])c2[H])c([H])c1[H]


 32 35  0  0  0  0  0  0  0  0999 V2000
  -88.8877   29.9950   -1.1786 C   0  0  0  0  0  0  0  0  0  0  0  0
  -90.1121   29.6014   -0.9253 O   0  0  0  0  0  0  0  0  0  0  0  0
  -88.7991   30.6934   -2.3900 N   0  0  0  0  0  0  0  0  0  0  0  0
  -87.6239   31.2346   -2.9663 C   0  0  0  0  0  0  0  0  0  0  0  0
  -87.9149   31.7153   -4.3907 C   0  0  0  0  0  0  0  0  0  0  0  0
  -89.0142   32.6486   -4.3188 N   0  0  0  0  0  0  0  0  0  0  0  0
  -90.1343   32.3974   -3.3997 C   0  0  0  0  0  0  0  0  0  0  0  0
  -90.0755   30.8858   -3.1214 C   0  0  0  0  0  0  0  0  0  0  0  0
  -86.7137   28.2858    1.3927 C   0  0  0  0  0  0  0  0  0  0  0  0
  -87.7408   28.4666    0.4581 C   0  0  0  0  0  0  0  0  0  0  0  0
  -87.8711   29.6579   -0.2084 C   0  0  0  0  0  0  0  0  0  0  0  0
  -86.9510   30.6951    0.0658 C   0  0  0  0  0  0  0  0  0  0  0  0
  -85.9537   30.5133    0.9756 C   0  0  0  0  0  0  0  0  0  0  0  0
  -85.8219   29.3020    1.6533 C   0  0  0  0  0  0  0  0  0  0  0  0
  -87.7568   26.3270    2.3430 C   0  0  0  0  0  0  0  0  0  0  0  0
  -86.5953   27.0765    2.0583 O   0  0  0  0  0  0  0  0  0  0  0  0
  -85.0424   31.5417    1.2463 O   0  0  0  0  0  0  0  0  0  0  0  0
  -84.1863   31.9643    0.2109 C   0  0  0  0  0  0  0  0  0  0  0  0
  -84.8083   29.1329    2.5712 O   0  0  0  0  0  0  0  0  0  0  0  0
  -83.5035   28.7867    2.1598 C   0  0  0  0  0  0  0  0  0  0  0  0
  -89.0209   33.7875   -5.1395 C   0  0  0  0  0  0  0  0  0  0  0  0
  -87.9172   34.6303   -5.1110 C   0  0  0  0  0  0  0  0  0  0  0  0
  -87.9352   35.7516   -5.9114 C   0  0  0  0  0  0  0  0  0  0  0  0
  -89.0200   36.0451   -6.7303 C   0  0  0  0  0  0  0  0  0  0  0  0
  -90.1032   35.2038   -6.7480 C   0  0  0  0  0  0  0  0  0  0  0  0
  -90.0882   34.0768   -5.9451 C   0  0  0  0  0  0  0  0  0  0  0  0
  -89.0507   37.2218   -7.5766 C   0  0  0  0  0  0  0  0  0  0  0  0
  -87.8995   37.8870   -7.9173 C   0  0  0  0  0  0  0  0  0  0  0  0
  -87.9487   39.0041   -8.7236 C   0  0  0  0  0  0  0  0  0  0  0  0
  -89.1568   39.4849   -9.2109 C   0  0  0  0  0  0  0  0  0  0  0  0
  -90.2878   38.7861   -8.8439 C   0  0  0  0  0  0  0  0  0  0  0  0
  -90.2525   37.6793   -8.0465 C   0  0  0  0  0  0  0  0  0  0  0  0
 15 16  1  0  0  0
 16  9  1  0  0  0
  9 10  2  0  0  0
 10 11  1  0  0  0
 11 12  2  0  0  0
 12 13  1  0  0  0
 13 17  1  0  0  0
 17 18  1  0  0  0
 13 14  2  0  0  0
 14 19  1  0  0  0
 19 20  1  0  0  0
 11  1  1  0  0  0
  1  2  2  0  0  0
  1  3  1  0  0  0
  3  4  1  0  0  0
  4  5  1  0  0  0
  5  6  1  0  0  0
  6  7  1  0  0  0
  7  8  1  0  0  0
  6 21  1  0  0  0
 21 22  2  0  0  0
 22 23  1  0  0  0
 23 24  2  0  0  0
 24 25  1  0  0  0
 25 26  2  0  0  0
 24 27  1  0  0  0
 27 28  2  0  0  0
 28 29  1  0  0  0
 29 30  2  0  0  0
 30 31  1  0  0  0
 31 32  2  0  0  0
 14  9  1  0  0  0
  8  3  1  0  0  0
 26 21  1  0  0  0
 32 27  1  0  0  0
M  END
> <minimizedAffinity>
-7.36653

> <CNNscore>
0.1463333219

> <CNNaffinity>
5.7154808044

> <CNN_VS>
0.8363652825

> <CNNaffinity_variance>
0.1755312979

$$$$
[H]c1c([H])c([H])c(-c2c([H])c([H])c(N3C([H])([H])C([H])([H])N(C(=O)c4c([H])c(OC([H])([H])[H])c(OC([H])([H])[H])c(OC([H])([H])[H])c4[H])C([H])([H])C3([H])[H])c([H])c2[H])c([H])c1[H]


 32 35  0  0  0  0  0  0  0  0999 V2000
  -88.5230   29.8233   -1.2755 C   0  0  0  0  0  0  0  0  0  0  0  0
  -89.6490   29.1606   -1.1708 O   0  0  0  0  0  0  0  0  0  0  0  0
  -88.4883   30.6245   -2.4244 N   0  0  0  0  0  0  0  0  0  0  0  0
  -87.4155   31.4480   -2.8450 C   0  0  0  0  0  0  0  0  0  0  0  0
  -87.6850   31.9752   -4.2572 C   0  0  0  0  0  0  0  0  0  0  0  0
  -88.9631   32.6463   -4.2345 N   0  0  0  0  0  0  0  0  0  0  0  0
  -90.0740   32.0879   -3.4491 C   0  0  0  0  0  0  0  0  0  0  0  0
  -89.7109   30.6047   -3.2647 C   0  0  0  0  0  0  0  0  0  0  0  0
  -85.6472   30.1675    1.1476 C   0  0  0  0  0  0  0  0  0  0  0  0
  -86.5462   30.4995    0.1264 C   0  0  0  0  0  0  0  0  0  0  0  0
  -87.5415   29.6274   -0.2330 C   0  0  0  0  0  0  0  0  0  0  0  0
  -87.6414   28.3919    0.4461 C   0  0  0  0  0  0  0  0  0  0  0  0
  -86.7645   28.0745    1.4388 C   0  0  0  0  0  0  0  0  0  0  0  0
  -85.7523   28.9614    1.8035 C   0  0  0  0  0  0  0  0  0  0  0  0
  -84.2898   32.0875    0.6009 C   0  0  0  0  0  0  0  0  0  0  0  0
  -84.6466   31.0590    1.4990 O   0  0  0  0  0  0  0  0  0  0  0  0
  -86.8646   26.8501    2.1110 O   0  0  0  0  0  0  0  0  0  0  0  0
  -88.1423   26.2801    2.2725 C   0  0  0  0  0  0  0  0  0  0  0  0
  -84.8723   28.6265    2.8094 O   0  0  0  0  0  0  0  0  0  0  0  0
  -83.6093   28.0689    2.5165 C   0  0  0  0  0  0  0  0  0  0  0  0
  -89.1495   33.8233   -4.9763 C   0  0  0  0  0  0  0  0  0  0  0  0
  -88.3231   34.9086   -4.7144 C   0  0  0  0  0  0  0  0  0  0  0  0
  -88.5185   36.0639   -5.4393 C   0  0  0  0  0  0  0  0  0  0  0  0
  -89.5107   36.1566   -6.4091 C   0  0  0  0  0  0  0  0  0  0  0  0
  -90.3194   35.0769   -6.6570 C   0  0  0  0  0  0  0  0  0  0  0  0
  -90.1257   33.9151   -5.9304 C   0  0  0  0  0  0  0  0  0  0  0  0
  -89.7261   37.3666   -7.1781 C   0  0  0  0  0  0  0  0  0  0  0  0
  -89.3604   37.4486   -8.4985 C   0  0  0  0  0  0  0  0  0  0  0  0
  -89.5736   38.6077   -9.2136 C   0  0  0  0  0  0  0  0  0  0  0  0
  -90.1607   39.7183   -8.6220 C   0  0  0  0  0  0  0  0  0  0  0  0
  -90.5123   39.5919   -7.2943 C   0  0  0  0  0  0  0  0  0  0  0  0
  -90.3066   38.4502   -6.5756 C   0  0  0  0  0  0  0  0  0  0  0  0
 15 16  1  0  0  0
 16  9  1  0  0  0
  9 10  2  0  0  0
 10 11  1  0  0  0
 11 12  2  0  0  0
 12 13  1  0  0  0
 13 17  1  0  0  0
 17 18  1  0  0  0
 13 14  2  0  0  0
 14 19  1  0  0  0
 19 20  1  0  0  0
 11  1  1  0  0  0
  1  2  2  0  0  0
  1  3  1  0  0  0
  3  4  1  0  0  0
  4  5  1  0  0  0
  5  6  1  0  0  0
  6  7  1  0  0  0
  7  8  1  0  0  0
  6 21  1  0  0  0
 21 22  2  0  0  0
 22 23  1  0  0  0
 23 24  2  0  0  0
 24 25  1  0  0  0
 25 26  2  0  0  0
 24 27  1  0  0  0
 27 28  2  0  0  0
 28 29  1  0  0  0
 29 30  2  0  0  0
 30 31  1  0  0  0
 31 32  2  0  0  0
 14  9  1  0  0  0
  8  3  1  0  0  0
 26 21  1  0  0  0
 32 27  1  0  0  0
M  END
> <minimizedAffinity>
-6.90133

> <CNNscore>
0.1400165558

> <CNNaffinity>
5.6750669479

> <CNN_VS>
0.7946033478

> <CNNaffinity_variance>
0.1718173176

$$$$
[H]c1c([H])c([H])c(-c2c([H])c([H])c(N3C([H])([H])C([H])([H])N(C(=O)c4c([H])c(OC([H])([H])[H])c(OC([H])([H])[H])c(OC([H])([H])[H])c4[H])C([H])([H])C3([H])[H])c([H])c2[H])c([H])c1[H]


 32 35  0  0  0  0  0  0  0  0999 V2000
  -88.6413   27.5859    1.4907 C   0  0  0  0  0  0  0  0  0  0  0  0
  -89.2936   27.7183    2.6199 O   0  0  0  0  0  0  0  0  0  0  0  0
  -89.2022   26.5973    0.6714 N   0  0  0  0  0  0  0  0  0  0  0  0
  -88.7312   26.1908   -0.6010 C   0  0  0  0  0  0  0  0  0  0  0  0
  -89.4815   24.9369   -1.0589 C   0  0  0  0  0  0  0  0  0  0  0  0
  -90.8931   25.2385   -1.0269 N   0  0  0  0  0  0  0  0  0  0  0  0
  -91.4475   26.0518    0.0657 C   0  0  0  0  0  0  0  0  0  0  0  0
  -90.4168   25.9298    1.2009 C   0  0  0  0  0  0  0  0  0  0  0  0
  -86.2188   30.2172    0.2794 C   0  0  0  0  0  0  0  0  0  0  0  0
  -87.4037   29.4785    0.3878 C   0  0  0  0  0  0  0  0  0  0  0  0
  -87.4975   28.4445    1.2836 C   0  0  0  0  0  0  0  0  0  0  0  0
  -86.3786   28.1412    2.0921 C   0  0  0  0  0  0  0  0  0  0  0  0
  -85.2290   28.8633    1.9825 C   0  0  0  0  0  0  0  0  0  0  0  0
  -85.1339   29.9142    1.0713 C   0  0  0  0  0  0  0  0  0  0  0  0
  -87.3103   31.9670   -0.9755 C   0  0  0  0  0  0  0  0  0  0  0  0
  -86.1392   31.2588   -0.6307 O   0  0  0  0  0  0  0  0  0  0  0  0
  -84.1211   28.5619    2.7843 O   0  0  0  0  0  0  0  0  0  0  0  0
  -83.6793   27.2256    2.8369 C   0  0  0  0  0  0  0  0  0  0  0  0
  -83.9642   30.6357    0.9712 O   0  0  0  0  0  0  0  0  0  0  0  0
  -83.8767   31.9536    1.4683 C   0  0  0  0  0  0  0  0  0  0  0  0
  -91.7387   24.7405   -2.0306 C   0  0  0  0  0  0  0  0  0  0  0  0
  -92.6552   25.6063   -2.6136 C   0  0  0  0  0  0  0  0  0  0  0  0
  -93.4889   25.1080   -3.5908 C   0  0  0  0  0  0  0  0  0  0  0  0
  -93.4268   23.7784   -3.9933 C   0  0  0  0  0  0  0  0  0  0  0  0
  -92.5169   22.9349   -3.4087 C   0  0  0  0  0  0  0  0  0  0  0  0
  -91.6782   23.4324   -2.4267 C   0  0  0  0  0  0  0  0  0  0  0  0
  -94.2986   23.2425   -5.0202 C   0  0  0  0  0  0  0  0  0  0  0  0
  -94.8089   21.9713   -4.9322 C   0  0  0  0  0  0  0  0  0  0  0  0
  -95.6367   21.4791   -5.9186 C   0  0  0  0  0  0  0  0  0  0  0  0
  -95.9755   22.2506   -7.0222 C   0  0  0  0  0  0  0  0  0  0  0  0
  -95.4408   23.5211   -7.0699 C   0  0  0  0  0  0  0  0  0  0  0  0
  -94.6203   24.0198   -6.1002 C   0  0  0  0  0  0  0  0  0  0  0  0
 15 16  1  0  0  0
 16  9  1  0  0  0
  9 10  2  0  0  0
 10 11  1  0  0  0
 11 12  2  0  0  0
 12 13  1  0  0  0
 13 17  1  0  0  0
 17 18  1  0  0  0
 13 14  2  0  0  0
 14 19  1  0  0  0
 19 20  1  0  0  0
 11  1  1  0  0  0
  1  2  2  0  0  0
  1  3  1  0  0  0
  3  4  1  0  0  0
  4  5  1  0  0  0
  5  6  1  0  0  0
  6  7  1  0  0  0
  7  8  1  0  0  0
  6 21  1  0  0  0
 21 22  2  0  0  0
 22 23  1  0  0  0
 23 24  2  0  0  0
 24 25  1  0  0  0
 25 26  2  0  0  0
 24 27  1  0  0  0
 27 28  2  0  0  0
 28 29  1  0  0  0
 29 30  2  0  0  0
 30 31  1  0  0  0
 31 32  2  0  0  0
 14  9  1  0  0  0
  8  3  1  0  0  0
 26 21  1  0  0  0
 32 27  1  0  0  0
M  END
> <minimizedAffinity>
-6.23230

> <CNNscore>
0.1120370403

> <CNNaffinity>
5.4615488052

> <CNN_VS>
0.6118957400

> <CNNaffinity_variance>
0.4997949004

$$$$
[H]c1c([H])c([H])c(-c2c([H])c([H])c(N3C([H])([H])C([H])([H])N(C(=O)c4c([H])c(OC([H])([H])[H])c(OC([H])([H])[H])c(OC([H])([H])[H])c4[H])C([H])([H])C3([H])[H])c([H])c2[H])c([H])c1[H]


 32 35  0  0  0  0  0  0  0  0999 V2000
  -88.6496   27.5869    1.5264 C   0  0  0  0  0  0  0  0  0  0  0  0
  -89.3369   27.7919    2.6235 O   0  0  0  0  0  0  0  0  0  0  0  0
  -89.2410   26.6153    0.7083 N   0  0  0  0  0  0  0  0  0  0  0  0
  -88.7468   26.1449   -0.5329 C   0  0  0  0  0  0  0  0  0  0  0  0
  -89.5593   24.9306   -0.9916 C   0  0  0  0  0  0  0  0  0  0  0  0
  -90.9479   25.3244   -1.0265 N   0  0  0  0  0  0  0  0  0  0  0  0
  -91.4911   26.2011    0.0217 C   0  0  0  0  0  0  0  0  0  0  0  0
  -90.5177   26.0429    1.2020 C   0  0  0  0  0  0  0  0  0  0  0  0
  -85.1517   28.9984    1.7049 C   0  0  0  0  0  0  0  0  0  0  0  0
  -86.2354   28.1484    1.9583 C   0  0  0  0  0  0  0  0  0  0  0  0
  -87.4440   28.3633    1.3471 C   0  0  0  0  0  0  0  0  0  0  0  0
  -87.5726   29.4554    0.4592 C   0  0  0  0  0  0  0  0  0  0  0  0
  -86.5150   30.2785    0.2163 C   0  0  0  0  0  0  0  0  0  0  0  0
  -85.2865   30.0599    0.8384 C   0  0  0  0  0  0  0  0  0  0  0  0
  -83.5962   27.4550    2.7180 C   0  0  0  0  0  0  0  0  0  0  0  0
  -83.9371   28.7685    2.3305 O   0  0  0  0  0  0  0  0  0  0  0  0
  -86.6437   31.3603   -0.6638 O   0  0  0  0  0  0  0  0  0  0  0  0
  -87.1803   31.1192   -1.9434 C   0  0  0  0  0  0  0  0  0  0  0  0
  -84.2256   30.9013    0.5832 O   0  0  0  0  0  0  0  0  0  0  0  0
  -83.9341   31.9857    1.4380 C   0  0  0  0  0  0  0  0  0  0  0  0
  -91.7832   24.8557   -2.0528 C   0  0  0  0  0  0  0  0  0  0  0  0
  -92.6029   25.7666   -2.7069 C   0  0  0  0  0  0  0  0  0  0  0  0
  -93.4275   25.2977   -3.7061 C   0  0  0  0  0  0  0  0  0  0  0  0
  -93.4502   23.9535   -4.0614 C   0  0  0  0  0  0  0  0  0  0  0  0
  -92.6355   23.0654   -3.4067 C   0  0  0  0  0  0  0  0  0  0  0  0
  -91.8061   23.5333   -2.4025 C   0  0  0  0  0  0  0  0  0  0  0  0
  -94.3135   23.4482   -5.1107 C   0  0  0  0  0  0  0  0  0  0  0  0
  -94.9287   22.2259   -5.0031 C   0  0  0  0  0  0  0  0  0  0  0  0
  -95.7465   21.7623   -6.0114 C   0  0  0  0  0  0  0  0  0  0  0  0
  -95.9696   22.5140   -7.1573 C   0  0  0  0  0  0  0  0  0  0  0  0
  -95.3321   23.7352   -7.2235 C   0  0  0  0  0  0  0  0  0  0  0  0
  -94.5203   24.2053   -6.2324 C   0  0  0  0  0  0  0  0  0  0  0  0
 15 16  1  0  0  0
 16  9  1  0  0  0
  9 10  2  0  0  0
 10 11  1  0  0  0
 11 12  2  0  0  0
 12 13  1  0  0  0
 13 17  1  0  0  0
 17 18  1  0  0  0
 13 14  2  0  0  0
 14 19  1  0  0  0
 19 20  1  0  0  0
 11  1  1  0  0  0
  1  2  2  0  0  0
  1  3  1  0  0  0
  3  4  1  0  0  0
  4  5  1  0  0  0
  5  6  1  0  0  0
  6  7  1  0  0  0
  7  8  1  0  0  0
  6 21  1  0  0  0
 21 22  2  0  0  0
 22 23  1  0  0  0
 23 24  2  0  0  0
 24 25  1  0  0  0
 25 26  2  0  0  0
 24 27  1  0  0  0
 27 28  2  0  0  0
 28 29  1  0  0  0
 29 30  2  0  0  0
 30 31  1  0  0  0
 31 32  2  0  0  0
 14  9  1  0  0  0
  8  3  1  0  0  0
 26 21  1  0  0  0
 32 27  1  0  0  0
M  END
> <minimizedAffinity>
-6.30314

> <CNNscore>
0.0892207101

> <CNNaffinity>
5.3665537834

> <CNN_VS>
0.4788077474

> <CNNaffinity_variance>
0.4635561109

$$$$
[H]c1c([H])c([H])c(-c2c([H])c([H])c(N3C([H])([H])C([H])([H])N(C(=O)c4c([H])c(OC([H])([H])[H])c(OC([H])([H])[H])c(OC([H])([H])[H])c4[H])C([H])([H])C3([H])[H])c([H])c2[H])c([H])c1[H]


 32 35  0  0  0  0  0  0  0  0999 V2000
  -88.3658   34.4000   -3.6778 C   0  0  0  0  0  0  0  0  0  0  0  0
  -87.3111   35.0755   -3.2914 O   0  0  0  0  0  0  0  0  0  0  0  0
  -88.3975   33.1123   -3.1265 N   0  0  0  0  0  0  0  0  0  0  0  0
  -89.3843   32.1223   -3.3548 C   0  0  0  0  0  0  0  0  0  0  0  0
  -88.9341   30.7882   -2.7528 C   0  0  0  0  0  0  0  0  0  0  0  0
  -88.6465   31.0160   -1.3564 N   0  0  0  0  0  0  0  0  0  0  0  0
  -87.9818   32.2582   -0.9348 C   0  0  0  0  0  0  0  0  0  0  0  0
  -87.2848   32.7749   -2.2049 C   0  0  0  0  0  0  0  0  0  0  0  0
  -90.3257   35.5993   -6.6745 C   0  0  0  0  0  0  0  0  0  0  0  0
  -89.3993   34.8643   -5.9242 C   0  0  0  0  0  0  0  0  0  0  0  0
  -89.2853   35.0652   -4.5725 C   0  0  0  0  0  0  0  0  0  0  0  0
  -90.1190   36.0247   -3.9546 C   0  0  0  0  0  0  0  0  0  0  0  0
  -91.0184   36.7363   -4.6893 C   0  0  0  0  0  0  0  0  0  0  0  0
  -91.1336   36.5322   -6.0637 C   0  0  0  0  0  0  0  0  0  0  0  0
  -91.1008   34.2374   -8.5109 C   0  0  0  0  0  0  0  0  0  0  0  0
  -90.4288   35.3854   -8.0394 O   0  0  0  0  0  0  0  0  0  0  0  0
  -91.8440   37.6867   -4.0758 O   0  0  0  0  0  0  0  0  0  0  0  0
  -92.9695   37.2315   -3.3620 C   0  0  0  0  0  0  0  0  0  0  0  0
  -92.0478   37.2598   -6.7941 O   0  0  0  0  0  0  0  0  0  0  0  0
  -93.3585   36.7808   -7.0047 C   0  0  0  0  0  0  0  0  0  0  0  0
  -88.9867   30.0431   -0.4034 C   0  0  0  0  0  0  0  0  0  0  0  0
  -87.9940   29.1823    0.0470 C   0  0  0  0  0  0  0  0  0  0  0  0
  -88.3376   28.2233    0.9748 C   0  0  0  0  0  0  0  0  0  0  0  0
  -89.6369   28.1077    1.4563 C   0  0  0  0  0  0  0  0  0  0  0  0
  -90.6069   28.9646    1.0024 C   0  0  0  0  0  0  0  0  0  0  0  0
  -90.2650   29.9288    0.0705 C   0  0  0  0  0  0  0  0  0  0  0  0
  -90.0106   27.1028    2.4323 C   0  0  0  0  0  0  0  0  0  0  0  0
  -90.3115   27.4421    3.7278 C   0  0  0  0  0  0  0  0  0  0  0  0
  -90.6651   26.4724    4.6416 C   0  0  0  0  0  0  0  0  0  0  0  0
  -90.7265   25.1333    4.2796 C   0  0  0  0  0  0  0  0  0  0  0  0
  -90.4165   24.8376    2.9685 C   0  0  0  0  0  0  0  0  0  0  0  0
  -90.0651   25.7881    2.0546 C   0  0  0  0  0  0  0  0  0  0  0  0
 15 16  1  0  0  0
 16  9  1  0  0  0
  9 10  2  0  0  0
 10 11  1  0  0  0
 11 12  2  0  0  0
 12 13  1  0  0  0
 13 17  1  0  0  0
 17 18  1  0  0  0
 13 14  2  0  0  0
 14 19  1  0  0  0
 19 20  1  0  0  0
 11  1  1  0  0  0
  1  2  2  0  0  0
  1  3  1  0  0  0
  3  4  1  0  0  0
  4  5  1  0  0  0
  5  6  1  0  0  0
  6  7  1  0  0  0
  7  8  1  0  0  0
  6 21  1  0  0  0
 21 22  2  0  0  0
 22 23  1  0  0  0
 23 24  2  0  0  0
 24 25  1  0  0  0
 25 26  2  0  0  0
 24 27  1  0  0  0
 27 28  2  0  0  0
 28 29  1  0  0  0
 29 30  2  0  0  0
 30 31  1  0  0  0
 31 32  2  0  0  0
 14  9  1  0  0  0
  8  3  1  0  0  0
 26 21  1  0  0  0
 32 27  1  0  0  0
M  END
> <minimizedAffinity>
-6.74961

> <CNNscore>
0.0876950994

> <CNNaffinity>
5.1858849525

> <CNN_VS>
0.4547767043

> <CNNaffinity_variance>
0.1389202178

$$$$
[H]c1c([H])c([H])c(-c2c([H])c([H])c(N3C([H])([H])C([H])([H])N(C(=O)c4c([H])c(OC([H])([H])[H])c(OC([H])([H])[H])c(OC([H])([H])[H])c4[H])C([H])([H])C3([H])[H])c([H])c2[H])c([H])c1[H]


 32 35  0  0  0  0  0  0  0  0999 V2000
  -88.3879   34.4041   -3.7233 C   0  0  0  0  0  0  0  0  0  0  0  0
  -87.1907   34.8982   -3.5216 O   0  0  0  0  0  0  0  0  0  0  0  0
  -88.5157   33.1070   -3.2092 N   0  0  0  0  0  0  0  0  0  0  0  0
  -89.6664   32.2839   -3.2763 C   0  0  0  0  0  0  0  0  0  0  0  0
  -89.3237   30.8685   -2.8029 C   0  0  0  0  0  0  0  0  0  0  0  0
  -88.7592   30.9775   -1.4785 N   0  0  0  0  0  0  0  0  0  0  0  0
  -87.8487   32.0861   -1.1553 C   0  0  0  0  0  0  0  0  0  0  0  0
  -87.3203   32.5635   -2.5186 C   0  0  0  0  0  0  0  0  0  0  0  0
  -91.0456   36.9235   -4.6447 C   0  0  0  0  0  0  0  0  0  0  0  0
  -90.1487   36.1966   -3.8519 C   0  0  0  0  0  0  0  0  0  0  0  0
  -89.3409   35.2421   -4.4147 C   0  0  0  0  0  0  0  0  0  0  0  0
  -89.4312   35.0084   -5.8056 C   0  0  0  0  0  0  0  0  0  0  0  0
  -90.3051   35.7187   -6.5718 C   0  0  0  0  0  0  0  0  0  0  0  0
  -91.1266   36.6887   -5.9991 C   0  0  0  0  0  0  0  0  0  0  0  0
  -92.9750   37.4782   -3.3039 C   0  0  0  0  0  0  0  0  0  0  0  0
  -91.8556   37.8843   -4.0615 O   0  0  0  0  0  0  0  0  0  0  0  0
  -90.3936   35.4862   -7.9500 O   0  0  0  0  0  0  0  0  0  0  0  0
  -91.0980   34.3492   -8.3910 C   0  0  0  0  0  0  0  0  0  0  0  0
  -92.0061   37.3991   -6.7867 O   0  0  0  0  0  0  0  0  0  0  0  0
  -93.3293   36.9512   -6.9872 C   0  0  0  0  0  0  0  0  0  0  0  0
  -89.0671   30.0147   -0.5044 C   0  0  0  0  0  0  0  0  0  0  0  0
  -88.0530   29.1767   -0.0585 C   0  0  0  0  0  0  0  0  0  0  0  0
  -88.3649   28.2273    0.8902 C   0  0  0  0  0  0  0  0  0  0  0  0
  -89.6535   28.0991    1.3967 C   0  0  0  0  0  0  0  0  0  0  0  0
  -90.6449   28.9334    0.9469 C   0  0  0  0  0  0  0  0  0  0  0  0
  -90.3349   29.8880   -0.0060 C   0  0  0  0  0  0  0  0  0  0  0  0
  -89.9939   27.1042    2.3947 C   0  0  0  0  0  0  0  0  0  0  0  0
  -90.2787   27.4595    3.6896 C   0  0  0  0  0  0  0  0  0  0  0  0
  -90.6006   26.4990    4.6246 C   0  0  0  0  0  0  0  0  0  0  0  0
  -90.6455   25.1534    4.2851 C   0  0  0  0  0  0  0  0  0  0  0  0
  -90.3525   24.8416    2.9739 C   0  0  0  0  0  0  0  0  0  0  0  0
  -90.0325   25.7828    2.0390 C   0  0  0  0  0  0  0  0  0  0  0  0
 15 16  1  0  0  0
 16  9  1  0  0  0
  9 10  2  0  0  0
 10 11  1  0  0  0
 11 12  2  0  0  0
 12 13  1  0  0  0
 13 17  1  0  0  0
 17 18  1  0  0  0
 13 14  2  0  0  0
 14 19  1  0  0  0
 19 20  1  0  0  0
 11  1  1  0  0  0
  1  2  2  0  0  0
  1  3  1  0  0  0
  3  4  1  0  0  0
  4  5  1  0  0  0
  5  6  1  0  0  0
  6  7  1  0  0  0
  7  8  1  0  0  0
  6 21  1  0  0  0
 21 22  2  0  0  0
 22 23  1  0  0  0
 23 24  2  0  0  0
 24 25  1  0  0  0
 25 26  2  0  0  0
 24 27  1  0  0  0
 27 28  2  0  0  0
 28 29  1  0  0  0
 29 30  2  0  0  0
 30 31  1  0  0  0
 31 32  2  0  0  0
 14  9  1  0  0  0
  8  3  1  0  0  0
 26 21  1  0  0  0
 32 27  1  0  0  0
M  END
> <minimizedAffinity>
-6.72667

> <CNNscore>
0.0861570984

> <CNNaffinity>
5.1675271988

> <CNN_VS>
0.4452191591

> <CNNaffinity_variance>
0.1413859129

$$$$
[H]c1c([H])c([H])c(-c2c([H])c([H])c(N3C([H])([H])C([H])([H])N(C(=O)c4c([H])c(OC([H])([H])[H])c(OC([H])([H])[H])c(OC([H])([H])[H])c4[H])C([H])([H])C3([H])[H])c([H])c2[H])c([H])c1[H]


 32 35  0  0  0  0  0  0  0  0999 V2000
  -90.2224   27.2795   -2.2710 C   0  0  0  0  0  0  0  0  0  0  0  0
  -89.1590   26.5375   -2.0795 O   0  0  0  0  0  0  0  0  0  0  0  0
  -89.9616   28.6392   -2.0557 N   0  0  0  0  0  0  0  0  0  0  0  0
  -90.8924   29.7018   -2.1571 C   0  0  0  0  0  0  0  0  0  0  0  0
  -90.2682   30.9949   -1.6249 C   0  0  0  0  0  0  0  0  0  0  0  0
  -89.0430   31.2191   -2.3550 N   0  0  0  0  0  0  0  0  0  0  0  0
  -88.1714   30.0850   -2.6964 C   0  0  0  0  0  0  0  0  0  0  0  0
  -88.5628   28.9816   -1.6989 C   0  0  0  0  0  0  0  0  0  0  0  0
  -93.3811   25.2123   -2.3657 C   0  0  0  0  0  0  0  0  0  0  0  0
  -92.2342   25.8285   -1.8498 C   0  0  0  0  0  0  0  0  0  0  0  0
  -91.4399   26.6027   -2.6560 C   0  0  0  0  0  0  0  0  0  0  0  0
  -91.8013   26.7658   -4.0126 C   0  0  0  0  0  0  0  0  0  0  0  0
  -92.9181   26.1644   -4.5088 C   0  0  0  0  0  0  0  0  0  0  0  0
  -93.7252   25.3769   -3.6888 C   0  0  0  0  0  0  0  0  0  0  0  0
  -95.1248   25.0562   -0.7035 C   0  0  0  0  0  0  0  0  0  0  0  0
  -94.1734   24.4326   -1.5387 O   0  0  0  0  0  0  0  0  0  0  0  0
  -93.2753   26.3269   -5.8531 O   0  0  0  0  0  0  0  0  0  0  0  0
  -92.8500   27.4921   -6.5203 C   0  0  0  0  0  0  0  0  0  0  0  0
  -94.8517   24.7743   -4.2049 O   0  0  0  0  0  0  0  0  0  0  0  0
  -94.8017   23.4655   -4.7304 C   0  0  0  0  0  0  0  0  0  0  0  0
  -88.6761   32.5229   -2.7240 C   0  0  0  0  0  0  0  0  0  0  0  0
  -87.3268   32.8523   -2.7362 C   0  0  0  0  0  0  0  0  0  0  0  0
  -86.9747   34.1367   -3.0895 C   0  0  0  0  0  0  0  0  0  0  0  0
  -87.9314   35.0878   -3.4269 C   0  0  0  0  0  0  0  0  0  0  0  0
  -89.2602   34.7483   -3.4104 C   0  0  0  0  0  0  0  0  0  0  0  0
  -89.6170   33.4590   -3.0558 C   0  0  0  0  0  0  0  0  0  0  0  0
  -87.5734   36.4422   -3.8001 C   0  0  0  0  0  0  0  0  0  0  0  0
  -86.7436   36.6945   -4.8639 C   0  0  0  0  0  0  0  0  0  0  0  0
  -86.4148   37.9894   -5.2038 C   0  0  0  0  0  0  0  0  0  0  0  0
  -86.9106   39.0684   -4.4840 C   0  0  0  0  0  0  0  0  0  0  0  0
  -87.7404   38.7690   -3.4237 C   0  0  0  0  0  0  0  0  0  0  0  0
  -88.0733   37.4918   -3.0772 C   0  0  0  0  0  0  0  0  0  0  0  0
 15 16  1  0  0  0
 16  9  1  0  0  0
  9 10  2  0  0  0
 10 11  1  0  0  0
 11 12  2  0  0  0
 12 13  1  0  0  0
 13 17  1  0  0  0
 17 18  1  0  0  0
 13 14  2  0  0  0
 14 19  1  0  0  0
 19 20  1  0  0  0
 11  1  1  0  0  0
  1  2  2  0  0  0
  1  3  1  0  0  0
  3  4  1  0  0  0
  4  5  1  0  0  0
  5  6  1  0  0  0
  6  7  1  0  0  0
  7  8  1  0  0  0
  6 21  1  0  0  0
 21 22  2  0  0  0
 22 23  1  0  0  0
 23 24  2  0  0  0
 24 25  1  0  0  0
 25 26  2  0  0  0
 24 27  1  0  0  0
 27 28  2  0  0  0
 28 29  1  0  0  0
 29 30  2  0  0  0
 30 31  1  0  0  0
 31 32  2  0  0  0
 14  9  1  0  0  0
  8  3  1  0  0  0
 26 21  1  0  0  0
 32 27  1  0  0  0
M  END
> <minimizedAffinity>
-6.37883

> <CNNscore>
0.0830484331

> <CNNaffinity>
4.9071373940

> <CNN_VS>
0.4075300694

> <CNNaffinity_variance>
0.2607136369

$$$$
[H]c1c([H])c([H])c(-c2c([H])c([H])c(N3C([H])([H])C([H])([H])N(C(=O)c4c([H])c(OC([H])([H])[H])c(OC([H])([H])[H])c(OC([H])([H])[H])c4[H])C([H])([H])C3([H])[H])c([H])c2[H])c([H])c1[H]


 32 35  0  0  0  0  0  0  0  0999 V2000
  -89.7602   28.7004    0.5333 C   0  0  0  0  0  0  0  0  0  0  0  0
  -90.4993   29.0732    1.5496 O   0  0  0  0  0  0  0  0  0  0  0  0
  -90.1388   27.4451    0.0393 N   0  0  0  0  0  0  0  0  0  0  0  0
  -89.5359   26.7458   -1.0348 C   0  0  0  0  0  0  0  0  0  0  0  0
  -90.0942   25.3218   -1.1090 C   0  0  0  0  0  0  0  0  0  0  0  0
  -91.5309   25.4225   -1.2100 N   0  0  0  0  0  0  0  0  0  0  0  0
  -92.2539   26.4409   -0.4335 C   0  0  0  0  0  0  0  0  0  0  0  0
  -91.2960   26.8061    0.7130 C   0  0  0  0  0  0  0  0  0  0  0  0
  -86.4666   30.3657   -0.2656 C   0  0  0  0  0  0  0  0  0  0  0  0
  -87.3668   29.3840    0.1672 C   0  0  0  0  0  0  0  0  0  0  0  0
  -88.7185   29.6064    0.1062 C   0  0  0  0  0  0  0  0  0  0  0  0
  -89.1826   30.8413   -0.4009 C   0  0  0  0  0  0  0  0  0  0  0  0
  -88.3024   31.7922   -0.8208 C   0  0  0  0  0  0  0  0  0  0  0  0
  -86.9281   31.5658   -0.7581 C   0  0  0  0  0  0  0  0  0  0  0  0
  -84.4997   29.9215    1.0618 C   0  0  0  0  0  0  0  0  0  0  0  0
  -85.1036   30.1264   -0.1972 O   0  0  0  0  0  0  0  0  0  0  0  0
  -88.7636   33.0153   -1.3232 O   0  0  0  0  0  0  0  0  0  0  0  0
  -89.2295   33.0580   -2.6516 C   0  0  0  0  0  0  0  0  0  0  0  0
  -86.0497   32.5373   -1.1861 O   0  0  0  0  0  0  0  0  0  0  0  0
  -85.3721   33.3637   -0.2643 C   0  0  0  0  0  0  0  0  0  0  0  0
  -92.2388   24.5364   -2.0372 C   0  0  0  0  0  0  0  0  0  0  0  0
  -91.6382   23.3334   -2.3855 C   0  0  0  0  0  0  0  0  0  0  0  0
  -92.3347   22.4731   -3.2061 C   0  0  0  0  0  0  0  0  0  0  0  0
  -93.6039   22.7859   -3.6803 C   0  0  0  0  0  0  0  0  0  0  0  0
  -94.1845   23.9776   -3.3281 C   0  0  0  0  0  0  0  0  0  0  0  0
  -93.4874   24.8438   -2.5042 C   0  0  0  0  0  0  0  0  0  0  0  0
  -94.3465   21.8892   -4.5441 C   0  0  0  0  0  0  0  0  0  0  0  0
  -95.2781   22.3628   -5.4339 C   0  0  0  0  0  0  0  0  0  0  0  0
  -95.9742   21.4946   -6.2475 C   0  0  0  0  0  0  0  0  0  0  0  0
  -95.7541   20.1248   -6.1903 C   0  0  0  0  0  0  0  0  0  0  0  0
  -94.8097   19.6929   -5.2826 C   0  0  0  0  0  0  0  0  0  0  0  0
  -94.1141   20.5420   -4.4718 C   0  0  0  0  0  0  0  0  0  0  0  0
 15 16  1  0  0  0
 16  9  1  0  0  0
  9 10  2  0  0  0
 10 11  1  0  0  0
 11 12  2  0  0  0
 12 13  1  0  0  0
 13 17  1  0  0  0
 17 18  1  0  0  0
 13 14  2  0  0  0
 14 19  1  0  0  0
 19 20  1  0  0  0
 11  1  1  0  0  0
  1  2  2  0  0  0
  1  3  1  0  0  0
  3  4  1  0  0  0
  4  5  1  0  0  0
  5  6  1  0  0  0
  6  7  1  0  0  0
  7  8  1  0  0  0
  6 21  1  0  0  0
 21 22  2  0  0  0
 22 23  1  0  0  0
 23 24  2  0  0  0
 24 25  1  0  0  0
 25 26  2  0  0  0
 24 27  1  0  0  0
 27 28  2  0  0  0
 28 29  1  0  0  0
 29 30  2  0  0  0
 30 31  1  0  0  0
 31 32  2  0  0  0
 14  9  1  0  0  0
  8  3  1  0  0  0
 26 21  1  0  0  0
 32 27  1  0  0  0
M  END
> <minimizedAffinity>
-5.99656

> <CNNscore>
0.0826995224

> <CNNaffinity>
5.1913385391

> <CNN_VS>
0.4293212295

> <CNNaffinity_variance>
0.4002575278

$$$$
[H]c1c([H])c([H])c(-c2c([H])c([H])c(N3C([H])([H])C([H])([H])N(C(=O)c4c([H])c(OC([H])([H])[H])c(OC([H])([H])[H])c(OC([H])([H])[H])c4[H])C([H])([H])C3([H])[H])c([H])c2[H])c([H])c1[H]


 32 35  0  0  0  0  0  0  0  0999 V2000
  -88.9866   34.4322   -3.8004 C   0  0  0  0  0  0  0  0  0  0  0  0
  -88.5869   35.4878   -3.1340 O   0  0  0  0  0  0  0  0  0  0  0  0
  -88.7386   33.2433   -3.1018 N   0  0  0  0  0  0  0  0  0  0  0  0
  -89.0277   31.9296   -3.5454 C   0  0  0  0  0  0  0  0  0  0  0  0
  -88.3981   30.9075   -2.5948 C   0  0  0  0  0  0  0  0  0  0  0  0
  -88.8811   31.1951   -1.2649 N   0  0  0  0  0  0  0  0  0  0  0  0
  -89.0373   32.5893   -0.8239 C   0  0  0  0  0  0  0  0  0  0  0  0
  -88.1228   33.3967   -1.7607 C   0  0  0  0  0  0  0  0  0  0  0  0
  -91.0962   34.2591   -6.9276 C   0  0  0  0  0  0  0  0  0  0  0  0
  -90.6210   33.9412   -5.6492 C   0  0  0  0  0  0  0  0  0  0  0  0
  -89.5919   34.6570   -5.0933 C   0  0  0  0  0  0  0  0  0  0  0  0
  -89.0234   35.7181   -5.8339 C   0  0  0  0  0  0  0  0  0  0  0  0
  -89.4900   36.0229   -7.0767 C   0  0  0  0  0  0  0  0  0  0  0  0
  -90.5360   35.2946   -7.6417 C   0  0  0  0  0  0  0  0  0  0  0  0
  -93.0064   32.8148   -6.6224 C   0  0  0  0  0  0  0  0  0  0  0  0
  -92.1363   33.5263   -7.4760 O   0  0  0  0  0  0  0  0  0  0  0  0
  -88.9259   37.0747   -7.8094 O   0  0  0  0  0  0  0  0  0  0  0  0
  -88.9822   38.3725   -7.2652 C   0  0  0  0  0  0  0  0  0  0  0  0
  -90.9972   35.6142   -8.9001 O   0  0  0  0  0  0  0  0  0  0  0  0
  -92.0386   36.5500   -9.0782 C   0  0  0  0  0  0  0  0  0  0  0  0
  -89.1855   30.1426   -0.3874 C   0  0  0  0  0  0  0  0  0  0  0  0
  -88.1599   29.2938    0.0091 C   0  0  0  0  0  0  0  0  0  0  0  0
  -88.4680   28.2569    0.8624 C   0  0  0  0  0  0  0  0  0  0  0  0
  -89.7642   28.0524    1.3225 C   0  0  0  0  0  0  0  0  0  0  0  0
  -90.7669   28.8984    0.9226 C   0  0  0  0  0  0  0  0  0  0  0  0
  -90.4606   29.9409    0.0654 C   0  0  0  0  0  0  0  0  0  0  0  0
  -90.1007   26.9650    2.2203 C   0  0  0  0  0  0  0  0  0  0  0  0
  -90.0887   25.6593    1.7971 C   0  0  0  0  0  0  0  0  0  0  0  0
  -90.4115   24.6386    2.6656 C   0  0  0  0  0  0  0  0  0  0  0  0
  -90.7558   24.9008    3.9850 C   0  0  0  0  0  0  0  0  0  0  0  0
  -90.7548   26.2260    4.3673 C   0  0  0  0  0  0  0  0  0  0  0  0
  -90.4373   27.2453    3.5174 C   0  0  0  0  0  0  0  0  0  0  0  0
 15 16  1  0  0  0
 16  9  1  0  0  0
  9 10  2  0  0  0
 10 11  1  0  0  0
 11 12  2  0  0  0
 12 13  1  0  0  0
 13 17  1  0  0  0
 17 18  1  0  0  0
 13 14  2  0  0  0
 14 19  1  0  0  0
 19 20  1  0  0  0
 11  1  1  0  0  0
  1  2  2  0  0  0
  1  3  1  0  0  0
  3  4  1  0  0  0
  4  5  1  0  0  0
  5  6  1  0  0  0
  6  7  1  0  0  0
  7  8  1  0  0  0
  6 21  1  0  0  0
 21 22  2  0  0  0
 22 23  1  0  0  0
 23 24  2  0  0  0
 24 25  1  0  0  0
 25 26  2  0  0  0
 24 27  1  0  0  0
 27 28  2  0  0  0
 28 29  1  0  0  0
 29 30  2  0  0  0
 30 31  1  0  0  0
 31 32  2  0  0  0
 14  9  1  0  0  0
  8  3  1  0  0  0
 26 21  1  0  0  0
 32 27  1  0  0  0
M  END
> <minimizedAffinity>
-6.87175

> <CNNscore>
0.0785907134

> <CNNaffinity>
5.1810331345

> <CNN_VS>
0.4071810842

> <CNNaffinity_variance>
0.1156973466

$$$$
