[H]c1c([H])c([H])c2c(c1[H])c1c3c(c4c5c([H])c([H])c([H])c([H])c5n5c4c1n2[C@@]1([H])O[C@]5(C([H])([H])[H])[C@@]([H])(OC([H])([H])[H])[C@@]([H])(N([H])C([H])([H])[H])C1([H])[H])C([H])([H])N([H])C3=O


 37 44  0  0  0  0  0  0  0  0999 V2000
  -88.1855   25.9693   -0.1464 C   0  0  0  0  0  0  0  0  0  0  0  0
  -87.1306   26.4856    0.7424 C   0  0  0  0  0  0  0  0  0  0  0  0
  -87.5406   27.6169    1.6271 C   0  0  0  0  0  0  0  0  0  0  0  0
  -88.8074   27.9025    1.7650 O   0  0  0  0  0  0  0  0  0  0  0  0
  -89.7549   27.7392    0.7809 C   0  0  0  0  0  0  0  0  0  0  0  0
  -91.0483   27.7442    1.6219 C   0  0  0  0  0  0  0  0  0  0  0  0
  -89.5935   26.4228    0.1679 C   0  0  0  0  0  0  0  0  0  0  0  0
  -89.7079   28.8952   -0.0988 N   0  0  0  0  0  0  0  0  0  0  0  0
  -90.6811   29.4021   -0.8623 C   0  0  0  0  0  0  0  0  0  0  0  0
  -91.9654   29.0072   -1.0900 C   0  0  0  0  0  0  0  0  0  0  0  0
  -92.7801   29.7287   -1.9497 C   0  0  0  0  0  0  0  0  0  0  0  0
  -92.3513   30.8563   -2.6065 C   0  0  0  0  0  0  0  0  0  0  0  0
  -91.0374   31.2721   -2.3827 C   0  0  0  0  0  0  0  0  0  0  0  0
  -90.2531   30.5367   -1.5249 C   0  0  0  0  0  0  0  0  0  0  0  0
  -88.9379   30.7345   -1.1439 C   0  0  0  0  0  0  0  0  0  0  0  0
  -87.9883   31.6962   -1.4600 C   0  0  0  0  0  0  0  0  0  0  0  0
  -88.1089   32.8716   -2.3752 C   0  0  0  0  0  0  0  0  0  0  0  0
  -86.8393   33.5372   -2.3149 N   0  0  0  0  0  0  0  0  0  0  0  0
  -85.9657   32.8218   -1.4453 C   0  0  0  0  0  0  0  0  0  0  0  0
  -84.8075   33.1954   -1.2438 O   0  0  0  0  0  0  0  0  0  0  0  0
  -86.7131   31.6874   -0.9338 C   0  0  0  0  0  0  0  0  0  0  0  0
  -86.4236   30.6561   -0.0648 C   0  0  0  0  0  0  0  0  0  0  0  0
  -85.2952   30.2959    0.6409 C   0  0  0  0  0  0  0  0  0  0  0  0
  -84.0417   30.8253    0.7605 C   0  0  0  0  0  0  0  0  0  0  0  0
  -83.1197   30.1846    1.5873 C   0  0  0  0  0  0  0  0  0  0  0  0
  -83.4196   29.0381    2.2901 C   0  0  0  0  0  0  0  0  0  0  0  0
  -84.6860   28.5050    2.1676 C   0  0  0  0  0  0  0  0  0  0  0  0
  -85.5848   29.1286    1.3624 C   0  0  0  0  0  0  0  0  0  0  0  0
  -86.8509   28.8044    1.0929 N   0  0  0  0  0  0  0  0  0  0  0  0
  -87.3720   29.6986    0.2480 C   0  0  0  0  0  0  0  0  0  0  0  0
  -88.6430   29.7356   -0.2929 C   0  0  0  0  0  0  0  0  0  0  0  0
  -86.6027   34.4272   -2.8445 H   0  0  0  0  0  0  0  0  0  0  0  0
  -86.6321   26.9423   -1.5989 C   0  0  0  0  0  0  0  0  0  0  0  0
  -87.9132   26.2680   -1.5586 N   0  0  0  0  0  0  0  0  0  0  0  0
  -87.8403   25.4272   -2.1385 H   0  0  0  0  0  0  0  0  0  0  0  0
  -90.3044   26.1510   -0.9906 O   0  0  0  0  0  0  0  0  0  0  0  0
  -91.2256   25.1456   -0.8985 C   0  0  0  0  0  0  0  0  0  0  0  0
 33 34  1  0  0  0
 34  1  1  0  0  0
  1  2  1  0  0  0
  2  3  1  0  0  0
  3  4  1  0  0  0
  4  5  1  0  0  0
  5  6  1  0  0  0
  5  7  1  0  0  0
  7 36  1  0  0  0
 36 37  1  0  0  0
  5  8  1  0  0  0
  8  9  1  0  0  0
  9 10  2  0  0  0
 10 11  1  0  0  0
 11 12  2  0  0  0
 12 13  1  0  0  0
 13 14  2  0  0  0
 14 15  1  0  0  0
 15 16  2  0  0  0
 16 17  1  0  0  0
 17 18  1  0  0  0
 18 19  1  0  0  0
 19 20  2  0  0  0
 19 21  1  0  0  0
 21 22  2  0  0  0
 22 23  1  0  0  0
 23 24  2  0  0  0
 24 25  1  0  0  0
 25 26  2  0  0  0
 26 27  1  0  0  0
 27 28  2  0  0  0
 28 29  1  0  0  0
 29 30  1  0  0  0
 30 31  2  0  0  0
  7  1  1  0  0  0
 31  8  1  0  0  0
 29  3  1  0  0  0
 14  9  1  0  0  0
 31 15  1  0  0  0
 21 16  1  0  0  0
 30 22  1  0  0  0
 28 23  1  0  0  0
 34 35  1  0  0  0
 18 32  1  0  0  0
M  END
> <minimizedAffinity>
-10.88776

> <CNNscore>
0.4939234257

> <CNNaffinity>
6.9002966881

> <CNN_VS>
3.4082181454

> <CNNaffinity_variance>
0.1545022726

$$$$
[H]c1c([H])c([H])c2c(c1[H])c1c3c(c4c5c([H])c([H])c([H])c([H])c5n5c4c1n2[C@@]1([H])O[C@]5(C([H])([H])[H])[C@@]([H])(OC([H])([H])[H])[C@@]([H])(N([H])C([H])([H])[H])C1([H])[H])C([H])([H])N([H])C3=O


 37 44  0  0  0  0  0  0  0  0999 V2000
  -88.3905   27.3909   -1.3457 C   0  0  0  0  0  0  0  0  0  0  0  0
  -87.5705   27.1197   -0.1527 C   0  0  0  0  0  0  0  0  0  0  0  0
  -87.7299   28.0973    0.9652 C   0  0  0  0  0  0  0  0  0  0  0  0
  -88.7267   28.9407    0.9484 O   0  0  0  0  0  0  0  0  0  0  0  0
  -89.2761   29.4754   -0.1941 C   0  0  0  0  0  0  0  0  0  0  0  0
  -90.6431   29.9522    0.3390 C   0  0  0  0  0  0  0  0  0  0  0  0
  -89.4937   28.4103   -1.1702 C   0  0  0  0  0  0  0  0  0  0  0  0
  -88.4625   30.6056   -0.6099 N   0  0  0  0  0  0  0  0  0  0  0  0
  -88.8235   31.6731   -1.3291 C   0  0  0  0  0  0  0  0  0  0  0  0
  -90.0024   32.0261   -1.9146 C   0  0  0  0  0  0  0  0  0  0  0  0
  -90.1075   33.2152   -2.6207 C   0  0  0  0  0  0  0  0  0  0  0  0
  -89.0556   34.0860   -2.7681 C   0  0  0  0  0  0  0  0  0  0  0  0
  -87.8416   33.7366   -2.1736 C   0  0  0  0  0  0  0  0  0  0  0  0
  -87.7674   32.5514   -1.4796 C   0  0  0  0  0  0  0  0  0  0  0  0
  -86.6954   31.9855   -0.8128 C   0  0  0  0  0  0  0  0  0  0  0  0
  -85.3837   32.3878   -0.6027 C   0  0  0  0  0  0  0  0  0  0  0  0
  -84.6921   33.6250   -1.0766 C   0  0  0  0  0  0  0  0  0  0  0  0
  -83.3571   33.5417   -0.5577 N   0  0  0  0  0  0  0  0  0  0  0  0
  -83.2028   32.3264    0.1707 C   0  0  0  0  0  0  0  0  0  0  0  0
  -82.1311   32.0236    0.7011 O   0  0  0  0  0  0  0  0  0  0  0  0
  -84.4799   31.6382    0.1214 C   0  0  0  0  0  0  0  0  0  0  0  0
  -84.9527   30.4476    0.6329 C   0  0  0  0  0  0  0  0  0  0  0  0
  -84.3797   29.4383    1.3772 C   0  0  0  0  0  0  0  0  0  0  0  0
  -83.1350   29.2361    1.9022 C   0  0  0  0  0  0  0  0  0  0  0  0
  -82.8943   28.0683    2.6253 C   0  0  0  0  0  0  0  0  0  0  0  0
  -83.8602   27.1081    2.8332 C   0  0  0  0  0  0  0  0  0  0  0  0
  -85.1165   27.3143    2.3019 C   0  0  0  0  0  0  0  0  0  0  0  0
  -85.3517   28.4515    1.5974 C   0  0  0  0  0  0  0  0  0  0  0  0
  -86.4718   28.8637    1.0004 N   0  0  0  0  0  0  0  0  0  0  0  0
  -86.2606   30.0490    0.4214 C   0  0  0  0  0  0  0  0  0  0  0  0
  -87.1441   30.8233   -0.3060 C   0  0  0  0  0  0  0  0  0  0  0  0
  -82.6094   34.2820   -0.7036 H   0  0  0  0  0  0  0  0  0  0  0  0
  -86.1922   27.5744   -2.1222 C   0  0  0  0  0  0  0  0  0  0  0  0
  -87.5735   27.7949   -2.4977 N   0  0  0  0  0  0  0  0  0  0  0  0
  -87.7606   27.2373   -3.3360 H   0  0  0  0  0  0  0  0  0  0  0  0
  -89.8318   28.7712   -2.4652 O   0  0  0  0  0  0  0  0  0  0  0  0
  -91.1087   28.4719   -2.8497 C   0  0  0  0  0  0  0  0  0  0  0  0
 33 34  1  0  0  0
 34  1  1  0  0  0
  1  2  1  0  0  0
  2  3  1  0  0  0
  3  4  1  0  0  0
  4  5  1  0  0  0
  5  6  1  0  0  0
  5  7  1  0  0  0
  7 36  1  0  0  0
 36 37  1  0  0  0
  5  8  1  0  0  0
  8  9  1  0  0  0
  9 10  2  0  0  0
 10 11  1  0  0  0
 11 12  2  0  0  0
 12 13  1  0  0  0
 13 14  2  0  0  0
 14 15  1  0  0  0
 15 16  2  0  0  0
 16 17  1  0  0  0
 17 18  1  0  0  0
 18 19  1  0  0  0
 19 20  2  0  0  0
 19 21  1  0  0  0
 21 22  2  0  0  0
 22 23  1  0  0  0
 23 24  2  0  0  0
 24 25  1  0  0  0
 25 26  2  0  0  0
 26 27  1  0  0  0
 27 28  2  0  0  0
 28 29  1  0  0  0
 29 30  1  0  0  0
 30 31  2  0  0  0
  7  1  1  0  0  0
 31  8  1  0  0  0
 29  3  1  0  0  0
 14  9  1  0  0  0
 31 15  1  0  0  0
 21 16  1  0  0  0
 30 22  1  0  0  0
 28 23  1  0  0  0
 34 35  1  0  0  0
 18 32  1  0  0  0
M  END
> <minimizedAffinity>
-9.95777

> <CNNscore>
0.2291288078

> <CNNaffinity>
6.5785737038

> <CNN_VS>
1.5073407888

> <CNNaffinity_variance>
0.5726304054

$$$$
[H]c1c([H])c([H])c2c(c1[H])c1c3c(c4c5c([H])c([H])c([H])c([H])c5n5c4c1n2[C@@]1([H])O[C@]5(C([H])([H])[H])[C@@]([H])(OC([H])([H])[H])[C@@]([H])(N([H])C([H])([H])[H])C1([H])[H])C([H])([H])N([H])C3=O


 37 44  0  0  0  0  0  0  0  0999 V2000
  -89.1233   30.2082   -3.1858 C   0  0  0  0  0  0  0  0  0  0  0  0
  -89.8584   29.3425   -2.2479 C   0  0  0  0  0  0  0  0  0  0  0  0
  -89.9411   29.8490   -0.8453 C   0  0  0  0  0  0  0  0  0  0  0  0
  -89.6173   31.0871   -0.5856 O   0  0  0  0  0  0  0  0  0  0  0  0
  -88.6528   31.7987   -1.2611 C   0  0  0  0  0  0  0  0  0  0  0  0
  -89.0497   33.2435   -0.8937 C   0  0  0  0  0  0  0  0  0  0  0  0
  -88.8306   31.6097   -2.6989 C   0  0  0  0  0  0  0  0  0  0  0  0
  -87.3553   31.4621   -0.6993 N   0  0  0  0  0  0  0  0  0  0  0  0
  -86.2370   32.1944   -0.6860 C   0  0  0  0  0  0  0  0  0  0  0  0
  -85.9407   33.4219   -1.1985 C   0  0  0  0  0  0  0  0  0  0  0  0
  -84.6728   33.9615   -1.0406 C   0  0  0  0  0  0  0  0  0  0  0  0
  -83.6655   33.3067   -0.3749 C   0  0  0  0  0  0  0  0  0  0  0  0
  -83.9552   32.0479    0.1550 C   0  0  0  0  0  0  0  0  0  0  0  0
  -85.2212   31.5385   -0.0172 C   0  0  0  0  0  0  0  0  0  0  0  0
  -85.7507   30.3313    0.4028 C   0  0  0  0  0  0  0  0  0  0  0  0
  -85.2327   29.2608    1.1186 C   0  0  0  0  0  0  0  0  0  0  0  0
  -83.8566   29.0774    1.6719 C   0  0  0  0  0  0  0  0  0  0  0  0
  -83.8753   27.8047    2.3341 N   0  0  0  0  0  0  0  0  0  0  0  0
  -85.1622   27.2097    2.1892 C   0  0  0  0  0  0  0  0  0  0  0  0
  -85.4176   26.1004    2.6645 O   0  0  0  0  0  0  0  0  0  0  0  0
  -85.9766   28.1417    1.4308 C   0  0  0  0  0  0  0  0  0  0  0  0
  -87.2824   28.1392    0.9864 C   0  0  0  0  0  0  0  0  0  0  0  0
  -88.3161   27.2313    1.0779 C   0  0  0  0  0  0  0  0  0  0  0  0
  -88.4481   25.9986    1.6513 C   0  0  0  0  0  0  0  0  0  0  0  0
  -89.6737   25.3410    1.5517 C   0  0  0  0  0  0  0  0  0  0  0  0
  -90.7591   25.8825    0.8983 C   0  0  0  0  0  0  0  0  0  0  0  0
  -90.6234   27.1275    0.3198 C   0  0  0  0  0  0  0  0  0  0  0  0
  -89.4299   27.7688    0.4164 C   0  0  0  0  0  0  0  0  0  0  0  0
  -89.0678   28.9635   -0.0549 N   0  0  0  0  0  0  0  0  0  0  0  0
  -87.7958   29.2074    0.2727 C   0  0  0  0  0  0  0  0  0  0  0  0
  -87.0266   30.3168   -0.0223 C   0  0  0  0  0  0  0  0  0  0  0  0
  -83.0470   27.3843    2.8495 H   0  0  0  0  0  0  0  0  0  0  0  0
  -87.8335   28.2604   -3.0764 C   0  0  0  0  0  0  0  0  0  0  0  0
  -87.8584   29.6018   -3.6217 N   0  0  0  0  0  0  0  0  0  0  0  0
  -87.7816   29.5249   -4.6400 H   0  0  0  0  0  0  0  0  0  0  0  0
  -87.8296   32.0610   -3.5450 O   0  0  0  0  0  0  0  0  0  0  0  0
  -88.1761   33.0871   -4.3786 C   0  0  0  0  0  0  0  0  0  0  0  0
 33 34  1  0  0  0
 34  1  1  0  0  0
  1  2  1  0  0  0
  2  3  1  0  0  0
  3  4  1  0  0  0
  4  5  1  0  0  0
  5  6  1  0  0  0
  5  7  1  0  0  0
  7 36  1  0  0  0
 36 37  1  0  0  0
  5  8  1  0  0  0
  8  9  1  0  0  0
  9 10  2  0  0  0
 10 11  1  0  0  0
 11 12  2  0  0  0
 12 13  1  0  0  0
 13 14  2  0  0  0
 14 15  1  0  0  0
 15 16  2  0  0  0
 16 17  1  0  0  0
 17 18  1  0  0  0
 18 19  1  0  0  0
 19 20  2  0  0  0
 19 21  1  0  0  0
 21 22  2  0  0  0
 22 23  1  0  0  0
 23 24  2  0  0  0
 24 25  1  0  0  0
 25 26  2  0  0  0
 26 27  1  0  0  0
 27 28  2  0  0  0
 28 29  1  0  0  0
 29 30  1  0  0  0
 30 31  2  0  0  0
  7  1  1  0  0  0
 31  8  1  0  0  0
 29  3  1  0  0  0
 14  9  1  0  0  0
 31 15  1  0  0  0
 21 16  1  0  0  0
 30 22  1  0  0  0
 28 23  1  0  0  0
 34 35  1  0  0  0
 18 32  1  0  0  0
M  END
> <minimizedAffinity>
-10.22291

> <CNNscore>
0.2255734354

> <CNNaffinity>
6.7412385941

> <CNN_VS>
1.5206443071

> <CNNaffinity_variance>
0.1352533698

$$$$
[H]c1c([H])c([H])c2c(c1[H])c1c3c(c4c5c([H])c([H])c([H])c([H])c5n5c4c1n2[C@@]1([H])O[C@]5(C([H])([H])[H])[C@@]([H])(OC([H])([H])[H])[C@@]([H])(N([H])C([H])([H])[H])C1([H])[H])C([H])([H])N([H])C3=O


 37 44  0  0  0  0  0  0  0  0999 V2000
  -90.8335   29.7277   -1.1477 C   0  0  0  0  0  0  0  0  0  0  0  0
  -90.4437   30.6047   -2.2650 C   0  0  0  0  0  0  0  0  0  0  0  0
  -89.2458   30.1580   -3.0372 C   0  0  0  0  0  0  0  0  0  0  0  0
  -88.7874   28.9462   -2.8742 O   0  0  0  0  0  0  0  0  0  0  0  0
  -88.8445   28.2436   -1.6926 C   0  0  0  0  0  0  0  0  0  0  0  0
  -88.6432   26.8020   -2.2041 C   0  0  0  0  0  0  0  0  0  0  0  0
  -90.1852   28.3616   -1.1241 C   0  0  0  0  0  0  0  0  0  0  0  0
  -87.7276   28.6551   -0.8587 N   0  0  0  0  0  0  0  0  0  0  0  0
  -87.1119   27.9682    0.1089 C   0  0  0  0  0  0  0  0  0  0  0  0
  -87.3342   26.7317    0.6370 C   0  0  0  0  0  0  0  0  0  0  0  0
  -86.5299   26.2496    1.6589 C   0  0  0  0  0  0  0  0  0  0  0  0
  -85.4875   26.9720    2.1862 C   0  0  0  0  0  0  0  0  0  0  0  0
  -85.2487   28.2408    1.6547 C   0  0  0  0  0  0  0  0  0  0  0  0
  -86.0626   28.6922    0.6420 C   0  0  0  0  0  0  0  0  0  0  0  0
  -86.0362   29.8953   -0.0406 C   0  0  0  0  0  0  0  0  0  0  0  0
  -85.2204   31.0158    0.0340 C   0  0  0  0  0  0  0  0  0  0  0  0
  -84.0624   31.2771    0.9419 C   0  0  0  0  0  0  0  0  0  0  0  0
  -83.5742   32.5761    0.5777 N   0  0  0  0  0  0  0  0  0  0  0  0
  -84.3801   33.1135   -0.4678 C   0  0  0  0  0  0  0  0  0  0  0  0
  -84.1626   34.2319   -0.9404 O   0  0  0  0  0  0  0  0  0  0  0  0
  -85.3895   32.1177   -0.7786 C   0  0  0  0  0  0  0  0  0  0  0  0
  -86.4290   32.0496   -1.6827 C   0  0  0  0  0  0  0  0  0  0  0  0
  -86.9218   32.9197   -2.6321 C   0  0  0  0  0  0  0  0  0  0  0  0
  -86.5648   34.1705   -3.0490 C   0  0  0  0  0  0  0  0  0  0  0  0
  -87.3045   34.7748   -4.0650 C   0  0  0  0  0  0  0  0  0  0  0  0
  -88.3820   34.1629   -4.6673 C   0  0  0  0  0  0  0  0  0  0  0  0
  -88.7409   32.8998   -4.2445 C   0  0  0  0  0  0  0  0  0  0  0  0
  -88.0209   32.3104   -3.2549 C   0  0  0  0  0  0  0  0  0  0  0  0
  -88.1765   31.1110   -2.6911 N   0  0  0  0  0  0  0  0  0  0  0  0
  -87.2408   30.9316   -1.7545 C   0  0  0  0  0  0  0  0  0  0  0  0
  -87.0447   29.8411   -0.9289 C   0  0  0  0  0  0  0  0  0  0  0  0
  -82.7378   33.0510    1.0288 H   0  0  0  0  0  0  0  0  0  0  0  0
  -90.0631   31.6772   -0.1109 C   0  0  0  0  0  0  0  0  0  0  0  0
  -90.6093   30.3630    0.1576 N   0  0  0  0  0  0  0  0  0  0  0  0
  -91.4720   30.4887    0.6947 H   0  0  0  0  0  0  0  0  0  0  0  0
  -90.3863   27.9127    0.1718 O   0  0  0  0  0  0  0  0  0  0  0  0
  -91.3131   26.9190    0.3177 C   0  0  0  0  0  0  0  0  0  0  0  0
 33 34  1  0  0  0
 34  1  1  0  0  0
  1  2  1  0  0  0
  2  3  1  0  0  0
  3  4  1  0  0  0
  4  5  1  0  0  0
  5  6  1  0  0  0
  5  7  1  0  0  0
  7 36  1  0  0  0
 36 37  1  0  0  0
  5  8  1  0  0  0
  8  9  1  0  0  0
  9 10  2  0  0  0
 10 11  1  0  0  0
 11 12  2  0  0  0
 12 13  1  0  0  0
 13 14  2  0  0  0
 14 15  1  0  0  0
 15 16  2  0  0  0
 16 17  1  0  0  0
 17 18  1  0  0  0
 18 19  1  0  0  0
 19 20  2  0  0  0
 19 21  1  0  0  0
 21 22  2  0  0  0
 22 23  1  0  0  0
 23 24  2  0  0  0
 24 25  1  0  0  0
 25 26  2  0  0  0
 26 27  1  0  0  0
 27 28  2  0  0  0
 28 29  1  0  0  0
 29 30  1  0  0  0
 30 31  2  0  0  0
  7  1  1  0  0  0
 31  8  1  0  0  0
 29  3  1  0  0  0
 14  9  1  0  0  0
 31 15  1  0  0  0
 21 16  1  0  0  0
 30 22  1  0  0  0
 28 23  1  0  0  0
 34 35  1  0  0  0
 18 32  1  0  0  0
M  END
> <minimizedAffinity>
-8.67784

> <CNNscore>
0.2188499868

> <CNNaffinity>
6.3617639542

> <CNN_VS>
1.3922719955

> <CNNaffinity_variance>
0.4248330593

$$$$
[H]c1c([H])c([H])c2c(c1[H])c1c3c(c4c5c([H])c([H])c([H])c([H])c5n5c4c1n2[C@@]1([H])O[C@]5(C([H])([H])[H])[C@@]([H])(OC([H])([H])[H])[C@@]([H])(N([H])C([H])([H])[H])C1([H])[H])C([H])([H])N([H])C3=O


 37 44  0  0  0  0  0  0  0  0999 V2000
  -93.4637   23.4724   -3.7476 C   0  0  0  0  0  0  0  0  0  0  0  0
  -94.1053   22.4597   -2.8920 C   0  0  0  0  0  0  0  0  0  0  0  0
  -94.7809   22.9929   -1.6712 C   0  0  0  0  0  0  0  0  0  0  0  0
  -94.9980   24.2758   -1.5617 O   0  0  0  0  0  0  0  0  0  0  0  0
  -94.1798   25.2521   -2.0817 C   0  0  0  0  0  0  0  0  0  0  0  0
  -95.1410   26.4588   -2.0921 C   0  0  0  0  0  0  0  0  0  0  0  0
  -93.8340   24.9100   -3.4593 C   0  0  0  0  0  0  0  0  0  0  0  0
  -93.0833   25.4749   -1.1541 N   0  0  0  0  0  0  0  0  0  0  0  0
  -92.3459   26.5768   -0.9839 C   0  0  0  0  0  0  0  0  0  0  0  0
  -92.3482   27.7858   -1.6129 C   0  0  0  0  0  0  0  0  0  0  0  0
  -91.4558   28.7770   -1.2327 C   0  0  0  0  0  0  0  0  0  0  0  0
  -90.5393   28.6031   -0.2245 C   0  0  0  0  0  0  0  0  0  0  0  0
  -90.5256   27.3691    0.4283 C   0  0  0  0  0  0  0  0  0  0  0  0
  -91.4224   26.4054    0.0296 C   0  0  0  0  0  0  0  0  0  0  0  0
  -91.6059   25.1199    0.5071 C   0  0  0  0  0  0  0  0  0  0  0  0
  -90.9964   24.3800    1.5108 C   0  0  0  0  0  0  0  0  0  0  0  0
  -89.8801   24.7733    2.4233 C   0  0  0  0  0  0  0  0  0  0  0  0
  -89.6614   23.6388    3.2740 N   0  0  0  0  0  0  0  0  0  0  0  0
  -90.5556   22.5901    2.9109 C   0  0  0  0  0  0  0  0  0  0  0  0
  -90.5462   21.5032    3.4941 O   0  0  0  0  0  0  0  0  0  0  0  0
  -91.3678   23.0866    1.8150 C   0  0  0  0  0  0  0  0  0  0  0  0
  -92.3910   22.5561    1.0573 C   0  0  0  0  0  0  0  0  0  0  0  0
  -93.0249   21.3319    1.0397 C   0  0  0  0  0  0  0  0  0  0  0  0
  -92.8935   20.1849    1.7697 C   0  0  0  0  0  0  0  0  0  0  0  0
  -93.7255   19.1049    1.4767 C   0  0  0  0  0  0  0  0  0  0  0  0
  -94.6763   19.1455    0.4803 C   0  0  0  0  0  0  0  0  0  0  0  0
  -94.8071   20.3048   -0.2558 C   0  0  0  0  0  0  0  0  0  0  0  0
  -93.9970   21.3572    0.0290 C   0  0  0  0  0  0  0  0  0  0  0  0
  -93.9422   22.5639   -0.5381 N   0  0  0  0  0  0  0  0  0  0  0  0
  -92.9963   23.2960    0.0570 C   0  0  0  0  0  0  0  0  0  0  0  0
  -92.6044   24.5912   -0.2226 C   0  0  0  0  0  0  0  0  0  0  0  0
  -88.9385   23.6024    4.0515 H   0  0  0  0  0  0  0  0  0  0  0  0
  -91.6892   22.0268   -3.2678 C   0  0  0  0  0  0  0  0  0  0  0  0
  -91.9989   23.3646   -3.7280 N   0  0  0  0  0  0  0  0  0  0  0  0
  -91.5769   23.4804   -4.6538 H   0  0  0  0  0  0  0  0  0  0  0  0
  -92.8419   25.6483   -4.0856 O   0  0  0  0  0  0  0  0  0  0  0  0
  -91.6800   25.7969   -3.3815 C   0  0  0  0  0  0  0  0  0  0  0  0
 33 34  1  0  0  0
 34  1  1  0  0  0
  1  2  1  0  0  0
  2  3  1  0  0  0
  3  4  1  0  0  0
  4  5  1  0  0  0
  5  6  1  0  0  0
  5  7  1  0  0  0
  7 36  1  0  0  0
 36 37  1  0  0  0
  5  8  1  0  0  0
  8  9  1  0  0  0
  9 10  2  0  0  0
 10 11  1  0  0  0
 11 12  2  0  0  0
 12 13  1  0  0  0
 13 14  2  0  0  0
 14 15  1  0  0  0
 15 16  2  0  0  0
 16 17  1  0  0  0
 17 18  1  0  0  0
 18 19  1  0  0  0
 19 20  2  0  0  0
 19 21  1  0  0  0
 21 22  2  0  0  0
 22 23  1  0  0  0
 23 24  2  0  0  0
 24 25  1  0  0  0
 25 26  2  0  0  0
 26 27  1  0  0  0
 27 28  2  0  0  0
 28 29  1  0  0  0
 29 30  1  0  0  0
 30 31  2  0  0  0
  7  1  1  0  0  0
 31  8  1  0  0  0
 29  3  1  0  0  0
 14  9  1  0  0  0
 31 15  1  0  0  0
 21 16  1  0  0  0
 30 22  1  0  0  0
 28 23  1  0  0  0
 34 35  1  0  0  0
 18 32  1  0  0  0
M  END
> <minimizedAffinity>
-3.28389

> <CNNscore>
0.2124501616

> <CNNaffinity>
5.4091215134

> <CNN_VS>
1.1491687298

> <CNNaffinity_variance>
0.1761521995

$$$$
[H]c1c([H])c([H])c2c(c1[H])c1c3c(c4c5c([H])c([H])c([H])c([H])c5n5c4c1n2[C@@]1([H])O[C@]5(C([H])([H])[H])[C@@]([H])(OC([H])([H])[H])[C@@]([H])(N([H])C([H])([H])[H])C1([H])[H])C([H])([H])N([H])C3=O


 37 44  0  0  0  0  0  0  0  0999 V2000
  -89.4137   27.1419   -2.0216 C   0  0  0  0  0  0  0  0  0  0  0  0
  -88.6711   27.2675   -0.7558 C   0  0  0  0  0  0  0  0  0  0  0  0
  -89.1448   28.3519    0.1554 C   0  0  0  0  0  0  0  0  0  0  0  0
  -90.2951   28.9277   -0.0693 O   0  0  0  0  0  0  0  0  0  0  0  0
  -90.8370   29.1256   -1.3183 C   0  0  0  0  0  0  0  0  0  0  0  0
  -92.3192   29.3548   -0.9569 C   0  0  0  0  0  0  0  0  0  0  0  0
  -90.7239   27.8934   -2.0953 C   0  0  0  0  0  0  0  0  0  0  0  0
  -90.2534   30.3290   -1.8871 N   0  0  0  0  0  0  0  0  0  0  0  0
  -90.7683   31.1510   -2.8070 C   0  0  0  0  0  0  0  0  0  0  0  0
  -91.9348   31.1209   -3.5110 C   0  0  0  0  0  0  0  0  0  0  0  0
  -92.2289   32.1208   -4.4260 C   0  0  0  0  0  0  0  0  0  0  0  0
  -91.3826   33.1746   -4.6709 C   0  0  0  0  0  0  0  0  0  0  0  0
  -90.1837   33.2178   -3.9568 C   0  0  0  0  0  0  0  0  0  0  0  0
  -89.9193   32.2125   -3.0561 C   0  0  0  0  0  0  0  0  0  0  0  0
  -88.8180   32.0271   -2.2396 C   0  0  0  0  0  0  0  0  0  0  0  0
  -87.6513   32.7504   -2.0341 C   0  0  0  0  0  0  0  0  0  0  0  0
  -87.2040   34.0187   -2.6860 C   0  0  0  0  0  0  0  0  0  0  0  0
  -85.9383   34.3325   -2.0878 N   0  0  0  0  0  0  0  0  0  0  0  0
  -85.5927   33.3226   -1.1434 C   0  0  0  0  0  0  0  0  0  0  0  0
  -84.5361   33.3669   -0.5086 O   0  0  0  0  0  0  0  0  0  0  0  0
  -86.6788   32.3594   -1.1371 C   0  0  0  0  0  0  0  0  0  0  0  0
  -86.9274   31.1927   -0.4448 C   0  0  0  0  0  0  0  0  0  0  0  0
  -86.2216   30.4795    0.5009 C   0  0  0  0  0  0  0  0  0  0  0  0
  -85.0182   30.6595    1.1217 C   0  0  0  0  0  0  0  0  0  0  0  0
  -84.5987   29.7142    2.0571 C   0  0  0  0  0  0  0  0  0  0  0  0
  -85.3476   28.6044    2.3824 C   0  0  0  0  0  0  0  0  0  0  0  0
  -86.5624   28.4246    1.7540 C   0  0  0  0  0  0  0  0  0  0  0  0
  -86.9718   29.3449    0.8428 C   0  0  0  0  0  0  0  0  0  0  0  0
  -88.0929   29.3832    0.1200 N   0  0  0  0  0  0  0  0  0  0  0  0
  -88.0910   30.4735   -0.6521 C   0  0  0  0  0  0  0  0  0  0  0  0
  -89.0488   30.8923   -1.5556 C   0  0  0  0  0  0  0  0  0  0  0  0
  -85.3592   35.1912   -2.3244 H   0  0  0  0  0  0  0  0  0  0  0  0
  -87.2783   27.8380   -2.6731 C   0  0  0  0  0  0  0  0  0  0  0  0
  -88.5988   27.5286   -3.1810 N   0  0  0  0  0  0  0  0  0  0  0  0
  -88.4990   26.7763   -3.8686 H   0  0  0  0  0  0  0  0  0  0  0  0
  -91.0081   27.9485   -3.4509 O   0  0  0  0  0  0  0  0  0  0  0  0
  -92.0729   27.1979   -3.8641 C   0  0  0  0  0  0  0  0  0  0  0  0
 33 34  1  0  0  0
 34  1  1  0  0  0
  1  2  1  0  0  0
  2  3  1  0  0  0
  3  4  1  0  0  0
  4  5  1  0  0  0
  5  6  1  0  0  0
  5  7  1  0  0  0
  7 36  1  0  0  0
 36 37  1  0  0  0
  5  8  1  0  0  0
  8  9  1  0  0  0
  9 10  2  0  0  0
 10 11  1  0  0  0
 11 12  2  0  0  0
 12 13  1  0  0  0
 13 14  2  0  0  0
 14 15  1  0  0  0
 15 16  2  0  0  0
 16 17  1  0  0  0
 17 18  1  0  0  0
 18 19  1  0  0  0
 19 20  2  0  0  0
 19 21  1  0  0  0
 21 22  2  0  0  0
 22 23  1  0  0  0
 23 24  2  0  0  0
 24 25  1  0  0  0
 25 26  2  0  0  0
 26 27  1  0  0  0
 27 28  2  0  0  0
 28 29  1  0  0  0
 29 30  1  0  0  0
 30 31  2  0  0  0
  7  1  1  0  0  0
 31  8  1  0  0  0
 29  3  1  0  0  0
 14  9  1  0  0  0
 31 15  1  0  0  0
 21 16  1  0  0  0
 30 22  1  0  0  0
 28 23  1  0  0  0
 34 35  1  0  0  0
 18 32  1  0  0  0
M  END
> <minimizedAffinity>
-9.68581

> <CNNscore>
0.1722070724

> <CNNaffinity>
6.3327403069

> <CNN_VS>
1.0905426741

> <CNNaffinity_variance>
0.1618671715

$$$$
[H]c1c([H])c([H])c2c(c1[H])c1c3c(c4c5c([H])c([H])c([H])c([H])c5n5c4c1n2[C@@]1([H])O[C@]5(C([H])([H])[H])[C@@]([H])(OC([H])([H])[H])[C@@]([H])(N([H])C([H])([H])[H])C1([H])[H])C([H])([H])N([H])C3=O


 37 44  0  0  0  0  0  0  0  0999 V2000
  -90.3219   23.8877   -0.4850 C   0  0  0  0  0  0  0  0  0  0  0  0
  -90.1460   25.2516    0.0427 C   0  0  0  0  0  0  0  0  0  0  0  0
  -91.4031   26.0444    0.1901 C   0  0  0  0  0  0  0  0  0  0  0  0
  -92.5592   25.4425    0.1104 O   0  0  0  0  0  0  0  0  0  0  0  0
  -92.8137   24.3445   -0.6787 C   0  0  0  0  0  0  0  0  0  0  0  0
  -94.0959   23.8022   -0.0138 C   0  0  0  0  0  0  0  0  0  0  0  0
  -91.7415   23.3670   -0.5074 C   0  0  0  0  0  0  0  0  0  0  0  0
  -93.0886   24.8035   -2.0300 N   0  0  0  0  0  0  0  0  0  0  0  0
  -93.8129   24.2068   -2.9821 C   0  0  0  0  0  0  0  0  0  0  0  0
  -94.4722   23.0147   -3.0185 C   0  0  0  0  0  0  0  0  0  0  0  0
  -95.1603   22.6272   -4.1587 C   0  0  0  0  0  0  0  0  0  0  0  0
  -95.2166   23.4030   -5.2908 C   0  0  0  0  0  0  0  0  0  0  0  0
  -94.5452   24.6269   -5.2675 C   0  0  0  0  0  0  0  0  0  0  0  0
  -93.8714   24.9844   -4.1229 C   0  0  0  0  0  0  0  0  0  0  0  0
  -93.1373   26.1253   -3.8517 C   0  0  0  0  0  0  0  0  0  0  0  0
  -92.8388   27.2639   -4.5873 C   0  0  0  0  0  0  0  0  0  0  0  0
  -93.2366   27.6113   -5.9853 C   0  0  0  0  0  0  0  0  0  0  0  0
  -92.6752   28.9082   -6.2335 N   0  0  0  0  0  0  0  0  0  0  0  0
  -91.9501   29.3423   -5.0859 C   0  0  0  0  0  0  0  0  0  0  0  0
  -91.3637   30.4273   -5.0654 O   0  0  0  0  0  0  0  0  0  0  0  0
  -92.0747   28.2974   -4.0860 C   0  0  0  0  0  0  0  0  0  0  0  0
  -91.6126   28.1386   -2.7961 C   0  0  0  0  0  0  0  0  0  0  0  0
  -90.8315   28.9122   -1.9640 C   0  0  0  0  0  0  0  0  0  0  0  0
  -90.2292   30.1316   -2.0911 C   0  0  0  0  0  0  0  0  0  0  0  0
  -89.4931   30.6306   -1.0171 C   0  0  0  0  0  0  0  0  0  0  0  0
  -89.3471   29.9449    0.1690 C   0  0  0  0  0  0  0  0  0  0  0  0
  -89.9560   28.7135    0.2950 C   0  0  0  0  0  0  0  0  0  0  0  0
  -90.6733   28.2267   -0.7507 C   0  0  0  0  0  0  0  0  0  0  0  0
  -91.3424   27.0773   -0.8591 N   0  0  0  0  0  0  0  0  0  0  0  0
  -91.9113   27.0023   -2.0655 C   0  0  0  0  0  0  0  0  0  0  0  0
  -92.6823   25.9846   -2.5939 C   0  0  0  0  0  0  0  0  0  0  0  0
  -92.7917   29.4489   -7.1404 H   0  0  0  0  0  0  0  0  0  0  0  0
  -89.0153   24.9527   -2.1060 C   0  0  0  0  0  0  0  0  0  0  0  0
  -89.7592   23.7403   -1.8338 N   0  0  0  0  0  0  0  0  0  0  0  0
  -89.1095   22.9527   -1.9123 H   0  0  0  0  0  0  0  0  0  0  0  0
  -91.6946   22.2905   -1.3794 O   0  0  0  0  0  0  0  0  0  0  0  0
  -92.2637   21.1342   -0.9246 C   0  0  0  0  0  0  0  0  0  0  0  0
 33 34  1  0  0  0
 34  1  1  0  0  0
  1  2  1  0  0  0
  2  3  1  0  0  0
  3  4  1  0  0  0
  4  5  1  0  0  0
  5  6  1  0  0  0
  5  7  1  0  0  0
  7 36  1  0  0  0
 36 37  1  0  0  0
  5  8  1  0  0  0
  8  9  1  0  0  0
  9 10  2  0  0  0
 10 11  1  0  0  0
 11 12  2  0  0  0
 12 13  1  0  0  0
 13 14  2  0  0  0
 14 15  1  0  0  0
 15 16  2  0  0  0
 16 17  1  0  0  0
 17 18  1  0  0  0
 18 19  1  0  0  0
 19 20  2  0  0  0
 19 21  1  0  0  0
 21 22  2  0  0  0
 22 23  1  0  0  0
 23 24  2  0  0  0
 24 25  1  0  0  0
 25 26  2  0  0  0
 26 27  1  0  0  0
 27 28  2  0  0  0
 28 29  1  0  0  0
 29 30  1  0  0  0
 30 31  2  0  0  0
  7  1  1  0  0  0
 31  8  1  0  0  0
 29  3  1  0  0  0
 14  9  1  0  0  0
 31 15  1  0  0  0
 21 16  1  0  0  0
 30 22  1  0  0  0
 28 23  1  0  0  0
 34 35  1  0  0  0
 18 32  1  0  0  0
M  END
> <minimizedAffinity>
-6.12538

> <CNNscore>
0.0811601579

> <CNNaffinity>
5.5181584358

> <CNN_VS>
0.4478546083

> <CNNaffinity_variance>
0.0680447817

$$$$
[H]c1c([H])c([H])c2c(c1[H])c1c3c(c4c5c([H])c([H])c([H])c([H])c5n5c4c1n2[C@@]1([H])O[C@]5(C([H])([H])[H])[C@@]([H])(OC([H])([H])[H])[C@@]([H])(N([H])C([H])([H])[H])C1([H])[H])C([H])([H])N([H])C3=O


 37 44  0  0  0  0  0  0  0  0999 V2000
  -87.4908   26.2538   -0.1466 C   0  0  0  0  0  0  0  0  0  0  0  0
  -86.8517   27.4528    0.4220 C   0  0  0  0  0  0  0  0  0  0  0  0
  -87.7633   28.3620    1.1791 C   0  0  0  0  0  0  0  0  0  0  0  0
  -88.9540   27.9466    1.5181 O   0  0  0  0  0  0  0  0  0  0  0  0
  -89.7123   27.0673    0.7800 C   0  0  0  0  0  0  0  0  0  0  0  0
  -90.7131   26.5815    1.8489 C   0  0  0  0  0  0  0  0  0  0  0  0
  -88.8793   25.9412    0.3643 C   0  0  0  0  0  0  0  0  0  0  0  0
  -90.3951   27.8132   -0.2639 N   0  0  0  0  0  0  0  0  0  0  0  0
  -91.5380   27.5154   -0.8901 C   0  0  0  0  0  0  0  0  0  0  0  0
  -92.3846   26.4518   -0.7930 C   0  0  0  0  0  0  0  0  0  0  0  0
  -93.5264   26.3892   -1.5778 C   0  0  0  0  0  0  0  0  0  0  0  0
  -93.8633   27.3711   -2.4772 C   0  0  0  0  0  0  0  0  0  0  0  0
  -93.0045   28.4665   -2.5873 C   0  0  0  0  0  0  0  0  0  0  0  0
  -91.8799   28.5012   -1.7961 C   0  0  0  0  0  0  0  0  0  0  0  0
  -90.8847   29.4591   -1.7197 C   0  0  0  0  0  0  0  0  0  0  0  0
  -90.6748   30.6692   -2.3665 C   0  0  0  0  0  0  0  0  0  0  0  0
  -91.5087   31.3322   -3.4146 C   0  0  0  0  0  0  0  0  0  0  0  0
  -90.8403   32.5660   -3.7137 N   0  0  0  0  0  0  0  0  0  0  0  0
  -89.6529   32.6677   -2.9321 C   0  0  0  0  0  0  0  0  0  0  0  0
  -88.8996   33.6399   -3.0261 O   0  0  0  0  0  0  0  0  0  0  0  0
  -89.5844   31.4740   -2.1089 C   0  0  0  0  0  0  0  0  0  0  0  0
  -88.6971   31.0068   -1.1618 C   0  0  0  0  0  0  0  0  0  0  0  0
  -87.5144   31.4924   -0.6456 C   0  0  0  0  0  0  0  0  0  0  0  0
  -86.7775   32.6219   -0.8625 C   0  0  0  0  0  0  0  0  0  0  0  0
  -85.5959   32.7995   -0.1437 C   0  0  0  0  0  0  0  0  0  0  0  0
  -85.1392   31.8826    0.7777 C   0  0  0  0  0  0  0  0  0  0  0  0
  -85.8849   30.7425    0.9950 C   0  0  0  0  0  0  0  0  0  0  0  0
  -87.0360   30.5688    0.2951 C   0  0  0  0  0  0  0  0  0  0  0  0
  -87.9109   29.5621    0.3369 N   0  0  0  0  0  0  0  0  0  0  0  0
  -88.9086   29.8000   -0.5191 C   0  0  0  0  0  0  0  0  0  0  0  0
  -90.0127   29.0167   -0.7963 C   0  0  0  0  0  0  0  0  0  0  0  0
  -91.1905   33.2837   -4.4143 H   0  0  0  0  0  0  0  0  0  0  0  0
  -86.8935   27.5301   -2.0130 C   0  0  0  0  0  0  0  0  0  0  0  0
  -87.5425   26.2984   -1.6139 N   0  0  0  0  0  0  0  0  0  0  0  0
  -87.0386   25.5242   -2.0557 H   0  0  0  0  0  0  0  0  0  0  0  0
  -89.3951   25.0588   -0.5721 O   0  0  0  0  0  0  0  0  0  0  0  0
  -89.6718   23.8018   -0.1124 C   0  0  0  0  0  0  0  0  0  0  0  0
 33 34  1  0  0  0
 34  1  1  0  0  0
  1  2  1  0  0  0
  2  3  1  0  0  0
  3  4  1  0  0  0
  4  5  1  0  0  0
  5  6  1  0  0  0
  5  7  1  0  0  0
  7 36  1  0  0  0
 36 37  1  0  0  0
  5  8  1  0  0  0
  8  9  1  0  0  0
  9 10  2  0  0  0
 10 11  1  0  0  0
 11 12  2  0  0  0
 12 13  1  0  0  0
 13 14  2  0  0  0
 14 15  1  0  0  0
 15 16  2  0  0  0
 16 17  1  0  0  0
 17 18  1  0  0  0
 18 19  1  0  0  0
 19 20  2  0  0  0
 19 21  1  0  0  0
 21 22  2  0  0  0
 22 23  1  0  0  0
 23 24  2  0  0  0
 24 25  1  0  0  0
 25 26  2  0  0  0
 26 27  1  0  0  0
 27 28  2  0  0  0
 28 29  1  0  0  0
 29 30  1  0  0  0
 30 31  2  0  0  0
  7  1  1  0  0  0
 31  8  1  0  0  0
 29  3  1  0  0  0
 14  9  1  0  0  0
 31 15  1  0  0  0
 21 16  1  0  0  0
 30 22  1  0  0  0
 28 23  1  0  0  0
 34 35  1  0  0  0
 18 32  1  0  0  0
M  END
> <minimizedAffinity>
-8.96314

> <CNNscore>
0.0788697377

> <CNNaffinity>
5.9812517166

> <CNN_VS>
0.4717397392

> <CNNaffinity_variance>
0.3570260406

$$$$
[H]c1c([H])c([H])c2c(c1[H])c1c3c(c4c5c([H])c([H])c([H])c([H])c5n5c4c1n2[C@@]1([H])O[C@]5(C([H])([H])[H])[C@@]([H])(OC([H])([H])[H])[C@@]([H])(N([H])C([H])([H])[H])C1([H])[H])C([H])([H])N([H])C3=O


 37 44  0  0  0  0  0  0  0  0999 V2000
  -89.2286   33.0555   -1.9979 C   0  0  0  0  0  0  0  0  0  0  0  0
  -87.7899   33.1379   -1.6935 C   0  0  0  0  0  0  0  0  0  0  0  0
  -86.9353   32.1204   -2.3756 C   0  0  0  0  0  0  0  0  0  0  0  0
  -87.4277   31.4199   -3.3616 O   0  0  0  0  0  0  0  0  0  0  0  0
  -88.7454   31.0377   -3.4644 C   0  0  0  0  0  0  0  0  0  0  0  0
  -88.8352   30.7136   -4.9700 C   0  0  0  0  0  0  0  0  0  0  0  0
  -89.6051   32.1828   -3.1742 C   0  0  0  0  0  0  0  0  0  0  0  0
  -88.9397   29.8384   -2.6667 N   0  0  0  0  0  0  0  0  0  0  0  0
  -89.8562   28.8768   -2.8163 C   0  0  0  0  0  0  0  0  0  0  0  0
  -90.8852   28.7222   -3.6963 C   0  0  0  0  0  0  0  0  0  0  0  0
  -91.7051   27.6056   -3.6291 C   0  0  0  0  0  0  0  0  0  0  0  0
  -91.5328   26.6139   -2.6945 C   0  0  0  0  0  0  0  0  0  0  0  0
  -90.4824   26.7597   -1.7862 C   0  0  0  0  0  0  0  0  0  0  0  0
  -89.6861   27.8774   -1.8773 C   0  0  0  0  0  0  0  0  0  0  0  0
  -88.6000   28.2516   -1.1063 C   0  0  0  0  0  0  0  0  0  0  0  0
  -87.9481   27.6658   -0.0300 C   0  0  0  0  0  0  0  0  0  0  0  0
  -88.2543   26.3806    0.6687 C   0  0  0  0  0  0  0  0  0  0  0  0
  -87.2564   26.2521    1.6915 N   0  0  0  0  0  0  0  0  0  0  0  0
  -86.3943   27.3866    1.6630 C   0  0  0  0  0  0  0  0  0  0  0  0
  -85.4627   27.5095    2.4620 O   0  0  0  0  0  0  0  0  0  0  0  0
  -86.8537   28.2404    0.5826 C   0  0  0  0  0  0  0  0  0  0  0  0
  -86.4342   29.4479    0.0643 C   0  0  0  0  0  0  0  0  0  0  0  0
  -85.4195   30.3220    0.3919 C   0  0  0  0  0  0  0  0  0  0  0  0
  -84.4375   30.3227    1.3414 C   0  0  0  0  0  0  0  0  0  0  0  0
  -83.5523   31.3991    1.3892 C   0  0  0  0  0  0  0  0  0  0  0  0
  -83.6261   32.4640    0.5180 C   0  0  0  0  0  0  0  0  0  0  0  0
  -84.6188   32.4613   -0.4399 C   0  0  0  0  0  0  0  0  0  0  0  0
  -85.4815   31.4131   -0.4871 C   0  0  0  0  0  0  0  0  0  0  0  0
  -86.5049   31.1929   -1.3146 N   0  0  0  0  0  0  0  0  0  0  0  0
  -87.0863   30.0297   -1.0083 C   0  0  0  0  0  0  0  0  0  0  0  0
  -88.1786   29.4282   -1.6034 C   0  0  0  0  0  0  0  0  0  0  0  0
  -87.1851   25.4298    2.3603 H   0  0  0  0  0  0  0  0  0  0  0  0
  -89.0821   32.4686    0.2611 C   0  0  0  0  0  0  0  0  0  0  0  0
  -90.0153   32.6214   -0.8359 N   0  0  0  0  0  0  0  0  0  0  0  0
  -90.7201   33.3075   -0.5511 H   0  0  0  0  0  0  0  0  0  0  0  0
  -90.9620   31.9541   -3.0067 O   0  0  0  0  0  0  0  0  0  0  0  0
  -91.7584   32.3182   -4.0561 C   0  0  0  0  0  0  0  0  0  0  0  0
 33 34  1  0  0  0
 34  1  1  0  0  0
  1  2  1  0  0  0
  2  3  1  0  0  0
  3  4  1  0  0  0
  4  5  1  0  0  0
  5  6  1  0  0  0
  5  7  1  0  0  0
  7 36  1  0  0  0
 36 37  1  0  0  0
  5  8  1  0  0  0
  8  9  1  0  0  0
  9 10  2  0  0  0
 10 11  1  0  0  0
 11 12  2  0  0  0
 12 13  1  0  0  0
 13 14  2  0  0  0
 14 15  1  0  0  0
 15 16  2  0  0  0
 16 17  1  0  0  0
 17 18  1  0  0  0
 18 19  1  0  0  0
 19 20  2  0  0  0
 19 21  1  0  0  0
 21 22  2  0  0  0
 22 23  1  0  0  0
 23 24  2  0  0  0
 24 25  1  0  0  0
 25 26  2  0  0  0
 26 27  1  0  0  0
 27 28  2  0  0  0
 28 29  1  0  0  0
 29 30  1  0  0  0
 30 31  2  0  0  0
  7  1  1  0  0  0
 31  8  1  0  0  0
 29  3  1  0  0  0
 14  9  1  0  0  0
 31 15  1  0  0  0
 21 16  1  0  0  0
 30 22  1  0  0  0
 28 23  1  0  0  0
 34 35  1  0  0  0
 18 32  1  0  0  0
M  END
> <minimizedAffinity>
-7.71797

> <CNNscore>
0.0640811324

> <CNNaffinity>
5.8786001205

> <CNN_VS>
0.3767073452

> <CNNaffinity_variance>
0.6747230291

$$$$
[H]c1nc(N([H])c2c([H])c([H])c(N3C([H])([H])C([H])([H])N(C([H])([H])[H])C([H])([H])C3([H])[H])c([H])c2OC([H])([H])[H])nc(-c2c([H])n([H])c3c(C([H])([H])[H])nc([H])c([H])c23)c1[H]


 34 38  0  0  0  0  0  0  0  0999 V2000
  -87.0159   25.9475    1.8388 N   0  0  0  0  0  0  0  0  0  0  0  0
  -86.8174   25.1317    2.5194 H   0  0  0  0  0  0  0  0  0  0  0  0
  -89.3966   26.0010    1.7184 C   0  0  0  0  0  0  0  0  0  0  0  0
  -90.5954   25.9612    1.0445 C   0  0  0  0  0  0  0  0  0  0  0  0
  -90.6132   25.8090   -0.3248 C   0  0  0  0  0  0  0  0  0  0  0  0
  -89.4092   25.7014   -0.9740 C   0  0  0  0  0  0  0  0  0  0  0  0
  -88.1796   25.7405   -0.2995 C   0  0  0  0  0  0  0  0  0  0  0  0
  -88.1538   25.8910    1.0577 C   0  0  0  0  0  0  0  0  0  0  0  0
  -91.8827   25.7764   -0.9659 N   0  0  0  0  0  0  0  0  0  0  0  0
  -92.1673   26.4404   -2.2255 C   0  0  0  0  0  0  0  0  0  0  0  0
  -92.8054   25.3873   -3.1135 C   0  0  0  0  0  0  0  0  0  0  0  0
  -94.0684   24.9412   -2.6070 N   0  0  0  0  0  0  0  0  0  0  0  0
  -95.1953   25.4573   -3.3455 C   0  0  0  0  0  0  0  0  0  0  0  0
  -94.2159   24.9857   -1.2008 C   0  0  0  0  0  0  0  0  0  0  0  0
  -92.9979   25.0550   -0.3736 C   0  0  0  0  0  0  0  0  0  0  0  0
  -89.8283   27.3850    3.6430 C   0  0  0  0  0  0  0  0  0  0  0  0
  -89.4076   26.1557    3.1035 O   0  0  0  0  0  0  0  0  0  0  0  0
  -86.0170   26.9625    1.8896 C   0  0  0  0  0  0  0  0  0  0  0  0
  -84.8527   26.8616    2.5261 N   0  0  0  0  0  0  0  0  0  0  0  0
  -83.9641   27.8479    2.5356 C   0  0  0  0  0  0  0  0  0  0  0  0
  -84.2008   29.0643    1.8710 C   0  0  0  0  0  0  0  0  0  0  0  0
  -85.3907   29.1827    1.2157 C   0  0  0  0  0  0  0  0  0  0  0  0
  -86.2285   28.1369    1.2575 N   0  0  0  0  0  0  0  0  0  0  0  0
  -85.8007   30.3492    0.4247 C   0  0  0  0  0  0  0  0  0  0  0  0
  -87.1238   30.5379   -0.0130 C   0  0  0  0  0  0  0  0  0  0  0  0
  -87.2286   31.6873   -0.6728 N   0  0  0  0  0  0  0  0  0  0  0  0
  -86.0064   32.2457   -0.6706 C   0  0  0  0  0  0  0  0  0  0  0  0
  -85.5326   33.4325   -1.1867 C   0  0  0  0  0  0  0  0  0  0  0  0
  -86.5221   34.2986   -1.9173 C   0  0  0  0  0  0  0  0  0  0  0  0
  -84.2490   33.8022   -1.0458 N   0  0  0  0  0  0  0  0  0  0  0  0
  -83.3553   33.0476   -0.3998 C   0  0  0  0  0  0  0  0  0  0  0  0
  -83.7935   31.8404    0.1364 C   0  0  0  0  0  0  0  0  0  0  0  0
  -85.1116   31.4300    0.0060 C   0  0  0  0  0  0  0  0  0  0  0  0
  -88.1032   32.1037   -1.1242 H   0  0  0  0  0  0  0  0  0  0  0  0
 16 17  1  0  0  0
 17  3  1  0  0  0
  3  4  2  0  0  0
  4  5  1  0  0  0
  5  6  2  0  0  0
  6  7  1  0  0  0
  7  8  2  0  0  0
  8  1  1  0  0  0
  1 18  1  0  0  0
 18 19  2  0  0  0
 19 20  1  0  0  0
 20 21  2  0  0  0
 21 22  1  0  0  0
 22 23  2  0  0  0
 22 24  1  0  0  0
 24 25  2  0  0  0
 25 26  1  0  0  0
 26 27  1  0  0  0
 27 28  2  0  0  0
 28 29  1  0  0  0
 28 30  1  0  0  0
 30 31  2  0  0  0
 31 32  1  0  0  0
 32 33  2  0  0  0
  5  9  1  0  0  0
  9 10  1  0  0  0
 10 11  1  0  0  0
 11 12  1  0  0  0
 12 13  1  0  0  0
 12 14  1  0  0  0
 14 15  1  0  0  0
  8  3  1  0  0  0
 23 18  1  0  0  0
 33 24  1  0  0  0
 15  9  1  0  0  0
 33 27  1  0  0  0
  1  2  1  0  0  0
 26 34  1  0  0  0
M  END
> <minimizedAffinity>
-8.51881

> <CNNscore>
0.5403301120

> <CNNaffinity>
7.1894330978

> <CNN_VS>
3.8846671581

> <CNNaffinity_variance>
0.0360834524

$$$$
[H]c1nc(N([H])c2c([H])c([H])c(N3C([H])([H])C([H])([H])N(C([H])([H])[H])C([H])([H])C3([H])[H])c([H])c2OC([H])([H])[H])nc(-c2c([H])n([H])c3c(C([H])([H])[H])nc([H])c([H])c23)c1[H]


 34 38  0  0  0  0  0  0  0  0999 V2000
  -86.0564   33.7041   -2.8764 N   0  0  0  0  0  0  0  0  0  0  0  0
  -85.1938   33.9914   -3.4609 H   0  0  0  0  0  0  0  0  0  0  0  0
  -87.9383   33.1308   -4.2235 C   0  0  0  0  0  0  0  0  0  0  0  0
  -89.1881   33.3585   -4.7516 C   0  0  0  0  0  0  0  0  0  0  0  0
  -89.8752   34.5084   -4.4290 C   0  0  0  0  0  0  0  0  0  0  0  0
  -89.2721   35.3981   -3.5761 C   0  0  0  0  0  0  0  0  0  0  0  0
  -87.9984   35.1787   -3.0303 C   0  0  0  0  0  0  0  0  0  0  0  0
  -87.3112   34.0412   -3.3454 C   0  0  0  0  0  0  0  0  0  0  0  0
  -91.1636   34.6875   -5.0048 N   0  0  0  0  0  0  0  0  0  0  0  0
  -92.0715   35.7580   -4.6327 C   0  0  0  0  0  0  0  0  0  0  0  0
  -92.4957   36.4122   -5.9353 C   0  0  0  0  0  0  0  0  0  0  0  0
  -93.2500   35.5255   -6.7692 N   0  0  0  0  0  0  0  0  0  0  0  0
  -94.6606   35.8274   -6.7964 C   0  0  0  0  0  0  0  0  0  0  0  0
  -92.9447   34.1506   -6.6368 C   0  0  0  0  0  0  0  0  0  0  0  0
  -91.6555   33.7778   -6.0273 C   0  0  0  0  0  0  0  0  0  0  0  0
  -87.9184   30.7266   -4.3837 C   0  0  0  0  0  0  0  0  0  0  0  0
  -87.2655   31.9594   -4.5666 O   0  0  0  0  0  0  0  0  0  0  0  0
  -85.7064   33.0028   -1.6862 C   0  0  0  0  0  0  0  0  0  0  0  0
  -84.6842   33.3058   -0.8900 N   0  0  0  0  0  0  0  0  0  0  0  0
  -84.4111   32.6088    0.2065 C   0  0  0  0  0  0  0  0  0  0  0  0
  -85.1888   31.5033    0.5941 C   0  0  0  0  0  0  0  0  0  0  0  0
  -86.2390   31.1800   -0.2134 C   0  0  0  0  0  0  0  0  0  0  0  0
  -86.4423   31.9385   -1.3000 N   0  0  0  0  0  0  0  0  0  0  0  0
  -87.1945   30.0963    0.0459 C   0  0  0  0  0  0  0  0  0  0  0  0
  -86.8683   28.9721    0.8254 C   0  0  0  0  0  0  0  0  0  0  0  0
  -87.9212   28.1675    0.9321 N   0  0  0  0  0  0  0  0  0  0  0  0
  -88.9191   28.7451    0.2421 C   0  0  0  0  0  0  0  0  0  0  0  0
  -90.2275   28.3713    0.0234 C   0  0  0  0  0  0  0  0  0  0  0  0
  -90.6731   27.0701    0.6328 C   0  0  0  0  0  0  0  0  0  0  0  0
  -91.0681   29.1302   -0.6987 N   0  0  0  0  0  0  0  0  0  0  0  0
  -90.6919   30.2890   -1.2473 C   0  0  0  0  0  0  0  0  0  0  0  0
  -89.3777   30.7026   -1.0502 C   0  0  0  0  0  0  0  0  0  0  0  0
  -88.4853   29.9405   -0.3115 C   0  0  0  0  0  0  0  0  0  0  0  0
  -87.9830   27.2392    1.4580 H   0  0  0  0  0  0  0  0  0  0  0  0
 16 17  1  0  0  0
 17  3  1  0  0  0
  3  4  2  0  0  0
  4  5  1  0  0  0
  5  6  2  0  0  0
  6  7  1  0  0  0
  7  8  2  0  0  0
  8  1  1  0  0  0
  1 18  1  0  0  0
 18 19  2  0  0  0
 19 20  1  0  0  0
 20 21  2  0  0  0
 21 22  1  0  0  0
 22 23  2  0  0  0
 22 24  1  0  0  0
 24 25  2  0  0  0
 25 26  1  0  0  0
 26 27  1  0  0  0
 27 28  2  0  0  0
 28 29  1  0  0  0
 28 30  1  0  0  0
 30 31  2  0  0  0
 31 32  1  0  0  0
 32 33  2  0  0  0
  5  9  1  0  0  0
  9 10  1  0  0  0
 10 11  1  0  0  0
 11 12  1  0  0  0
 12 13  1  0  0  0
 12 14  1  0  0  0
 14 15  1  0  0  0
  8  3  1  0  0  0
 23 18  1  0  0  0
 33 24  1  0  0  0
 15  9  1  0  0  0
 33 27  1  0  0  0
  1  2  1  0  0  0
 26 34  1  0  0  0
M  END
> <minimizedAffinity>
-7.54709

> <CNNscore>
0.2857251167

> <CNNaffinity>
6.6653199196

> <CNN_VS>
1.9044493437

> <CNNaffinity_variance>
0.0697520077

$$$$
[H]c1nc(N([H])c2c([H])c([H])c(N3C([H])([H])C([H])([H])N(C([H])([H])[H])C([H])([H])C3([H])[H])c([H])c2OC([H])([H])[H])nc(-c2c([H])n([H])c3c(C([H])([H])[H])nc([H])c([H])c23)c1[H]


 34 38  0  0  0  0  0  0  0  0999 V2000
  -86.6420   28.2571    2.5428 N   0  0  0  0  0  0  0  0  0  0  0  0
  -86.8450   28.4208    3.5917 H   0  0  0  0  0  0  0  0  0  0  0  0
  -88.7243   27.1076    2.3754 C   0  0  0  0  0  0  0  0  0  0  0  0
  -89.6076   26.2445    1.7692 C   0  0  0  0  0  0  0  0  0  0  0  0
  -89.2531   25.5985    0.6050 C   0  0  0  0  0  0  0  0  0  0  0  0
  -88.0073   25.8479    0.0867 C   0  0  0  0  0  0  0  0  0  0  0  0
  -87.0968   26.7256    0.6943 C   0  0  0  0  0  0  0  0  0  0  0  0
  -87.4410   27.3696    1.8484 C   0  0  0  0  0  0  0  0  0  0  0  0
  -90.2087   24.7193    0.0241 N   0  0  0  0  0  0  0  0  0  0  0  0
  -91.2339   25.1469   -0.9112 C   0  0  0  0  0  0  0  0  0  0  0  0
  -91.1274   24.2082   -2.0996 C   0  0  0  0  0  0  0  0  0  0  0  0
  -91.4457   22.8553   -1.7546 N   0  0  0  0  0  0  0  0  0  0  0  0
  -92.7384   22.4316   -2.2353 C   0  0  0  0  0  0  0  0  0  0  0  0
  -91.1614   22.4791   -0.4209 C   0  0  0  0  0  0  0  0  0  0  0  0
  -90.2103   23.3016    0.3482 C   0  0  0  0  0  0  0  0  0  0  0  0
  -90.4770   27.8052    3.8746 C   0  0  0  0  0  0  0  0  0  0  0  0
  -89.1087   27.7477    3.5523 O   0  0  0  0  0  0  0  0  0  0  0  0
  -85.5409   29.0272    2.0682 C   0  0  0  0  0  0  0  0  0  0  0  0
  -84.2636   28.8047    2.3680 N   0  0  0  0  0  0  0  0  0  0  0  0
  -83.2832   29.5628    1.8921 C   0  0  0  0  0  0  0  0  0  0  0  0
  -83.5363   30.6517    1.0392 C   0  0  0  0  0  0  0  0  0  0  0  0
  -84.8410   30.8928    0.7246 C   0  0  0  0  0  0  0  0  0  0  0  0
  -85.7664   30.0766    1.2490 N   0  0  0  0  0  0  0  0  0  0  0  0
  -85.3037   31.9465   -0.1865 C   0  0  0  0  0  0  0  0  0  0  0  0
  -84.4237   32.8602   -0.7936 C   0  0  0  0  0  0  0  0  0  0  0  0
  -85.0960   33.6793   -1.5965 N   0  0  0  0  0  0  0  0  0  0  0  0
  -86.3876   33.3160   -1.5237 C   0  0  0  0  0  0  0  0  0  0  0  0
  -87.5187   33.7976   -2.1467 C   0  0  0  0  0  0  0  0  0  0  0  0
  -87.3356   34.9617   -3.0819 C   0  0  0  0  0  0  0  0  0  0  0  0
  -88.7288   33.2558   -1.9322 N   0  0  0  0  0  0  0  0  0  0  0  0
  -88.9120   32.2215   -1.1064 C   0  0  0  0  0  0  0  0  0  0  0  0
  -87.7946   31.7053   -0.4569 C   0  0  0  0  0  0  0  0  0  0  0  0
  -86.5323   32.2439   -0.6558 C   0  0  0  0  0  0  0  0  0  0  0  0
  -84.7054   34.4766   -2.1913 H   0  0  0  0  0  0  0  0  0  0  0  0
 16 17  1  0  0  0
 17  3  1  0  0  0
  3  4  2  0  0  0
  4  5  1  0  0  0
  5  6  2  0  0  0
  6  7  1  0  0  0
  7  8  2  0  0  0
  8  1  1  0  0  0
  1 18  1  0  0  0
 18 19  2  0  0  0
 19 20  1  0  0  0
 20 21  2  0  0  0
 21 22  1  0  0  0
 22 23  2  0  0  0
 22 24  1  0  0  0
 24 25  2  0  0  0
 25 26  1  0  0  0
 26 27  1  0  0  0
 27 28  2  0  0  0
 28 29  1  0  0  0
 28 30  1  0  0  0
 30 31  2  0  0  0
 31 32  1  0  0  0
 32 33  2  0  0  0
  5  9  1  0  0  0
  9 10  1  0  0  0
 10 11  1  0  0  0
 11 12  1  0  0  0
 12 13  1  0  0  0
 12 14  1  0  0  0
 14 15  1  0  0  0
  8  3  1  0  0  0
 23 18  1  0  0  0
 33 24  1  0  0  0
 15  9  1  0  0  0
 33 27  1  0  0  0
  1  2  1  0  0  0
 26 34  1  0  0  0
M  END
> <minimizedAffinity>
-9.38848

> <CNNscore>
0.2824317515

> <CNNaffinity>
7.0558395386

> <CNN_VS>
1.9927930832

> <CNNaffinity_variance>
0.0265869163

$$$$
[H]c1nc(N([H])c2c([H])c([H])c(N3C([H])([H])C([H])([H])N(C([H])([H])[H])C([H])([H])C3([H])[H])c([H])c2OC([H])([H])[H])nc(-c2c([H])n([H])c3c(C([H])([H])[H])nc([H])c([H])c23)c1[H]


 34 38  0  0  0  0  0  0  0  0999 V2000
  -86.2796   33.7442   -3.1299 N   0  0  0  0  0  0  0  0  0  0  0  0
  -85.4292   34.0231   -3.7358 H   0  0  0  0  0  0  0  0  0  0  0  0
  -88.1335   33.0824   -4.4754 C   0  0  0  0  0  0  0  0  0  0  0  0
  -89.3904   33.2539   -5.0077 C   0  0  0  0  0  0  0  0  0  0  0  0
  -90.1249   34.3774   -4.6965 C   0  0  0  0  0  0  0  0  0  0  0  0
  -89.5608   35.2985   -3.8503 C   0  0  0  0  0  0  0  0  0  0  0  0
  -88.2803   35.1363   -3.3003 C   0  0  0  0  0  0  0  0  0  0  0  0
  -87.5462   34.0254   -3.6041 C   0  0  0  0  0  0  0  0  0  0  0  0
  -91.4183   34.4983   -5.2762 N   0  0  0  0  0  0  0  0  0  0  0  0
  -92.4721   35.3346   -4.7295 C   0  0  0  0  0  0  0  0  0  0  0  0
  -92.9674   36.1847   -5.8856 C   0  0  0  0  0  0  0  0  0  0  0  0
  -93.5792   35.3997   -6.9152 N   0  0  0  0  0  0  0  0  0  0  0  0
  -95.0177   35.5079   -6.9384 C   0  0  0  0  0  0  0  0  0  0  0  0
  -93.0857   34.0816   -7.0568 C   0  0  0  0  0  0  0  0  0  0  0  0
  -91.7646   33.7661   -6.4840 C   0  0  0  0  0  0  0  0  0  0  0  0
  -87.8908   30.6873   -4.3718 C   0  0  0  0  0  0  0  0  0  0  0  0
  -87.4124   31.9367   -4.8070 O   0  0  0  0  0  0  0  0  0  0  0  0
  -85.9028   33.1132   -1.9090 C   0  0  0  0  0  0  0  0  0  0  0  0
  -84.8812   33.4804   -1.1394 N   0  0  0  0  0  0  0  0  0  0  0  0
  -84.5822   32.8471   -0.0115 C   0  0  0  0  0  0  0  0  0  0  0  0
  -85.3299   31.7450    0.4396 C   0  0  0  0  0  0  0  0  0  0  0  0
  -86.3790   31.3563   -0.3400 C   0  0  0  0  0  0  0  0  0  0  0  0
  -86.6097   32.0531   -1.4618 N   0  0  0  0  0  0  0  0  0  0  0  0
  -87.3060   30.2653   -0.0163 C   0  0  0  0  0  0  0  0  0  0  0  0
  -88.6731   30.3136   -0.3431 C   0  0  0  0  0  0  0  0  0  0  0  0
  -89.2726   29.1862    0.0270 N   0  0  0  0  0  0  0  0  0  0  0  0
  -88.3264   28.4110    0.5831 C   0  0  0  0  0  0  0  0  0  0  0  0
  -88.3706   27.1434    1.1222 C   0  0  0  0  0  0  0  0  0  0  0  0
  -89.7089   26.4566    1.1341 C   0  0  0  0  0  0  0  0  0  0  0  0
  -87.2729   26.5459    1.6143 N   0  0  0  0  0  0  0  0  0  0  0  0
  -86.0754   27.1387    1.6121 C   0  0  0  0  0  0  0  0  0  0  0  0
  -85.9879   28.4203    1.0764 C   0  0  0  0  0  0  0  0  0  0  0  0
  -87.1032   29.0645    0.5627 C   0  0  0  0  0  0  0  0  0  0  0  0
  -90.3034   28.9273   -0.0860 H   0  0  0  0  0  0  0  0  0  0  0  0
 16 17  1  0  0  0
 17  3  1  0  0  0
  3  4  2  0  0  0
  4  5  1  0  0  0
  5  6  2  0  0  0
  6  7  1  0  0  0
  7  8  2  0  0  0
  8  1  1  0  0  0
  1 18  1  0  0  0
 18 19  2  0  0  0
 19 20  1  0  0  0
 20 21  2  0  0  0
 21 22  1  0  0  0
 22 23  2  0  0  0
 22 24  1  0  0  0
 24 25  2  0  0  0
 25 26  1  0  0  0
 26 27  1  0  0  0
 27 28  2  0  0  0
 28 29  1  0  0  0
 28 30  1  0  0  0
 30 31  2  0  0  0
 31 32  1  0  0  0
 32 33  2  0  0  0
  5  9  1  0  0  0
  9 10  1  0  0  0
 10 11  1  0  0  0
 11 12  1  0  0  0
 12 13  1  0  0  0
 12 14  1  0  0  0
 14 15  1  0  0  0
  8  3  1  0  0  0
 23 18  1  0  0  0
 33 24  1  0  0  0
 15  9  1  0  0  0
 33 27  1  0  0  0
  1  2  1  0  0  0
 26 34  1  0  0  0
M  END
> <minimizedAffinity>
-7.94992

> <CNNscore>
0.2775764167

> <CNNaffinity>
6.6582617760

> <CNN_VS>
1.8481764793

> <CNNaffinity_variance>
0.0624844730

$$$$
[H]c1nc(N([H])c2c([H])c([H])c(N3C([H])([H])C([H])([H])N(C([H])([H])[H])C([H])([H])C3([H])[H])c([H])c2OC([H])([H])[H])nc(-c2c([H])n([H])c3c(C([H])([H])[H])nc([H])c([H])c23)c1[H]


 34 38  0  0  0  0  0  0  0  0999 V2000
  -86.3786   33.8634   -3.2012 N   0  0  0  0  0  0  0  0  0  0  0  0
  -85.5625   34.4488   -3.6005 H   0  0  0  0  0  0  0  0  0  0  0  0
  -88.3636   35.0536   -3.7744 C   0  0  0  0  0  0  0  0  0  0  0  0
  -89.5823   35.1844   -4.3992 C   0  0  0  0  0  0  0  0  0  0  0  0
  -90.0881   34.1463   -5.1508 C   0  0  0  0  0  0  0  0  0  0  0  0
  -89.3396   33.0003   -5.2476 C   0  0  0  0  0  0  0  0  0  0  0  0
  -88.0956   32.8534   -4.6159 C   0  0  0  0  0  0  0  0  0  0  0  0
  -87.5876   33.8780   -3.8692 C   0  0  0  0  0  0  0  0  0  0  0  0
  -91.3521   34.3410   -5.7738 N   0  0  0  0  0  0  0  0  0  0  0  0
  -91.6358   33.9811   -7.1517 C   0  0  0  0  0  0  0  0  0  0  0  0
  -92.9039   33.1475   -7.1089 C   0  0  0  0  0  0  0  0  0  0  0  0
  -94.0347   33.9000   -6.6554 N   0  0  0  0  0  0  0  0  0  0  0  0
  -94.9532   34.2455   -7.7131 C   0  0  0  0  0  0  0  0  0  0  0  0
  -93.7496   34.9538   -5.7558 C   0  0  0  0  0  0  0  0  0  0  0  0
  -92.4608   34.9311   -5.0408 C   0  0  0  0  0  0  0  0  0  0  0  0
  -87.8739   37.4057   -3.5901 C   0  0  0  0  0  0  0  0  0  0  0  0
  -87.8757   36.1194   -3.0203 O   0  0  0  0  0  0  0  0  0  0  0  0
  -86.0237   33.1629   -2.0120 C   0  0  0  0  0  0  0  0  0  0  0  0
  -84.9538   33.4170   -1.2626 N   0  0  0  0  0  0  0  0  0  0  0  0
  -84.6791   32.7239   -0.1642 C   0  0  0  0  0  0  0  0  0  0  0  0
  -85.5055   31.6746    0.2755 C   0  0  0  0  0  0  0  0  0  0  0  0
  -86.6049   31.4018   -0.4837 C   0  0  0  0  0  0  0  0  0  0  0  0
  -86.8059   32.1522   -1.5763 N   0  0  0  0  0  0  0  0  0  0  0  0
  -87.6124   30.3828   -0.1657 C   0  0  0  0  0  0  0  0  0  0  0  0
  -88.9844   30.5759   -0.4071 C   0  0  0  0  0  0  0  0  0  0  0  0
  -89.6673   29.4880   -0.0644 N   0  0  0  0  0  0  0  0  0  0  0  0
  -88.7702   28.5972    0.3907 C   0  0  0  0  0  0  0  0  0  0  0  0
  -88.9052   27.3088    0.8610 C   0  0  0  0  0  0  0  0  0  0  0  0
  -90.3001   26.7481    0.9151 C   0  0  0  0  0  0  0  0  0  0  0  0
  -87.8442   26.5846    1.2531 N   0  0  0  0  0  0  0  0  0  0  0  0
  -86.5976   27.0641    1.2120 C   0  0  0  0  0  0  0  0  0  0  0  0
  -86.4180   28.3622    0.7433 C   0  0  0  0  0  0  0  0  0  0  0  0
  -87.4934   29.1358    0.3333 C   0  0  0  0  0  0  0  0  0  0  0  0
  -90.7226   29.3320   -0.1297 H   0  0  0  0  0  0  0  0  0  0  0  0
 16 17  1  0  0  0
 17  3  1  0  0  0
  3  4  2  0  0  0
  4  5  1  0  0  0
  5  6  2  0  0  0
  6  7  1  0  0  0
  7  8  2  0  0  0
  8  1  1  0  0  0
  1 18  1  0  0  0
 18 19  2  0  0  0
 19 20  1  0  0  0
 20 21  2  0  0  0
 21 22  1  0  0  0
 22 23  2  0  0  0
 22 24  1  0  0  0
 24 25  2  0  0  0
 25 26  1  0  0  0
 26 27  1  0  0  0
 27 28  2  0  0  0
 28 29  1  0  0  0
 28 30  1  0  0  0
 30 31  2  0  0  0
 31 32  1  0  0  0
 32 33  2  0  0  0
  5  9  1  0  0  0
  9 10  1  0  0  0
 10 11  1  0  0  0
 11 12  1  0  0  0
 12 13  1  0  0  0
 12 14  1  0  0  0
 14 15  1  0  0  0
  8  3  1  0  0  0
 23 18  1  0  0  0
 33 24  1  0  0  0
 15  9  1  0  0  0
 33 27  1  0  0  0
  1  2  1  0  0  0
 26 34  1  0  0  0
M  END
> <minimizedAffinity>
-7.72081

> <CNNscore>
0.2529891431

> <CNNaffinity>
6.7460417747

> <CNN_VS>
1.7066752911

> <CNNaffinity_variance>
0.0252387878

$$$$
[H]c1nc(N([H])c2c([H])c([H])c(N3C([H])([H])C([H])([H])N(C([H])([H])[H])C([H])([H])C3([H])[H])c([H])c2OC([H])([H])[H])nc(-c2c([H])n([H])c3c(C([H])([H])[H])nc([H])c([H])c23)c1[H]


 34 38  0  0  0  0  0  0  0  0999 V2000
  -88.3722   32.8637   -0.8121 N   0  0  0  0  0  0  0  0  0  0  0  0
  -88.8502   33.8092   -0.5982 H   0  0  0  0  0  0  0  0  0  0  0  0
  -90.0257   31.7746   -2.1406 C   0  0  0  0  0  0  0  0  0  0  0  0
  -90.8624   30.7266   -2.4479 C   0  0  0  0  0  0  0  0  0  0  0  0
  -90.8863   29.6047   -1.6483 C   0  0  0  0  0  0  0  0  0  0  0  0
  -90.0570   29.5780   -0.5555 C   0  0  0  0  0  0  0  0  0  0  0  0
  -89.1990   30.6393   -0.2305 C   0  0  0  0  0  0  0  0  0  0  0  0
  -89.1696   31.7547   -1.0182 C   0  0  0  0  0  0  0  0  0  0  0  0
  -91.7707   28.5534   -2.0175 N   0  0  0  0  0  0  0  0  0  0  0  0
  -92.6533   28.6092   -3.1693 C   0  0  0  0  0  0  0  0  0  0  0  0
  -92.4047   27.3272   -3.9435 C   0  0  0  0  0  0  0  0  0  0  0  0
  -92.7905   26.1623   -3.2053 N   0  0  0  0  0  0  0  0  0  0  0  0
  -94.0141   25.5634   -3.6803 C   0  0  0  0  0  0  0  0  0  0  0  0
  -92.6945   26.2681   -1.7979 C   0  0  0  0  0  0  0  0  0  0  0  0
  -91.8409   27.3297   -1.2348 C   0  0  0  0  0  0  0  0  0  0  0  0
  -90.6189   32.8042   -4.2369 C   0  0  0  0  0  0  0  0  0  0  0  0
  -90.0217   32.8974   -2.9664 O   0  0  0  0  0  0  0  0  0  0  0  0
  -86.9506   32.9592   -0.8402 C   0  0  0  0  0  0  0  0  0  0  0  0
  -86.2583   33.9178   -1.4505 N   0  0  0  0  0  0  0  0  0  0  0  0
  -84.9311   33.9477   -1.4397 C   0  0  0  0  0  0  0  0  0  0  0  0
  -84.1734   32.9637   -0.7801 C   0  0  0  0  0  0  0  0  0  0  0  0
  -84.8696   31.9739   -0.1516 C   0  0  0  0  0  0  0  0  0  0  0  0
  -86.2080   32.0222   -0.2125 N   0  0  0  0  0  0  0  0  0  0  0  0
  -84.2648   30.8891    0.6306 C   0  0  0  0  0  0  0  0  0  0  0  0
  -82.9614   30.9701    1.1526 C   0  0  0  0  0  0  0  0  0  0  0  0
  -82.6776   29.8734    1.8483 N   0  0  0  0  0  0  0  0  0  0  0  0
  -83.7658   29.0873    1.7895 C   0  0  0  0  0  0  0  0  0  0  0  0
  -84.0429   27.8519    2.3339 C   0  0  0  0  0  0  0  0  0  0  0  0
  -82.9506   27.2047    3.1408 C   0  0  0  0  0  0  0  0  0  0  0  0
  -85.2307   27.2510    2.1551 N   0  0  0  0  0  0  0  0  0  0  0  0
  -86.2136   27.8095    1.4427 C   0  0  0  0  0  0  0  0  0  0  0  0
  -85.9739   29.0576    0.8755 C   0  0  0  0  0  0  0  0  0  0  0  0
  -84.7575   29.7026    1.0402 C   0  0  0  0  0  0  0  0  0  0  0  0
  -81.7688   29.6423    2.3610 H   0  0  0  0  0  0  0  0  0  0  0  0
 16 17  1  0  0  0
 17  3  1  0  0  0
  3  4  2  0  0  0
  4  5  1  0  0  0
  5  6  2  0  0  0
  6  7  1  0  0  0
  7  8  2  0  0  0
  8  1  1  0  0  0
  1 18  1  0  0  0
 18 19  2  0  0  0
 19 20  1  0  0  0
 20 21  2  0  0  0
 21 22  1  0  0  0
 22 23  2  0  0  0
 22 24  1  0  0  0
 24 25  2  0  0  0
 25 26  1  0  0  0
 26 27  1  0  0  0
 27 28  2  0  0  0
 28 29  1  0  0  0
 28 30  1  0  0  0
 30 31  2  0  0  0
 31 32  1  0  0  0
 32 33  2  0  0  0
  5  9  1  0  0  0
  9 10  1  0  0  0
 10 11  1  0  0  0
 11 12  1  0  0  0
 12 13  1  0  0  0
 12 14  1  0  0  0
 14 15  1  0  0  0
  8  3  1  0  0  0
 23 18  1  0  0  0
 33 24  1  0  0  0
 15  9  1  0  0  0
 33 27  1  0  0  0
  1  2  1  0  0  0
 26 34  1  0  0  0
M  END
> <minimizedAffinity>
-7.99975

> <CNNscore>
0.2381976545

> <CNNaffinity>
6.7377653122

> <CNN_VS>
1.6049199104

> <CNNaffinity_variance>
0.1559619308

$$$$
[H]c1nc(N([H])c2c([H])c([H])c(N3C([H])([H])C([H])([H])N(C([H])([H])[H])C([H])([H])C3([H])[H])c([H])c2OC([H])([H])[H])nc(-c2c([H])n([H])c3c(C([H])([H])[H])nc([H])c([H])c23)c1[H]


 34 38  0  0  0  0  0  0  0  0999 V2000
  -86.6069   33.6192   -3.2038 N   0  0  0  0  0  0  0  0  0  0  0  0
  -86.1006   33.2110   -4.0671 H   0  0  0  0  0  0  0  0  0  0  0  0
  -88.9054   34.0981   -3.6195 C   0  0  0  0  0  0  0  0  0  0  0  0
  -89.9665   34.9484   -3.8285 C   0  0  0  0  0  0  0  0  0  0  0  0
  -89.7681   36.3119   -3.8342 C   0  0  0  0  0  0  0  0  0  0  0  0
  -88.4934   36.7756   -3.6266 C   0  0  0  0  0  0  0  0  0  0  0  0
  -87.4024   35.9199   -3.4123 C   0  0  0  0  0  0  0  0  0  0  0  0
  -87.5912   34.5673   -3.4052 C   0  0  0  0  0  0  0  0  0  0  0  0
  -90.9035   37.1403   -4.0539 N   0  0  0  0  0  0  0  0  0  0  0  0
  -92.2419   36.6282   -4.2888 C   0  0  0  0  0  0  0  0  0  0  0  0
  -93.1426   37.3600   -3.3100 C   0  0  0  0  0  0  0  0  0  0  0  0
  -93.2046   38.7660   -3.5744 N   0  0  0  0  0  0  0  0  0  0  0  0
  -94.4478   39.1800   -4.1784 C   0  0  0  0  0  0  0  0  0  0  0  0
  -92.0482   39.3317   -4.1606 C   0  0  0  0  0  0  0  0  0  0  0  0
  -90.7791   38.5892   -4.0567 C   0  0  0  0  0  0  0  0  0  0  0  0
  -89.9395   32.1716   -4.6322 C   0  0  0  0  0  0  0  0  0  0  0  0
  -89.1343   32.7232   -3.6189 O   0  0  0  0  0  0  0  0  0  0  0  0
  -86.1339   33.0696   -1.9770 C   0  0  0  0  0  0  0  0  0  0  0  0
  -85.2289   33.6348   -1.1818 N   0  0  0  0  0  0  0  0  0  0  0  0
  -84.8295   33.0676   -0.0499 C   0  0  0  0  0  0  0  0  0  0  0  0
  -85.3406   31.8298    0.3788 C   0  0  0  0  0  0  0  0  0  0  0  0
  -86.2678   31.2379   -0.4270 C   0  0  0  0  0  0  0  0  0  0  0  0
  -86.6138   31.8815   -1.5511 N   0  0  0  0  0  0  0  0  0  0  0  0
  -86.9537   29.9747   -0.1300 C   0  0  0  0  0  0  0  0  0  0  0  0
  -86.2616   28.8096    0.2462 C   0  0  0  0  0  0  0  0  0  0  0  0
  -87.1209   27.8257    0.4928 N   0  0  0  0  0  0  0  0  0  0  0  0
  -88.3504   28.3271    0.2863 C   0  0  0  0  0  0  0  0  0  0  0  0
  -89.6060   27.7711    0.4040 C   0  0  0  0  0  0  0  0  0  0  0  0
  -89.6732   26.3274    0.8212 C   0  0  0  0  0  0  0  0  0  0  0  0
  -90.7193   28.4815    0.1592 N   0  0  0  0  0  0  0  0  0  0  0  0
  -90.6807   29.7646   -0.2115 C   0  0  0  0  0  0  0  0  0  0  0  0
  -89.4314   30.3639   -0.3422 C   0  0  0  0  0  0  0  0  0  0  0  0
  -88.2637   29.6567   -0.0986 C   0  0  0  0  0  0  0  0  0  0  0  0
  -86.8987   26.8254    0.7962 H   0  0  0  0  0  0  0  0  0  0  0  0
 16 17  1  0  0  0
 17  3  1  0  0  0
  3  4  2  0  0  0
  4  5  1  0  0  0
  5  6  2  0  0  0
  6  7  1  0  0  0
  7  8  2  0  0  0
  8  1  1  0  0  0
  1 18  1  0  0  0
 18 19  2  0  0  0
 19 20  1  0  0  0
 20 21  2  0  0  0
 21 22  1  0  0  0
 22 23  2  0  0  0
 22 24  1  0  0  0
 24 25  2  0  0  0
 25 26  1  0  0  0
 26 27  1  0  0  0
 27 28  2  0  0  0
 28 29  1  0  0  0
 28 30  1  0  0  0
 30 31  2  0  0  0
 31 32  1  0  0  0
 32 33  2  0  0  0
  5  9  1  0  0  0
  9 10  1  0  0  0
 10 11  1  0  0  0
 11 12  1  0  0  0
 12 13  1  0  0  0
 12 14  1  0  0  0
 14 15  1  0  0  0
  8  3  1  0  0  0
 23 18  1  0  0  0
 33 24  1  0  0  0
 15  9  1  0  0  0
 33 27  1  0  0  0
  1  2  1  0  0  0
 26 34  1  0  0  0
M  END
> <minimizedAffinity>
-7.22519

> <CNNscore>
0.2264624089

> <CNNaffinity>
6.6157135963

> <CNN_VS>
1.4982104301

> <CNNaffinity_variance>
0.0757750794

$$$$
[H]c1nc(N([H])c2c([H])c([H])c(N3C([H])([H])C([H])([H])N(C([H])([H])[H])C([H])([H])C3([H])[H])c([H])c2OC([H])([H])[H])nc(-c2c([H])n([H])c3c(C([H])([H])[H])nc([H])c([H])c23)c1[H]


 34 38  0  0  0  0  0  0  0  0999 V2000
  -85.4407   31.4447    1.1684 N   0  0  0  0  0  0  0  0  0  0  0  0
  -85.0977   32.1647    1.8979 H   0  0  0  0  0  0  0  0  0  0  0  0
  -85.4301   32.9014   -0.7193 C   0  0  0  0  0  0  0  0  0  0  0  0
  -85.9757   33.4362   -1.8634 C   0  0  0  0  0  0  0  0  0  0  0  0
  -87.2070   33.0061   -2.3077 C   0  0  0  0  0  0  0  0  0  0  0  0
  -87.8522   32.0416   -1.5755 C   0  0  0  0  0  0  0  0  0  0  0  0
  -87.3075   31.4876   -0.4072 C   0  0  0  0  0  0  0  0  0  0  0  0
  -86.0875   31.9087    0.0394 C   0  0  0  0  0  0  0  0  0  0  0  0
  -87.7188   33.5949   -3.4973 N   0  0  0  0  0  0  0  0  0  0  0  0
  -88.8182   33.0373   -4.2647 C   0  0  0  0  0  0  0  0  0  0  0  0
  -89.8016   34.1762   -4.4664 C   0  0  0  0  0  0  0  0  0  0  0  0
  -89.2557   35.2312   -5.2662 N   0  0  0  0  0  0  0  0  0  0  0  0
  -89.7864   35.2653   -6.6073 C   0  0  0  0  0  0  0  0  0  0  0  0
  -87.8538   35.4014   -5.1833 C   0  0  0  0  0  0  0  0  0  0  0  0
  -87.1483   34.8242   -4.0250 C   0  0  0  0  0  0  0  0  0  0  0  0
  -83.0580   32.5368   -0.5037 C   0  0  0  0  0  0  0  0  0  0  0  0
  -84.1831   33.3546   -0.2924 O   0  0  0  0  0  0  0  0  0  0  0  0
  -85.1405   30.1014    1.5371 C   0  0  0  0  0  0  0  0  0  0  0  0
  -83.9950   29.6918    2.0764 N   0  0  0  0  0  0  0  0  0  0  0  0
  -83.7783   28.4216    2.3962 C   0  0  0  0  0  0  0  0  0  0  0  0
  -84.7502   27.4280    2.1832 C   0  0  0  0  0  0  0  0  0  0  0  0
  -85.9287   27.8329    1.6295 C   0  0  0  0  0  0  0  0  0  0  0  0
  -86.0624   29.1348    1.3387 N   0  0  0  0  0  0  0  0  0  0  0  0
  -87.0809   26.9595    1.3766 C   0  0  0  0  0  0  0  0  0  0  0  0
  -87.1041   26.0249    0.3259 C   0  0  0  0  0  0  0  0  0  0  0  0
  -88.2443   25.3415    0.3458 N   0  0  0  0  0  0  0  0  0  0  0  0
  -88.9568   25.8108    1.3838 C   0  0  0  0  0  0  0  0  0  0  0  0
  -90.1936   25.4670    1.8854 C   0  0  0  0  0  0  0  0  0  0  0  0
  -90.9412   24.3797    1.1631 C   0  0  0  0  0  0  0  0  0  0  0  0
  -90.7103   26.0715    2.9679 N   0  0  0  0  0  0  0  0  0  0  0  0
  -90.0619   27.0384    3.6236 C   0  0  0  0  0  0  0  0  0  0  0  0
  -88.8092   27.4156    3.1488 C   0  0  0  0  0  0  0  0  0  0  0  0
  -88.2497   26.8121    2.0327 C   0  0  0  0  0  0  0  0  0  0  0  0
  -88.5533   24.5674   -0.3232 H   0  0  0  0  0  0  0  0  0  0  0  0
 16 17  1  0  0  0
 17  3  1  0  0  0
  3  4  2  0  0  0
  4  5  1  0  0  0
  5  6  2  0  0  0
  6  7  1  0  0  0
  7  8  2  0  0  0
  8  1  1  0  0  0
  1 18  1  0  0  0
 18 19  2  0  0  0
 19 20  1  0  0  0
 20 21  2  0  0  0
 21 22  1  0  0  0
 22 23  2  0  0  0
 22 24  1  0  0  0
 24 25  2  0  0  0
 25 26  1  0  0  0
 26 27  1  0  0  0
 27 28  2  0  0  0
 28 29  1  0  0  0
 28 30  1  0  0  0
 30 31  2  0  0  0
 31 32  1  0  0  0
 32 33  2  0  0  0
  5  9  1  0  0  0
  9 10  1  0  0  0
 10 11  1  0  0  0
 11 12  1  0  0  0
 12 13  1  0  0  0
 12 14  1  0  0  0
 14 15  1  0  0  0
  8  3  1  0  0  0
 23 18  1  0  0  0
 33 24  1  0  0  0
 15  9  1  0  0  0
 33 27  1  0  0  0
  1  2  1  0  0  0
 26 34  1  0  0  0
M  END
> <minimizedAffinity>
-9.07678

> <CNNscore>
0.2030577511

> <CNNaffinity>
6.7752876282

> <CNN_VS>
1.3757746220

> <CNNaffinity_variance>
0.4295903146

$$$$
[H]c1nc(N([H])c2c([H])c([H])c(N3C([H])([H])C([H])([H])N(C([H])([H])[H])C([H])([H])C3([H])[H])c([H])c2OC([H])([H])[H])nc(-c2c([H])n([H])c3c(C([H])([H])[H])nc([H])c([H])c23)c1[H]


 34 38  0  0  0  0  0  0  0  0999 V2000
  -87.4930   27.6089    1.7325 N   0  0  0  0  0  0  0  0  0  0  0  0
  -87.2691   26.7295    2.3197 H   0  0  0  0  0  0  0  0  0  0  0  0
  -88.6906   27.4528   -0.3233 C   0  0  0  0  0  0  0  0  0  0  0  0
  -89.8356   27.4849   -1.0854 C   0  0  0  0  0  0  0  0  0  0  0  0
  -91.0537   27.7343   -0.4917 C   0  0  0  0  0  0  0  0  0  0  0  0
  -91.0754   27.9446    0.8640 C   0  0  0  0  0  0  0  0  0  0  0  0
  -89.9158   27.9147    1.6532 C   0  0  0  0  0  0  0  0  0  0  0  0
  -88.7047   27.6682    1.0719 C   0  0  0  0  0  0  0  0  0  0  0  0
  -92.2021   27.7535   -1.3309 N   0  0  0  0  0  0  0  0  0  0  0  0
  -92.7953   28.9696   -1.8581 C   0  0  0  0  0  0  0  0  0  0  0  0
  -92.9377   28.7462   -3.3529 C   0  0  0  0  0  0  0  0  0  0  0  0
  -93.8567   27.6920   -3.6605 N   0  0  0  0  0  0  0  0  0  0  0  0
  -95.1219   28.1657   -4.1670 C   0  0  0  0  0  0  0  0  0  0  0  0
  -93.9573   26.6642   -2.6936 C   0  0  0  0  0  0  0  0  0  0  0  0
  -92.8644   26.5173   -1.7156 C   0  0  0  0  0  0  0  0  0  0  0  0
  -87.0922   28.0010   -2.0411 C   0  0  0  0  0  0  0  0  0  0  0  0
  -87.4718   27.1985   -0.9496 O   0  0  0  0  0  0  0  0  0  0  0  0
  -86.4439   28.5727    1.7622 C   0  0  0  0  0  0  0  0  0  0  0  0
  -85.3413   28.4836    2.5019 N   0  0  0  0  0  0  0  0  0  0  0  0
  -84.4003   29.4200    2.4842 C   0  0  0  0  0  0  0  0  0  0  0  0
  -84.5126   30.5677    1.6796 C   0  0  0  0  0  0  0  0  0  0  0  0
  -85.6383   30.6734    0.9173 C   0  0  0  0  0  0  0  0  0  0  0  0
  -86.5362   29.6810    0.9963 N   0  0  0  0  0  0  0  0  0  0  0  0
  -85.9161   31.7664   -0.0221 C   0  0  0  0  0  0  0  0  0  0  0  0
  -84.9085   32.6181   -0.5094 C   0  0  0  0  0  0  0  0  0  0  0  0
  -85.4232   33.4917   -1.3692 N   0  0  0  0  0  0  0  0  0  0  0  0
  -86.7376   33.2242   -1.4499 C   0  0  0  0  0  0  0  0  0  0  0  0
  -87.7520   33.7936   -2.1890 C   0  0  0  0  0  0  0  0  0  0  0  0
  -87.3792   34.9492   -3.0770 C   0  0  0  0  0  0  0  0  0  0  0  0
  -89.0147   33.3408   -2.1228 N   0  0  0  0  0  0  0  0  0  0  0  0
  -89.3657   32.3155   -1.3411 C   0  0  0  0  0  0  0  0  0  0  0  0
  -88.3704   31.7124   -0.5778 C   0  0  0  0  0  0  0  0  0  0  0  0
  -87.0581   32.1580   -0.6228 C   0  0  0  0  0  0  0  0  0  0  0  0
  -84.9103   34.2632   -1.9019 H   0  0  0  0  0  0  0  0  0  0  0  0
 16 17  1  0  0  0
 17  3  1  0  0  0
  3  4  2  0  0  0
  4  5  1  0  0  0
  5  6  2  0  0  0
  6  7  1  0  0  0
  7  8  2  0  0  0
  8  1  1  0  0  0
  1 18  1  0  0  0
 18 19  2  0  0  0
 19 20  1  0  0  0
 20 21  2  0  0  0
 21 22  1  0  0  0
 22 23  2  0  0  0
 22 24  1  0  0  0
 24 25  2  0  0  0
 25 26  1  0  0  0
 26 27  1  0  0  0
 27 28  2  0  0  0
 28 29  1  0  0  0
 28 30  1  0  0  0
 30 31  2  0  0  0
 31 32  1  0  0  0
 32 33  2  0  0  0
  5  9  1  0  0  0
  9 10  1  0  0  0
 10 11  1  0  0  0
 11 12  1  0  0  0
 12 13  1  0  0  0
 12 14  1  0  0  0
 14 15  1  0  0  0
  8  3  1  0  0  0
 23 18  1  0  0  0
 33 24  1  0  0  0
 15  9  1  0  0  0
 33 27  1  0  0  0
  1  2  1  0  0  0
 26 34  1  0  0  0
M  END
> <minimizedAffinity>
-8.07301

> <CNNscore>
0.1818978488

> <CNNaffinity>
6.8152303696

> <CNN_VS>
1.2396757603

> <CNNaffinity_variance>
0.0908136964

$$$$
[H]c1sc(-c2c([H])c([H])c3c(c2[H])C([H])([H])C([H])([H])O3)nc1C(=O)N([H])c1nc(C([H])([H])[H])ns1


 24 27  0  0  0  0  0  0  0  0999 V2000
  -87.7000   34.1628   -2.4331 C   0  0  0  0  0  0  0  0  0  0  0  0
  -88.9063   33.5646   -2.1395 C   0  0  0  0  0  0  0  0  0  0  0  0
  -88.4198   32.3199   -1.0712 S   0  0  0  0  0  0  0  0  0  0  0  0
  -86.7452   32.6366   -1.0686 C   0  0  0  0  0  0  0  0  0  0  0  0
  -86.6420   33.6678   -1.8763 N   0  0  0  0  0  0  0  0  0  0  0  0
  -85.6944   31.9172   -0.3337 C   0  0  0  0  0  0  0  0  0  0  0  0
  -84.4625   32.4945   -0.1406 C   0  0  0  0  0  0  0  0  0  0  0  0
  -83.4771   31.7960    0.5598 C   0  0  0  0  0  0  0  0  0  0  0  0
  -83.6952   30.5353    1.0708 C   0  0  0  0  0  0  0  0  0  0  0  0
  -82.8931   29.6328    1.7986 O   0  0  0  0  0  0  0  0  0  0  0  0
  -83.7877   28.7768    2.5304 C   0  0  0  0  0  0  0  0  0  0  0  0
  -84.8937   28.6292    1.5111 C   0  0  0  0  0  0  0  0  0  0  0  0
  -84.9325   29.9671    0.8713 C   0  0  0  0  0  0  0  0  0  0  0  0
  -85.9196   30.6596    0.1731 C   0  0  0  0  0  0  0  0  0  0  0  0
  -86.6303   35.4425   -4.3144 N   0  0  0  0  0  0  0  0  0  0  0  0
  -87.6509   35.3260   -3.3545 C   0  0  0  0  0  0  0  0  0  0  0  0
  -88.5580   36.1867   -3.2303 O   0  0  0  0  0  0  0  0  0  0  0  0
  -85.8888   34.7364   -4.4141 H   0  0  0  0  0  0  0  0  0  0  0  0
  -87.6766   38.0708   -8.3808 C   0  0  0  0  0  0  0  0  0  0  0  0
  -87.1064   37.8578   -6.9933 C   0  0  0  0  0  0  0  0  0  0  0  0
  -86.5032   38.8687   -6.3668 N   0  0  0  0  0  0  0  0  0  0  0  0
  -86.0468   38.1747   -4.9005 S   0  0  0  0  0  0  0  0  0  0  0  0
  -86.6596   36.6060   -5.1691 C   0  0  0  0  0  0  0  0  0  0  0  0
  -87.1825   36.7179   -6.3844 N   0  0  0  0  0  0  0  0  0  0  0  0
 19 20  1  0  0  0
 20 21  2  0  0  0
 21 22  1  0  0  0
 22 23  1  0  0  0
 23 15  1  0  0  0
 15 16  1  0  0  0
 16 17  2  0  0  0
 16  1  1  0  0  0
  1  2  2  0  0  0
  2  3  1  0  0  0
  3  4  1  0  0  0
  4  5  2  0  0  0
  4  6  1  0  0  0
  6  7  2  0  0  0
  7  8  1  0  0  0
  8  9  2  0  0  0
  9 10  1  0  0  0
 10 11  1  0  0  0
 11 12  1  0  0  0
 12 13  1  0  0  0
 13 14  2  0  0  0
 23 24  2  0  0  0
 24 20  1  0  0  0
  5  1  1  0  0  0
 14  6  1  0  0  0
 13  9  1  0  0  0
 15 18  1  0  0  0
M  END
> <minimizedAffinity>
-8.14178

> <CNNscore>
0.5914462209

> <CNNaffinity>
6.0567917824

> <CNN_VS>
3.5822665691

> <CNNaffinity_variance>
0.0951454788

$$$$
[H]c1sc(-c2c([H])c([H])c3c(c2[H])C([H])([H])C([H])([H])O3)nc1C(=O)N([H])c1nc(C([H])([H])[H])ns1


 24 27  0  0  0  0  0  0  0  0999 V2000
  -86.1961   33.0259   -1.4679 C   0  0  0  0  0  0  0  0  0  0  0  0
  -84.9254   33.4314   -1.1212 C   0  0  0  0  0  0  0  0  0  0  0  0
  -84.4271   32.1559   -0.0955 S   0  0  0  0  0  0  0  0  0  0  0  0
  -85.8416   31.2084   -0.1739 C   0  0  0  0  0  0  0  0  0  0  0  0
  -86.6169   31.9071   -0.9722 N   0  0  0  0  0  0  0  0  0  0  0  0
  -86.1047   29.9269    0.4970 C   0  0  0  0  0  0  0  0  0  0  0  0
  -85.1962   29.4107    1.3893 C   0  0  0  0  0  0  0  0  0  0  0  0
  -85.4634   28.1923    2.0167 C   0  0  0  0  0  0  0  0  0  0  0  0
  -86.6169   27.4795    1.7725 C   0  0  0  0  0  0  0  0  0  0  0  0
  -87.1209   26.2560    2.2589 O   0  0  0  0  0  0  0  0  0  0  0  0
  -88.5509   26.3072    2.1141 C   0  0  0  0  0  0  0  0  0  0  0  0
  -88.6500   27.0485    0.8010 C   0  0  0  0  0  0  0  0  0  0  0  0
  -87.5194   28.0060    0.8772 C   0  0  0  0  0  0  0  0  0  0  0  0
  -87.2579   29.2215    0.2481 C   0  0  0  0  0  0  0  0  0  0  0  0
  -86.4662   34.4373   -3.5308 N   0  0  0  0  0  0  0  0  0  0  0  0
  -87.0224   33.8615   -2.3752 C   0  0  0  0  0  0  0  0  0  0  0  0
  -88.2275   34.0226   -2.0575 O   0  0  0  0  0  0  0  0  0  0  0  0
  -85.4793   34.3039   -3.7888 H   0  0  0  0  0  0  0  0  0  0  0  0
  -89.8141   35.3257   -7.0721 C   0  0  0  0  0  0  0  0  0  0  0  0
  -88.8646   35.7064   -5.9545 C   0  0  0  0  0  0  0  0  0  0  0  0
  -88.7478   36.9857   -5.5967 N   0  0  0  0  0  0  0  0  0  0  0  0
  -87.6121   36.9192   -4.3534 S   0  0  0  0  0  0  0  0  0  0  0  0
  -87.3421   35.2352   -4.3562 C   0  0  0  0  0  0  0  0  0  0  0  0
  -88.1528   34.8269   -5.3252 N   0  0  0  0  0  0  0  0  0  0  0  0
 19 20  1  0  0  0
 20 21  2  0  0  0
 21 22  1  0  0  0
 22 23  1  0  0  0
 23 15  1  0  0  0
 15 16  1  0  0  0
 16 17  2  0  0  0
 16  1  1  0  0  0
  1  2  2  0  0  0
  2  3  1  0  0  0
  3  4  1  0  0  0
  4  5  2  0  0  0
  4  6  1  0  0  0
  6  7  2  0  0  0
  7  8  1  0  0  0
  8  9  2  0  0  0
  9 10  1  0  0  0
 10 11  1  0  0  0
 11 12  1  0  0  0
 12 13  1  0  0  0
 13 14  2  0  0  0
 23 24  2  0  0  0
 24 20  1  0  0  0
  5  1  1  0  0  0
 14  6  1  0  0  0
 13  9  1  0  0  0
 15 18  1  0  0  0
M  END
> <minimizedAffinity>
-7.44118

> <CNNscore>
0.3113609850

> <CNNaffinity>
5.7311320305

> <CNN_VS>
1.7844508886

> <CNNaffinity_variance>
0.2155591697

$$$$
[H]c1sc(-c2c([H])c([H])c3c(c2[H])C([H])([H])C([H])([H])O3)nc1C(=O)N([H])c1nc(C([H])([H])[H])ns1


 24 27  0  0  0  0  0  0  0  0999 V2000
  -89.9917   28.7394    0.1379 C   0  0  0  0  0  0  0  0  0  0  0  0
  -90.8387   29.4663   -0.6704 C   0  0  0  0  0  0  0  0  0  0  0  0
  -89.8289   30.7631   -1.1457 S   0  0  0  0  0  0  0  0  0  0  0  0
  -88.4220   30.3037   -0.3006 C   0  0  0  0  0  0  0  0  0  0  0  0
  -88.7902   29.1929    0.2970 N   0  0  0  0  0  0  0  0  0  0  0  0
  -87.1264   30.9977   -0.2653 C   0  0  0  0  0  0  0  0  0  0  0  0
  -87.0167   32.2878   -0.7254 C   0  0  0  0  0  0  0  0  0  0  0  0
  -85.7780   32.9307   -0.6839 C   0  0  0  0  0  0  0  0  0  0  0  0
  -84.6481   32.3138   -0.1933 C   0  0  0  0  0  0  0  0  0  0  0  0
  -83.3083   32.7253   -0.0410 O   0  0  0  0  0  0  0  0  0  0  0  0
  -82.7437   31.9254    1.0125 C   0  0  0  0  0  0  0  0  0  0  0  0
  -83.4222   30.6060    0.7253 C   0  0  0  0  0  0  0  0  0  0  0  0
  -84.7696   31.0220    0.2647 C   0  0  0  0  0  0  0  0  0  0  0  0
  -86.0033   30.3755    0.2256 C   0  0  0  0  0  0  0  0  0  0  0  0
  -89.6739   26.8192    1.7295 N   0  0  0  0  0  0  0  0  0  0  0  0
  -90.4692   27.4912    0.7848 C   0  0  0  0  0  0  0  0  0  0  0  0
  -91.6059   27.0759    0.4462 O   0  0  0  0  0  0  0  0  0  0  0  0
  -88.7437   27.1614    2.0050 H   0  0  0  0  0  0  0  0  0  0  0  0
  -90.9479   22.0356    1.9064 C   0  0  0  0  0  0  0  0  0  0  0  0
  -90.8208   23.4430    2.4526 C   0  0  0  0  0  0  0  0  0  0  0  0
  -91.2618   23.7150    3.6813 N   0  0  0  0  0  0  0  0  0  0  0  0
  -90.9166   25.3567    3.8426 S   0  0  0  0  0  0  0  0  0  0  0  0
  -90.2167   25.6130    2.3087 C   0  0  0  0  0  0  0  0  0  0  0  0
  -90.2942   24.4046    1.7640 N   0  0  0  0  0  0  0  0  0  0  0  0
 19 20  1  0  0  0
 20 21  2  0  0  0
 21 22  1  0  0  0
 22 23  1  0  0  0
 23 15  1  0  0  0
 15 16  1  0  0  0
 16 17  2  0  0  0
 16  1  1  0  0  0
  1  2  2  0  0  0
  2  3  1  0  0  0
  3  4  1  0  0  0
  4  5  2  0  0  0
  4  6  1  0  0  0
  6  7  2  0  0  0
  7  8  1  0  0  0
  8  9  2  0  0  0
  9 10  1  0  0  0
 10 11  1  0  0  0
 11 12  1  0  0  0
 12 13  1  0  0  0
 13 14  2  0  0  0
 23 24  2  0  0  0
 24 20  1  0  0  0
  5  1  1  0  0  0
 14  6  1  0  0  0
 13  9  1  0  0  0
 15 18  1  0  0  0
M  END
> <minimizedAffinity>
-7.86219

> <CNNscore>
0.2251943201

> <CNNaffinity>
5.9207921028

> <CNN_VS>
1.3333287239

> <CNNaffinity_variance>
0.3133903444

$$$$
[H]c1sc(-c2c([H])c([H])c3c(c2[H])C([H])([H])C([H])([H])O3)nc1C(=O)N([H])c1nc(C([H])([H])[H])ns1


 24 27  0  0  0  0  0  0  0  0999 V2000
  -89.0651   29.5616   -0.6397 C   0  0  0  0  0  0  0  0  0  0  0  0
  -90.2150   30.1668   -1.0986 C   0  0  0  0  0  0  0  0  0  0  0  0
  -91.4056   29.0216   -0.6529 S   0  0  0  0  0  0  0  0  0  0  0  0
  -90.3810   27.8700    0.0742 C   0  0  0  0  0  0  0  0  0  0  0  0
  -89.1917   28.4124   -0.0584 N   0  0  0  0  0  0  0  0  0  0  0  0
  -90.7602   26.5906    0.6915 C   0  0  0  0  0  0  0  0  0  0  0  0
  -91.5633   25.7042    0.0152 C   0  0  0  0  0  0  0  0  0  0  0  0
  -91.9129   24.4940    0.6176 C   0  0  0  0  0  0  0  0  0  0  0  0
  -91.4782   24.1506    1.8790 C   0  0  0  0  0  0  0  0  0  0  0  0
  -91.6780   23.0209    2.6984 O   0  0  0  0  0  0  0  0  0  0  0  0
  -90.5624   22.9604    3.6042 C   0  0  0  0  0  0  0  0  0  0  0  0
  -90.3602   24.4357    3.8620 C   0  0  0  0  0  0  0  0  0  0  0  0
  -90.6745   25.0459    2.5468 C   0  0  0  0  0  0  0  0  0  0  0  0
  -90.3226   26.2551    1.9505 C   0  0  0  0  0  0  0  0  0  0  0  0
  -87.4324   31.3992   -0.1120 N   0  0  0  0  0  0  0  0  0  0  0  0
  -87.7505   30.2275   -0.8208 C   0  0  0  0  0  0  0  0  0  0  0  0
  -86.9509   29.6937   -1.6299 O   0  0  0  0  0  0  0  0  0  0  0  0
  -88.0888   31.8343    0.5500 H   0  0  0  0  0  0  0  0  0  0  0  0
  -82.5307   31.9235    0.3745 C   0  0  0  0  0  0  0  0  0  0  0  0
  -83.9006   32.2711   -0.1713 C   0  0  0  0  0  0  0  0  0  0  0  0
  -84.0296   33.2809   -1.0327 N   0  0  0  0  0  0  0  0  0  0  0  0
  -85.6849   33.2873   -1.3490 S   0  0  0  0  0  0  0  0  0  0  0  0
  -86.1318   31.9800   -0.3491 C   0  0  0  0  0  0  0  0  0  0  0  0
  -84.9649   31.6178    0.1704 N   0  0  0  0  0  0  0  0  0  0  0  0
 19 20  1  0  0  0
 20 21  2  0  0  0
 21 22  1  0  0  0
 22 23  1  0  0  0
 23 15  1  0  0  0
 15 16  1  0  0  0
 16 17  2  0  0  0
 16  1  1  0  0  0
  1  2  2  0  0  0
  2  3  1  0  0  0
  3  4  1  0  0  0
  4  5  2  0  0  0
  4  6  1  0  0  0
  6  7  2  0  0  0
  7  8  1  0  0  0
  8  9  2  0  0  0
  9 10  1  0  0  0
 10 11  1  0  0  0
 11 12  1  0  0  0
 12 13  1  0  0  0
 13 14  2  0  0  0
 23 24  2  0  0  0
 24 20  1  0  0  0
  5  1  1  0  0  0
 14  6  1  0  0  0
 13  9  1  0  0  0
 15 18  1  0  0  0
M  END
> <minimizedAffinity>
-7.09262

> <CNNscore>
0.1774078161

> <CNNaffinity>
5.6822361946

> <CNN_VS>
1.0080730915

> <CNNaffinity_variance>
0.2354601622

$$$$
[H]c1sc(-c2c([H])c([H])c3c(c2[H])C([H])([H])C([H])([H])O3)nc1C(=O)N([H])c1nc(C([H])([H])[H])ns1


 24 27  0  0  0  0  0  0  0  0999 V2000
  -87.4004   32.6765   -2.2212 C   0  0  0  0  0  0  0  0  0  0  0  0
  -86.7395   33.8370   -1.8809 C   0  0  0  0  0  0  0  0  0  0  0  0
  -85.7430   33.2995   -0.5981 S   0  0  0  0  0  0  0  0  0  0  0  0
  -86.2237   31.6645   -0.5797 C   0  0  0  0  0  0  0  0  0  0  0  0
  -87.1133   31.6110   -1.5453 N   0  0  0  0  0  0  0  0  0  0  0  0
  -85.7450   30.5957    0.3091 C   0  0  0  0  0  0  0  0  0  0  0  0
  -86.6100   29.6282    0.7604 C   0  0  0  0  0  0  0  0  0  0  0  0
  -86.1372   28.6210    1.6039 C   0  0  0  0  0  0  0  0  0  0  0  0
  -84.8208   28.5594    2.0057 C   0  0  0  0  0  0  0  0  0  0  0  0
  -84.1002   27.6719    2.8308 O   0  0  0  0  0  0  0  0  0  0  0  0
  -82.7217   27.7558    2.4294 C   0  0  0  0  0  0  0  0  0  0  0  0
  -82.6313   29.2338    2.1273 C   0  0  0  0  0  0  0  0  0  0  0  0
  -83.9636   29.5334    1.5476 C   0  0  0  0  0  0  0  0  0  0  0  0
  -84.4301   30.5409    0.7057 C   0  0  0  0  0  0  0  0  0  0  0  0
  -89.6110   33.3764   -3.1930 N   0  0  0  0  0  0  0  0  0  0  0  0
  -88.3953   32.6824   -3.3233 C   0  0  0  0  0  0  0  0  0  0  0  0
  -88.0946   32.0428   -4.3623 O   0  0  0  0  0  0  0  0  0  0  0  0
  -89.8547   33.8994   -2.3413 H   0  0  0  0  0  0  0  0  0  0  0  0
  -93.2933   31.5958   -5.9873 C   0  0  0  0  0  0  0  0  0  0  0  0
  -92.1881   32.5690   -5.6310 C   0  0  0  0  0  0  0  0  0  0  0  0
  -91.9336   33.6003   -6.4369 N   0  0  0  0  0  0  0  0  0  0  0  0
  -90.6618   34.3781   -5.6509 S   0  0  0  0  0  0  0  0  0  0  0  0
  -90.5200   33.3289   -4.3139 C   0  0  0  0  0  0  0  0  0  0  0  0
  -91.4717   32.4365   -4.5608 N   0  0  0  0  0  0  0  0  0  0  0  0
 19 20  1  0  0  0
 20 21  2  0  0  0
 21 22  1  0  0  0
 22 23  1  0  0  0
 23 15  1  0  0  0
 15 16  1  0  0  0
 16 17  2  0  0  0
 16  1  1  0  0  0
  1  2  2  0  0  0
  2  3  1  0  0  0
  3  4  1  0  0  0
  4  5  2  0  0  0
  4  6  1  0  0  0
  6  7  2  0  0  0
  7  8  1  0  0  0
  8  9  2  0  0  0
  9 10  1  0  0  0
 10 11  1  0  0  0
 11 12  1  0  0  0
 12 13  1  0  0  0
 13 14  2  0  0  0
 23 24  2  0  0  0
 24 20  1  0  0  0
  5  1  1  0  0  0
 14  6  1  0  0  0
 13  9  1  0  0  0
 15 18  1  0  0  0
M  END
> <minimizedAffinity>
-7.74700

> <CNNscore>
0.1474422663

> <CNNaffinity>
5.7353439331

> <CNN_VS>
0.8456321359

> <CNNaffinity_variance>
0.2167837620

$$$$
[H]c1sc(-c2c([H])c([H])c3c(c2[H])C([H])([H])C([H])([H])O3)nc1C(=O)N([H])c1nc(C([H])([H])[H])ns1


 24 27  0  0  0  0  0  0  0  0999 V2000
  -88.8380   29.2480   -0.4459 C   0  0  0  0  0  0  0  0  0  0  0  0
  -89.9651   29.9173   -0.0206 C   0  0  0  0  0  0  0  0  0  0  0  0
  -91.1216   28.6567    0.0067 S   0  0  0  0  0  0  0  0  0  0  0  0
  -90.1138   27.3851   -0.5149 C   0  0  0  0  0  0  0  0  0  0  0  0
  -88.9549   27.9812   -0.6824 N   0  0  0  0  0  0  0  0  0  0  0  0
  -90.4768   25.9751   -0.7194 C   0  0  0  0  0  0  0  0  0  0  0  0
  -89.7639   25.1946   -1.5972 C   0  0  0  0  0  0  0  0  0  0  0  0
  -90.1234   23.8576   -1.7783 C   0  0  0  0  0  0  0  0  0  0  0  0
  -91.1780   23.2842   -1.1023 C   0  0  0  0  0  0  0  0  0  0  0  0
  -91.7381   21.9904   -1.0991 O   0  0  0  0  0  0  0  0  0  0  0  0
  -92.3997   21.8257    0.1672 C   0  0  0  0  0  0  0  0  0  0  0  0
  -92.9504   23.2207    0.3530 C   0  0  0  0  0  0  0  0  0  0  0  0
  -91.8848   24.0752   -0.2258 C   0  0  0  0  0  0  0  0  0  0  0  0
  -91.5305   25.4101   -0.0413 C   0  0  0  0  0  0  0  0  0  0  0  0
  -87.4253   31.3111   -0.1830 N   0  0  0  0  0  0  0  0  0  0  0  0
  -87.5574   29.9800   -0.6156 C   0  0  0  0  0  0  0  0  0  0  0  0
  -86.6134   29.3531   -1.1586 O   0  0  0  0  0  0  0  0  0  0  0  0
  -88.1997   31.8221    0.2614 H   0  0  0  0  0  0  0  0  0  0  0  0
  -82.5513   31.9979    0.3738 C   0  0  0  0  0  0  0  0  0  0  0  0
  -83.9276   32.3126   -0.1759 C   0  0  0  0  0  0  0  0  0  0  0  0
  -84.0851   33.3440   -1.0064 N   0  0  0  0  0  0  0  0  0  0  0  0
  -85.7363   33.3001   -1.3407 S   0  0  0  0  0  0  0  0  0  0  0  0
  -86.1447   31.9462   -0.3874 C   0  0  0  0  0  0  0  0  0  0  0  0
  -84.9704   31.6104    0.1333 N   0  0  0  0  0  0  0  0  0  0  0  0
 19 20  1  0  0  0
 20 21  2  0  0  0
 21 22  1  0  0  0
 22 23  1  0  0  0
 23 15  1  0  0  0
 15 16  1  0  0  0
 16 17  2  0  0  0
 16  1  1  0  0  0
  1  2  2  0  0  0
  2  3  1  0  0  0
  3  4  1  0  0  0
  4  5  2  0  0  0
  4  6  1  0  0  0
  6  7  2  0  0  0
  7  8  1  0  0  0
  8  9  2  0  0  0
  9 10  1  0  0  0
 10 11  1  0  0  0
 11 12  1  0  0  0
 12 13  1  0  0  0
 13 14  2  0  0  0
 23 24  2  0  0  0
 24 20  1  0  0  0
  5  1  1  0  0  0
 14  6  1  0  0  0
 13  9  1  0  0  0
 15 18  1  0  0  0
M  END
> <minimizedAffinity>
-6.84340

> <CNNscore>
0.1075155437

> <CNNaffinity>
5.3441896439

> <CNN_VS>
0.5745834708

> <CNNaffinity_variance>
0.1553391963

$$$$
[H]c1sc(-c2c([H])c([H])c3c(c2[H])C([H])([H])C([H])([H])O3)nc1C(=O)N([H])c1nc(C([H])([H])[H])ns1


 24 27  0  0  0  0  0  0  0  0999 V2000
  -88.5277   28.2780   -0.3641 C   0  0  0  0  0  0  0  0  0  0  0  0
  -89.2976   27.6678    0.6025 C   0  0  0  0  0  0  0  0  0  0  0  0
  -90.7980   27.5098   -0.2045 S   0  0  0  0  0  0  0  0  0  0  0  0
  -90.3553   28.2172   -1.6906 C   0  0  0  0  0  0  0  0  0  0  0  0
  -89.0952   28.5359   -1.4982 N   0  0  0  0  0  0  0  0  0  0  0  0
  -91.1963   28.4114   -2.8808 C   0  0  0  0  0  0  0  0  0  0  0  0
  -91.3678   29.6666   -3.4128 C   0  0  0  0  0  0  0  0  0  0  0  0
  -92.1701   29.8315   -4.5435 C   0  0  0  0  0  0  0  0  0  0  0  0
  -92.8039   28.7712   -5.1535 C   0  0  0  0  0  0  0  0  0  0  0  0
  -93.6482   28.6637   -6.2774 O   0  0  0  0  0  0  0  0  0  0  0  0
  -93.5259   27.3155   -6.7632 C   0  0  0  0  0  0  0  0  0  0  0  0
  -93.4096   26.5783   -5.4492 C   0  0  0  0  0  0  0  0  0  0  0  0
  -92.6251   27.5189   -4.6121 C   0  0  0  0  0  0  0  0  0  0  0  0
  -91.8255   27.3485   -3.4838 C   0  0  0  0  0  0  0  0  0  0  0  0
  -86.6779   28.8863    1.2262 N   0  0  0  0  0  0  0  0  0  0  0  0
  -87.1086   28.6126   -0.0838 C   0  0  0  0  0  0  0  0  0  0  0  0
  -86.3267   28.6368   -1.0672 O   0  0  0  0  0  0  0  0  0  0  0  0
  -87.3201   28.8656    2.0296 H   0  0  0  0  0  0  0  0  0  0  0  0
  -82.4990   31.4907    0.6866 C   0  0  0  0  0  0  0  0  0  0  0  0
  -83.3442   30.3433    1.2008 C   0  0  0  0  0  0  0  0  0  0  0  0
  -82.7858   29.4058    1.9672 N   0  0  0  0  0  0  0  0  0  0  0  0
  -84.0772   28.3705    2.2843 S   0  0  0  0  0  0  0  0  0  0  0  0
  -85.2807   29.2023    1.4077 C   0  0  0  0  0  0  0  0  0  0  0  0
  -84.6038   30.2358    0.9213 N   0  0  0  0  0  0  0  0  0  0  0  0
 19 20  1  0  0  0
 20 21  2  0  0  0
 21 22  1  0  0  0
 22 23  1  0  0  0
 23 15  1  0  0  0
 15 16  1  0  0  0
 16 17  2  0  0  0
 16  1  1  0  0  0
  1  2  2  0  0  0
  2  3  1  0  0  0
  3  4  1  0  0  0
  4  5  2  0  0  0
  4  6  1  0  0  0
  6  7  2  0  0  0
  7  8  1  0  0  0
  8  9  2  0  0  0
  9 10  1  0  0  0
 10 11  1  0  0  0
 11 12  1  0  0  0
 12 13  1  0  0  0
 13 14  2  0  0  0
 23 24  2  0  0  0
 24 20  1  0  0  0
  5  1  1  0  0  0
 14  6  1  0  0  0
 13  9  1  0  0  0
 15 18  1  0  0  0
M  END
> <minimizedAffinity>
-6.53156

> <CNNscore>
0.1062263772

> <CNNaffinity>
5.2871551514

> <CNN_VS>
0.5616353154

> <CNNaffinity_variance>
0.1288522631

$$$$
[H]c1sc(-c2c([H])c([H])c3c(c2[H])C([H])([H])C([H])([H])O3)nc1C(=O)N([H])c1nc(C([H])([H])[H])ns1


 24 27  0  0  0  0  0  0  0  0999 V2000
  -86.8472   33.5799   -2.1455 C   0  0  0  0  0  0  0  0  0  0  0  0
  -85.6340   33.8251   -1.5394 C   0  0  0  0  0  0  0  0  0  0  0  0
  -85.5196   32.5052   -0.4566 S   0  0  0  0  0  0  0  0  0  0  0  0
  -86.9950   31.7428   -0.8393 C   0  0  0  0  0  0  0  0  0  0  0  0
  -87.4970   32.5270   -1.7663 N   0  0  0  0  0  0  0  0  0  0  0  0
  -87.5479   30.5100   -0.2594 C   0  0  0  0  0  0  0  0  0  0  0  0
  -88.8838   30.2178   -0.3933 C   0  0  0  0  0  0  0  0  0  0  0  0
  -89.3908   29.0422    0.1641 C   0  0  0  0  0  0  0  0  0  0  0  0
  -88.5933   28.1537    0.8515 C   0  0  0  0  0  0  0  0  0  0  0  0
  -88.8441   26.9253    1.4962 O   0  0  0  0  0  0  0  0  0  0  0  0
  -87.5997   26.2046    1.5187 C   0  0  0  0  0  0  0  0  0  0  0  0
  -86.6431   27.3505    1.7542 C   0  0  0  0  0  0  0  0  0  0  0  0
  -87.2571   28.4566    0.9795 C   0  0  0  0  0  0  0  0  0  0  0  0
  -86.7458   29.6283    0.4252 C   0  0  0  0  0  0  0  0  0  0  0  0
  -87.4604   34.0963   -4.5284 N   0  0  0  0  0  0  0  0  0  0  0  0
  -87.3593   34.5056   -3.1873 C   0  0  0  0  0  0  0  0  0  0  0  0
  -87.6919   35.6569   -2.8091 O   0  0  0  0  0  0  0  0  0  0  0  0
  -87.1874   33.1531   -4.8354 H   0  0  0  0  0  0  0  0  0  0  0  0
  -87.2286   37.7670   -7.8465 C   0  0  0  0  0  0  0  0  0  0  0  0
  -87.9310   36.7306   -6.9933 C   0  0  0  0  0  0  0  0  0  0  0  0
  -89.2576   36.6126   -7.0594 N   0  0  0  0  0  0  0  0  0  0  0  0
  -89.5726   35.3691   -5.9663 S   0  0  0  0  0  0  0  0  0  0  0  0
  -87.9687   35.0609   -5.4750 C   0  0  0  0  0  0  0  0  0  0  0  0
  -87.2853   35.9451   -6.1920 N   0  0  0  0  0  0  0  0  0  0  0  0
 19 20  1  0  0  0
 20 21  2  0  0  0
 21 22  1  0  0  0
 22 23  1  0  0  0
 23 15  1  0  0  0
 15 16  1  0  0  0
 16 17  2  0  0  0
 16  1  1  0  0  0
  1  2  2  0  0  0
  2  3  1  0  0  0
  3  4  1  0  0  0
  4  5  2  0  0  0
  4  6  1  0  0  0
  6  7  2  0  0  0
  7  8  1  0  0  0
  8  9  2  0  0  0
  9 10  1  0  0  0
 10 11  1  0  0  0
 11 12  1  0  0  0
 12 13  1  0  0  0
 13 14  2  0  0  0
 23 24  2  0  0  0
 24 20  1  0  0  0
  5  1  1  0  0  0
 14  6  1  0  0  0
 13  9  1  0  0  0
 15 18  1  0  0  0
M  END
> <minimizedAffinity>
-6.80589

> <CNNscore>
0.1033007130

> <CNNaffinity>
5.4062223434

> <CNN_VS>
0.5584666133

> <CNNaffinity_variance>
0.1452994645

$$$$
[H]c1sc(-c2c([H])c([H])c3c(c2[H])C([H])([H])C([H])([H])O3)nc1C(=O)N([H])c1nc(C([H])([H])[H])ns1


 24 27  0  0  0  0  0  0  0  0999 V2000
  -90.3369   29.0042   -1.5370 C   0  0  0  0  0  0  0  0  0  0  0  0
  -91.1235   30.0724   -1.9105 C   0  0  0  0  0  0  0  0  0  0  0  0
  -90.0643   31.3885   -1.6394 S   0  0  0  0  0  0  0  0  0  0  0  0
  -88.7158   30.5095   -1.0793 C   0  0  0  0  0  0  0  0  0  0  0  0
  -89.1378   29.2660   -1.1268 N   0  0  0  0  0  0  0  0  0  0  0  0
  -87.4113   31.0371   -0.6534 C   0  0  0  0  0  0  0  0  0  0  0  0
  -87.1193   32.3714   -0.8033 C   0  0  0  0  0  0  0  0  0  0  0  0
  -85.8751   32.8543   -0.3929 C   0  0  0  0  0  0  0  0  0  0  0  0
  -84.9177   32.0344    0.1631 C   0  0  0  0  0  0  0  0  0  0  0  0
  -83.6140   32.2593    0.6503 O   0  0  0  0  0  0  0  0  0  0  0  0
  -83.3382   31.2153    1.6003 C   0  0  0  0  0  0  0  0  0  0  0  0
  -84.0313   30.0580    0.9191 C   0  0  0  0  0  0  0  0  0  0  0  0
  -85.2210   30.7001    0.3082 C   0  0  0  0  0  0  0  0  0  0  0  0
  -86.4611   30.2128   -0.0995 C   0  0  0  0  0  0  0  0  0  0  0  0
  -92.2298   27.3598   -1.3535 N   0  0  0  0  0  0  0  0  0  0  0  0
  -90.8734   27.6220   -1.6141 C   0  0  0  0  0  0  0  0  0  0  0  0
  -90.0603   26.7142   -1.9206 O   0  0  0  0  0  0  0  0  0  0  0  0
  -92.8935   28.1048   -1.1029 H   0  0  0  0  0  0  0  0  0  0  0  0
  -94.0435   23.3125   -3.5598 C   0  0  0  0  0  0  0  0  0  0  0  0
  -93.4861   24.1089   -2.3977 C   0  0  0  0  0  0  0  0  0  0  0  0
  -93.3341   23.5221   -1.2099 N   0  0  0  0  0  0  0  0  0  0  0  0
  -92.7029   24.7647   -0.2624 S   0  0  0  0  0  0  0  0  0  0  0  0
  -92.6660   25.9868   -1.4514 C   0  0  0  0  0  0  0  0  0  0  0  0
  -93.1474   25.3530   -2.5142 N   0  0  0  0  0  0  0  0  0  0  0  0
 19 20  1  0  0  0
 20 21  2  0  0  0
 21 22  1  0  0  0
 22 23  1  0  0  0
 23 15  1  0  0  0
 15 16  1  0  0  0
 16 17  2  0  0  0
 16  1  1  0  0  0
  1  2  2  0  0  0
  2  3  1  0  0  0
  3  4  1  0  0  0
  4  5  2  0  0  0
  4  6  1  0  0  0
  6  7  2  0  0  0
  7  8  1  0  0  0
  8  9  2  0  0  0
  9 10  1  0  0  0
 10 11  1  0  0  0
 11 12  1  0  0  0
 12 13  1  0  0  0
 13 14  2  0  0  0
 23 24  2  0  0  0
 24 20  1  0  0  0
  5  1  1  0  0  0
 14  6  1  0  0  0
 13  9  1  0  0  0
 15 18  1  0  0  0
M  END
> <minimizedAffinity>
-6.62357

> <CNNscore>
0.0959949940

> <CNNaffinity>
5.3570280075

> <CNN_VS>
0.5142478943

> <CNNaffinity_variance>
0.2004163563

$$$$
[H]c1sc(-c2c([H])c([H])c3c(c2[H])C([H])([H])C([H])([H])O3)nc1C(=O)N([H])c1nc2c([H])c([H])c(C(=O)N3C([H])([H])C([H])([H])OC([H])([H])C3([H])[H])c([H])c2s1


 35 40  0  0  0  0  0  0  0  0999 V2000
  -91.0148   28.6402   -2.9822 O   0  0  0  0  0  0  0  0  0  0  0  0
  -90.4205   28.8472   -1.9079 C   0  0  0  0  0  0  0  0  0  0  0  0
  -90.3902   27.8194   -0.9307 N   0  0  0  0  0  0  0  0  0  0  0  0
  -89.9042   27.9479   -0.0161 H   0  0  0  0  0  0  0  0  0  0  0  0
  -91.0357   26.5810   -1.1968 C   0  0  0  0  0  0  0  0  0  0  0  0
  -92.1400   26.1407   -0.6395 N   0  0  0  0  0  0  0  0  0  0  0  0
  -92.6270   24.9770   -0.9788 C   0  0  0  0  0  0  0  0  0  0  0  0
  -93.7971   24.3966   -0.4570 C   0  0  0  0  0  0  0  0  0  0  0  0
  -94.1806   23.1536   -0.9211 C   0  0  0  0  0  0  0  0  0  0  0  0
  -93.5409   22.4060   -1.8488 C   0  0  0  0  0  0  0  0  0  0  0  0
  -92.3648   23.0097   -2.3610 C   0  0  0  0  0  0  0  0  0  0  0  0
  -91.9518   24.2527   -1.9187 C   0  0  0  0  0  0  0  0  0  0  0  0
  -90.6291   25.3119   -2.2653 S   0  0  0  0  0  0  0  0  0  0  0  0
  -93.8560   21.1163   -2.3937 C   0  0  0  0  0  0  0  0  0  0  0  0
  -93.5360   20.0598   -1.6613 O   0  0  0  0  0  0  0  0  0  0  0  0
  -94.4610   20.8020   -3.6035 N   0  0  0  0  0  0  0  0  0  0  0  0
  -94.9308   21.6714   -4.6294 C   0  0  0  0  0  0  0  0  0  0  0  0
  -95.4941   20.7830   -5.7636 C   0  0  0  0  0  0  0  0  0  0  0  0
  -96.5204   20.0401   -5.2341 O   0  0  0  0  0  0  0  0  0  0  0  0
  -96.1233   19.1948   -4.2209 C   0  0  0  0  0  0  0  0  0  0  0  0
  -94.6590   19.3413   -3.8941 C   0  0  0  0  0  0  0  0  0  0  0  0
  -89.7528   30.1471   -1.6492 C   0  0  0  0  0  0  0  0  0  0  0  0
  -90.4236   31.3387   -1.8277 C   0  0  0  0  0  0  0  0  0  0  0  0
  -89.2306   32.4791   -1.4040 S   0  0  0  0  0  0  0  0  0  0  0  0
  -87.9517   31.3880   -1.0253 C   0  0  0  0  0  0  0  0  0  0  0  0
  -88.5240   30.2185   -1.2489 N   0  0  0  0  0  0  0  0  0  0  0  0
  -86.5972   31.6939   -0.5766 C   0  0  0  0  0  0  0  0  0  0  0  0
  -86.0062   32.8717   -0.9507 C   0  0  0  0  0  0  0  0  0  0  0  0
  -84.7024   33.1300   -0.4992 C   0  0  0  0  0  0  0  0  0  0  0  0
  -84.0354   32.2234    0.2986 C   0  0  0  0  0  0  0  0  0  0  0  0
  -82.7594   32.2153    0.8829 O   0  0  0  0  0  0  0  0  0  0  0  0
  -82.3725   30.8799    1.1630 C   0  0  0  0  0  0  0  0  0  0  0  0
  -83.7048   30.2534    1.5236 C   0  0  0  0  0  0  0  0  0  0  0  0
  -84.6386   31.0361    0.6722 C   0  0  0  0  0  0  0  0  0  0  0  0
  -85.9277   30.8169    0.2061 C   0  0  0  0  0  0  0  0  0  0  0  0
  1  2  2  0  0  0
  2  3  1  0  0  0
  3  5  1  0  0  0
  5  6  2  0  0  0
  6  7  1  0  0  0
  7  8  2  0  0  0
  8  9  1  0  0  0
  9 10  2  0  0  0
 10 11  1  0  0  0
 11 12  2  0  0  0
 12 13  1  0  0  0
 10 14  1  0  0  0
 14 15  2  0  0  0
 14 16  1  0  0  0
 16 17  1  0  0  0
 17 18  1  0  0  0
 18 19  1  0  0  0
 19 20  1  0  0  0
 20 21  1  0  0  0
  2 22  1  0  0  0
 22 23  2  0  0  0
 23 24  1  0  0  0
 24 25  1  0  0  0
 25 26  2  0  0  0
 25 27  1  0  0  0
 27 28  2  0  0  0
 28 29  1  0  0  0
 29 30  2  0  0  0
 30 31  1  0  0  0
 31 32  1  0  0  0
 32 33  1  0  0  0
 33 34  1  0  0  0
 34 35  2  0  0  0
 13  5  1  0  0  0
 21 16  1  0  0  0
 26 22  1  0  0  0
 35 27  1  0  0  0
 12  7  1  0  0  0
 34 30  1  0  0  0
  3  4  1  0  0  0
M  END
> <minimizedAffinity>
-7.70016

> <CNNscore>
0.1093579084

> <CNNaffinity>
5.9215970039

> <CNN_VS>
0.6475734711

> <CNNaffinity_variance>
0.4330911636

$$$$
[H]c1sc(-c2c([H])c([H])c3c(c2[H])C([H])([H])C([H])([H])O3)nc1C(=O)N([H])c1nc2c([H])c([H])c(C(=O)N3C([H])([H])C([H])([H])OC([H])([H])C3([H])[H])c([H])c2s1


 35 40  0  0  0  0  0  0  0  0999 V2000
  -89.7206   28.2069   -2.9396 O   0  0  0  0  0  0  0  0  0  0  0  0
  -90.3041   29.2361   -2.5519 C   0  0  0  0  0  0  0  0  0  0  0  0
  -91.7062   29.3424   -2.7387 N   0  0  0  0  0  0  0  0  0  0  0  0
  -92.2373   30.1860   -2.4297 H   0  0  0  0  0  0  0  0  0  0  0  0
  -92.4123   28.2772   -3.3616 C   0  0  0  0  0  0  0  0  0  0  0  0
  -92.4501   28.0120   -4.6470 N   0  0  0  0  0  0  0  0  0  0  0  0
  -93.1426   26.9955   -5.0869 C   0  0  0  0  0  0  0  0  0  0  0  0
  -93.2621   26.6090   -6.4339 C   0  0  0  0  0  0  0  0  0  0  0  0
  -94.0352   25.5055   -6.7377 C   0  0  0  0  0  0  0  0  0  0  0  0
  -94.7123   24.7288   -5.8619 C   0  0  0  0  0  0  0  0  0  0  0  0
  -94.5780   25.1362   -4.5105 C   0  0  0  0  0  0  0  0  0  0  0  0
  -93.8122   26.2360   -4.1711 C   0  0  0  0  0  0  0  0  0  0  0  0
  -93.3961   27.0470   -2.7011 S   0  0  0  0  0  0  0  0  0  0  0  0
  -95.5341   23.5719   -6.0753 C   0  0  0  0  0  0  0  0  0  0  0  0
  -96.4627   23.6595   -7.0161 O   0  0  0  0  0  0  0  0  0  0  0  0
  -95.5011   22.3440   -5.4276 N   0  0  0  0  0  0  0  0  0  0  0  0
  -94.6460   21.9009   -4.3780 C   0  0  0  0  0  0  0  0  0  0  0  0
  -95.0645   20.4547   -4.0226 C   0  0  0  0  0  0  0  0  0  0  0  0
  -94.9025   19.6896   -5.1513 O   0  0  0  0  0  0  0  0  0  0  0  0
  -95.6935   20.0892   -6.2064 C   0  0  0  0  0  0  0  0  0  0  0  0
  -96.5018   21.3196   -5.8819 C   0  0  0  0  0  0  0  0  0  0  0  0
  -89.5489   30.3371   -1.9038 C   0  0  0  0  0  0  0  0  0  0  0  0
  -90.0765   31.6086   -1.8213 C   0  0  0  0  0  0  0  0  0  0  0  0
  -88.8365   32.4504   -1.0106 S   0  0  0  0  0  0  0  0  0  0  0  0
  -87.7215   31.1503   -0.8211 C   0  0  0  0  0  0  0  0  0  0  0  0
  -88.3738   30.1540   -1.3929 N   0  0  0  0  0  0  0  0  0  0  0  0
  -86.4052   31.1646   -0.1911 C   0  0  0  0  0  0  0  0  0  0  0  0
  -85.5922   32.2572   -0.3385 C   0  0  0  0  0  0  0  0  0  0  0  0
  -84.3335   32.2334    0.2823 C   0  0  0  0  0  0  0  0  0  0  0  0
  -83.9269   31.1408    1.0199 C   0  0  0  0  0  0  0  0  0  0  0  0
  -82.7547   30.8462    1.7332 O   0  0  0  0  0  0  0  0  0  0  0  0
  -82.6231   29.4410    1.8734 C   0  0  0  0  0  0  0  0  0  0  0  0
  -84.0729   29.0175    2.0003 C   0  0  0  0  0  0  0  0  0  0  0  0
  -84.7533   30.0412    1.1644 C   0  0  0  0  0  0  0  0  0  0  0  0
  -85.9895   30.1022    0.5359 C   0  0  0  0  0  0  0  0  0  0  0  0
  1  2  2  0  0  0
  2  3  1  0  0  0
  3  5  1  0  0  0
  5  6  2  0  0  0
  6  7  1  0  0  0
  7  8  2  0  0  0
  8  9  1  0  0  0
  9 10  2  0  0  0
 10 11  1  0  0  0
 11 12  2  0  0  0
 12 13  1  0  0  0
 10 14  1  0  0  0
 14 15  2  0  0  0
 14 16  1  0  0  0
 16 17  1  0  0  0
 17 18  1  0  0  0
 18 19  1  0  0  0
 19 20  1  0  0  0
 20 21  1  0  0  0
  2 22  1  0  0  0
 22 23  2  0  0  0
 23 24  1  0  0  0
 24 25  1  0  0  0
 25 26  2  0  0  0
 25 27  1  0  0  0
 27 28  2  0  0  0
 28 29  1  0  0  0
 29 30  2  0  0  0
 30 31  1  0  0  0
 31 32  1  0  0  0
 32 33  1  0  0  0
 33 34  1  0  0  0
 34 35  2  0  0  0
 13  5  1  0  0  0
 21 16  1  0  0  0
 26 22  1  0  0  0
 35 27  1  0  0  0
 12  7  1  0  0  0
 34 30  1  0  0  0
  3  4  1  0  0  0
M  END
> <minimizedAffinity>
-8.50591

> <CNNscore>
0.1014783084

> <CNNaffinity>
5.6456689835

> <CNN_VS>
0.5729129314

> <CNNaffinity_variance>
0.1611754596

$$$$
[H]c1sc(-c2c([H])c([H])c3c(c2[H])C([H])([H])C([H])([H])O3)nc1C(=O)N([H])c1nc2c([H])c([H])c(C(=O)N3C([H])([H])C([H])([H])OC([H])([H])C3([H])[H])c([H])c2s1


 35 40  0  0  0  0  0  0  0  0999 V2000
  -90.6382   29.6601   -4.0415 O   0  0  0  0  0  0  0  0  0  0  0  0
  -90.3378   29.7976   -2.8411 C   0  0  0  0  0  0  0  0  0  0  0  0
  -90.7745   28.8226   -1.9078 N   0  0  0  0  0  0  0  0  0  0  0  0
  -90.5466   28.8964   -0.8921 H   0  0  0  0  0  0  0  0  0  0  0  0
  -91.5421   27.7148   -2.3602 C   0  0  0  0  0  0  0  0  0  0  0  0
  -92.8512   27.6145   -2.3466 N   0  0  0  0  0  0  0  0  0  0  0  0
  -93.4309   26.5333   -2.7955 C   0  0  0  0  0  0  0  0  0  0  0  0
  -94.8182   26.3053   -2.8346 C   0  0  0  0  0  0  0  0  0  0  0  0
  -95.2755   25.1046   -3.3413 C   0  0  0  0  0  0  0  0  0  0  0  0
  -94.5197   24.0903   -3.8195 C   0  0  0  0  0  0  0  0  0  0  0  0
  -93.1251   24.3412   -3.7706 C   0  0  0  0  0  0  0  0  0  0  0  0
  -92.6330   25.5321   -3.2697 C   0  0  0  0  0  0  0  0  0  0  0  0
  -91.0637   26.2210   -3.0365 S   0  0  0  0  0  0  0  0  0  0  0  0
  -94.8953   22.8165   -4.3632 C   0  0  0  0  0  0  0  0  0  0  0  0
  -95.4864   22.8197   -5.5488 O   0  0  0  0  0  0  0  0  0  0  0  0
  -94.7282   21.5497   -3.8195 N   0  0  0  0  0  0  0  0  0  0  0  0
  -94.1411   21.1716   -2.5779 C   0  0  0  0  0  0  0  0  0  0  0  0
  -94.2404   19.6316   -2.4716 C   0  0  0  0  0  0  0  0  0  0  0  0
  -93.5470   19.0997   -3.5308 O   0  0  0  0  0  0  0  0  0  0  0  0
  -94.0620   19.4519   -4.7593 C   0  0  0  0  0  0  0  0  0  0  0  0
  -95.2310   20.3964   -4.6406 C   0  0  0  0  0  0  0  0  0  0  0  0
  -89.5357   30.9614   -2.3889 C   0  0  0  0  0  0  0  0  0  0  0  0
  -89.9999   32.2501   -2.5492 C   0  0  0  0  0  0  0  0  0  0  0  0
  -88.7283   33.1662   -1.8804 S   0  0  0  0  0  0  0  0  0  0  0  0
  -87.6818   31.8713   -1.4359 C   0  0  0  0  0  0  0  0  0  0  0  0
  -88.3768   30.8193   -1.8300 N   0  0  0  0  0  0  0  0  0  0  0  0
  -86.3734   31.9382   -0.7930 C   0  0  0  0  0  0  0  0  0  0  0  0
  -85.5493   33.0050   -1.0367 C   0  0  0  0  0  0  0  0  0  0  0  0
  -84.2987   33.0334   -0.3999 C   0  0  0  0  0  0  0  0  0  0  0  0
  -83.9107   32.0160    0.4472 C   0  0  0  0  0  0  0  0  0  0  0  0
  -82.7499   31.7847    1.2014 O   0  0  0  0  0  0  0  0  0  0  0  0
  -82.6322   30.3993    1.4812 C   0  0  0  0  0  0  0  0  0  0  0  0
  -84.0870   30.0010    1.6302 C   0  0  0  0  0  0  0  0  0  0  0  0
  -84.7481   30.9420    0.6884 C   0  0  0  0  0  0  0  0  0  0  0  0
  -85.9759   30.9497    0.0407 C   0  0  0  0  0  0  0  0  0  0  0  0
  1  2  2  0  0  0
  2  3  1  0  0  0
  3  5  1  0  0  0
  5  6  2  0  0  0
  6  7  1  0  0  0
  7  8  2  0  0  0
  8  9  1  0  0  0
  9 10  2  0  0  0
 10 11  1  0  0  0
 11 12  2  0  0  0
 12 13  1  0  0  0
 10 14  1  0  0  0
 14 15  2  0  0  0
 14 16  1  0  0  0
 16 17  1  0  0  0
 17 18  1  0  0  0
 18 19  1  0  0  0
 19 20  1  0  0  0
 20 21  1  0  0  0
  2 22  1  0  0  0
 22 23  2  0  0  0
 23 24  1  0  0  0
 24 25  1  0  0  0
 25 26  2  0  0  0
 25 27  1  0  0  0
 27 28  2  0  0  0
 28 29  1  0  0  0
 29 30  2  0  0  0
 30 31  1  0  0  0
 31 32  1  0  0  0
 32 33  1  0  0  0
 33 34  1  0  0  0
 34 35  2  0  0  0
 13  5  1  0  0  0
 21 16  1  0  0  0
 26 22  1  0  0  0
 35 27  1  0  0  0
 12  7  1  0  0  0
 34 30  1  0  0  0
  3  4  1  0  0  0
M  END
> <minimizedAffinity>
-7.95969

> <CNNscore>
0.0888919905

> <CNNaffinity>
5.7574815750

> <CNN_VS>
0.5117939711

> <CNNaffinity_variance>
0.2116813213

$$$$
[H]c1sc(-c2c([H])c([H])c3c(c2[H])C([H])([H])C([H])([H])O3)nc1C(=O)N([H])c1nc2c([H])c([H])c(C(=O)N3C([H])([H])C([H])([H])OC([H])([H])C3([H])[H])c([H])c2s1


 35 40  0  0  0  0  0  0  0  0999 V2000
  -88.3254   30.6128   -4.7012 O   0  0  0  0  0  0  0  0  0  0  0  0
  -88.5689   31.4270   -3.7913 C   0  0  0  0  0  0  0  0  0  0  0  0
  -89.2681   30.9818   -2.6402 N   0  0  0  0  0  0  0  0  0  0  0  0
  -89.4941   31.6284   -1.8528 H   0  0  0  0  0  0  0  0  0  0  0  0
  -89.6742   29.6223   -2.5500 C   0  0  0  0  0  0  0  0  0  0  0  0
  -88.9899   28.6370   -2.0160 N   0  0  0  0  0  0  0  0  0  0  0  0
  -89.4848   27.4282   -1.9998 C   0  0  0  0  0  0  0  0  0  0  0  0
  -88.8534   26.2933   -1.4599 C   0  0  0  0  0  0  0  0  0  0  0  0
  -89.5113   25.0805   -1.5209 C   0  0  0  0  0  0  0  0  0  0  0  0
  -90.7314   24.8504   -2.0568 C   0  0  0  0  0  0  0  0  0  0  0  0
  -91.3494   26.0074   -2.5949 C   0  0  0  0  0  0  0  0  0  0  0  0
  -90.7192   27.2371   -2.5508 C   0  0  0  0  0  0  0  0  0  0  0  0
  -91.1018   28.8420   -3.0700 S   0  0  0  0  0  0  0  0  0  0  0  0
  -91.4940   23.6398   -2.1669 C   0  0  0  0  0  0  0  0  0  0  0  0
  -91.0933   22.6085   -1.4383 O   0  0  0  0  0  0  0  0  0  0  0  0
  -92.6168   23.3807   -2.9419 N   0  0  0  0  0  0  0  0  0  0  0  0
  -93.3138   24.2432   -3.8360 C   0  0  0  0  0  0  0  0  0  0  0  0
  -94.4766   23.4281   -4.4495 C   0  0  0  0  0  0  0  0  0  0  0  0
  -95.2866   23.0242   -3.4169 O   0  0  0  0  0  0  0  0  0  0  0  0
  -94.6545   22.2023   -2.5094 C   0  0  0  0  0  0  0  0  0  0  0  0
  -93.1976   21.9990   -2.8393 C   0  0  0  0  0  0  0  0  0  0  0  0
  -88.1364   32.8422   -3.9047 C   0  0  0  0  0  0  0  0  0  0  0  0
  -87.4115   33.4466   -2.8993 C   0  0  0  0  0  0  0  0  0  0  0  0
  -87.1875   35.0160   -3.5238 S   0  0  0  0  0  0  0  0  0  0  0  0
  -88.0215   34.8215   -5.0192 C   0  0  0  0  0  0  0  0  0  0  0  0
  -88.4179   33.5637   -4.9418 N   0  0  0  0  0  0  0  0  0  0  0  0
  -88.2263   35.8011   -6.0813 C   0  0  0  0  0  0  0  0  0  0  0  0
  -89.4499   35.8995   -6.6894 C   0  0  0  0  0  0  0  0  0  0  0  0
  -89.6078   36.8537   -7.7067 C   0  0  0  0  0  0  0  0  0  0  0  0
  -88.5606   37.6690   -8.0833 C   0  0  0  0  0  0  0  0  0  0  0  0
  -88.4319   38.6851   -9.0428 O   0  0  0  0  0  0  0  0  0  0  0  0
  -87.0649   38.8472   -9.3842 C   0  0  0  0  0  0  0  0  0  0  0  0
  -86.3903   38.5520   -8.0594 C   0  0  0  0  0  0  0  0  0  0  0  0
  -87.3280   37.5638   -7.4648 C   0  0  0  0  0  0  0  0  0  0  0  0
  -87.2110   36.6090   -6.4639 C   0  0  0  0  0  0  0  0  0  0  0  0
  1  2  2  0  0  0
  2  3  1  0  0  0
  3  5  1  0  0  0
  5  6  2  0  0  0
  6  7  1  0  0  0
  7  8  2  0  0  0
  8  9  1  0  0  0
  9 10  2  0  0  0
 10 11  1  0  0  0
 11 12  2  0  0  0
 12 13  1  0  0  0
 10 14  1  0  0  0
 14 15  2  0  0  0
 14 16  1  0  0  0
 16 17  1  0  0  0
 17 18  1  0  0  0
 18 19  1  0  0  0
 19 20  1  0  0  0
 20 21  1  0  0  0
  2 22  1  0  0  0
 22 23  2  0  0  0
 23 24  1  0  0  0
 24 25  1  0  0  0
 25 26  2  0  0  0
 25 27  1  0  0  0
 27 28  2  0  0  0
 28 29  1  0  0  0
 29 30  2  0  0  0
 30 31  1  0  0  0
 31 32  1  0  0  0
 32 33  1  0  0  0
 33 34  1  0  0  0
 34 35  2  0  0  0
 13  5  1  0  0  0
 21 16  1  0  0  0
 26 22  1  0  0  0
 35 27  1  0  0  0
 12  7  1  0  0  0
 34 30  1  0  0  0
  3  4  1  0  0  0
M  END
> <minimizedAffinity>
-7.68269

> <CNNscore>
0.0713679641

> <CNNaffinity>
5.4396734238

> <CNN_VS>
0.3882184327

> <CNNaffinity_variance>
0.1484723389

$$$$
[H]c1sc(-c2c([H])c([H])c3c(c2[H])C([H])([H])C([H])([H])O3)nc1C(=O)N([H])c1nc2c([H])c([H])c(C(=O)N3C([H])([H])C([H])([H])OC([H])([H])C3([H])[H])c([H])c2s1


 35 40  0  0  0  0  0  0  0  0999 V2000
  -90.1131   30.9629   -2.4021 O   0  0  0  0  0  0  0  0  0  0  0  0
  -90.8866   30.9712   -3.3778 C   0  0  0  0  0  0  0  0  0  0  0  0
  -91.6884   29.8282   -3.6282 N   0  0  0  0  0  0  0  0  0  0  0  0
  -92.3508   29.7900   -4.4338 H   0  0  0  0  0  0  0  0  0  0  0  0
  -91.5927   28.7029   -2.7646 C   0  0  0  0  0  0  0  0  0  0  0  0
  -90.5811   27.8705   -2.6762 N   0  0  0  0  0  0  0  0  0  0  0  0
  -90.6248   26.8722   -1.8348 C   0  0  0  0  0  0  0  0  0  0  0  0
  -89.6105   25.9161   -1.6469 C   0  0  0  0  0  0  0  0  0  0  0  0
  -89.8098   24.9173   -0.7141 C   0  0  0  0  0  0  0  0  0  0  0  0
  -90.9022   24.7467    0.0646 C   0  0  0  0  0  0  0  0  0  0  0  0
  -91.9115   25.7210   -0.1411 C   0  0  0  0  0  0  0  0  0  0  0  0
  -91.7450   26.7343   -1.0667 C   0  0  0  0  0  0  0  0  0  0  0  0
  -92.6880   28.0776   -1.6127 S   0  0  0  0  0  0  0  0  0  0  0  0
  -91.2020   23.7521    1.0546 C   0  0  0  0  0  0  0  0  0  0  0  0
  -92.0726   22.8120    0.7178 O   0  0  0  0  0  0  0  0  0  0  0  0
  -90.7043   23.6241    2.3447 N   0  0  0  0  0  0  0  0  0  0  0  0
  -89.7645   24.4432    3.0339 C   0  0  0  0  0  0  0  0  0  0  0  0
  -89.5912   23.8515    4.4526 C   0  0  0  0  0  0  0  0  0  0  0  0
  -89.1211   22.5693    4.3097 O   0  0  0  0  0  0  0  0  0  0  0  0
  -89.9847   21.7380    3.6301 C   0  0  0  0  0  0  0  0  0  0  0  0
  -91.2158   22.4623    3.1481 C   0  0  0  0  0  0  0  0  0  0  0  0
  -90.9718   32.1559   -4.2676 C   0  0  0  0  0  0  0  0  0  0  0  0
  -91.3928   32.0340   -5.5751 C   0  0  0  0  0  0  0  0  0  0  0  0
  -91.3052   33.6451   -6.1229 S   0  0  0  0  0  0  0  0  0  0  0  0
  -90.7420   34.3825   -4.6708 C   0  0  0  0  0  0  0  0  0  0  0  0
  -90.6577   33.3434   -3.8594 N   0  0  0  0  0  0  0  0  0  0  0  0
  -90.4419   35.7886   -4.4210 C   0  0  0  0  0  0  0  0  0  0  0  0
  -91.4532   36.6521   -4.0919 C   0  0  0  0  0  0  0  0  0  0  0  0
  -91.1249   37.9969   -3.8592 C   0  0  0  0  0  0  0  0  0  0  0  0
  -89.8210   38.4363   -3.9591 C   0  0  0  0  0  0  0  0  0  0  0  0
  -89.2144   39.6900   -3.7863 O   0  0  0  0  0  0  0  0  0  0  0  0
  -87.9812   39.7228   -4.4861 C   0  0  0  0  0  0  0  0  0  0  0  0
  -87.5118   38.2901   -4.3292 C   0  0  0  0  0  0  0  0  0  0  0  0
  -88.8052   37.5586   -4.2919 C   0  0  0  0  0  0  0  0  0  0  0  0
  -89.1692   36.2376   -4.5144 C   0  0  0  0  0  0  0  0  0  0  0  0
  1  2  2  0  0  0
  2  3  1  0  0  0
  3  5  1  0  0  0
  5  6  2  0  0  0
  6  7  1  0  0  0
  7  8  2  0  0  0
  8  9  1  0  0  0
  9 10  2  0  0  0
 10 11  1  0  0  0
 11 12  2  0  0  0
 12 13  1  0  0  0
 10 14  1  0  0  0
 14 15  2  0  0  0
 14 16  1  0  0  0
 16 17  1  0  0  0
 17 18  1  0  0  0
 18 19  1  0  0  0
 19 20  1  0  0  0
 20 21  1  0  0  0
  2 22  1  0  0  0
 22 23  2  0  0  0
 23 24  1  0  0  0
 24 25  1  0  0  0
 25 26  2  0  0  0
 25 27  1  0  0  0
 27 28  2  0  0  0
 28 29  1  0  0  0
 29 30  2  0  0  0
 30 31  1  0  0  0
 31 32  1  0  0  0
 32 33  1  0  0  0
 33 34  1  0  0  0
 34 35  2  0  0  0
 13  5  1  0  0  0
 21 16  1  0  0  0
 26 22  1  0  0  0
 35 27  1  0  0  0
 12  7  1  0  0  0
 34 30  1  0  0  0
  3  4  1  0  0  0
M  END
> <minimizedAffinity>
-5.01819

> <CNNscore>
0.0702775195

> <CNNaffinity>
5.3657755852

> <CNN_VS>
0.3770934045

> <CNNaffinity_variance>
0.5157019496

$$$$
[H]c1sc(-c2c([H])c([H])c3c(c2[H])C([H])([H])C([H])([H])O3)nc1C(=O)N([H])c1nc2c([H])c([H])c(C(=O)N3C([H])([H])C([H])([H])OC([H])([H])C3([H])[H])c([H])c2s1


 35 40  0  0  0  0  0  0  0  0999 V2000
  -90.5599   28.1659   -3.1796 O   0  0  0  0  0  0  0  0  0  0  0  0
  -89.9005   27.7369   -2.2146 C   0  0  0  0  0  0  0  0  0  0  0  0
  -89.0573   28.6317   -1.5070 N   0  0  0  0  0  0  0  0  0  0  0  0
  -88.4864   28.3170   -0.6920 H   0  0  0  0  0  0  0  0  0  0  0  0
  -88.9831   29.9923   -1.9123 C   0  0  0  0  0  0  0  0  0  0  0  0
  -88.3727   30.4572   -2.9778 N   0  0  0  0  0  0  0  0  0  0  0  0
  -88.3828   31.7384   -3.2328 C   0  0  0  0  0  0  0  0  0  0  0  0
  -87.7688   32.3574   -4.3363 C   0  0  0  0  0  0  0  0  0  0  0  0
  -87.8708   33.7288   -4.4648 C   0  0  0  0  0  0  0  0  0  0  0  0
  -88.5132   34.5723   -3.6255 C   0  0  0  0  0  0  0  0  0  0  0  0
  -89.1245   33.9275   -2.5206 C   0  0  0  0  0  0  0  0  0  0  0  0
  -89.0421   32.5568   -2.3612 C   0  0  0  0  0  0  0  0  0  0  0  0
  -89.6201   31.4096   -1.2029 S   0  0  0  0  0  0  0  0  0  0  0  0
  -88.6760   35.9974   -3.6714 C   0  0  0  0  0  0  0  0  0  0  0  0
  -87.7525   36.7277   -3.0640 O   0  0  0  0  0  0  0  0  0  0  0  0
  -89.6811   36.7441   -4.2717 N   0  0  0  0  0  0  0  0  0  0  0  0
  -90.8207   36.2999   -5.0019 C   0  0  0  0  0  0  0  0  0  0  0  0
  -91.6164   37.5576   -5.4236 C   0  0  0  0  0  0  0  0  0  0  0  0
  -90.7909   38.3233   -6.2095 O   0  0  0  0  0  0  0  0  0  0  0  0
  -89.6602   38.7632   -5.5564 C   0  0  0  0  0  0  0  0  0  0  0  0
  -89.5725   38.2373   -4.1463 C   0  0  0  0  0  0  0  0  0  0  0  0
  -89.9918   26.3128   -1.8072 C   0  0  0  0  0  0  0  0  0  0  0  0
  -89.0158   25.7335   -1.0240 C   0  0  0  0  0  0  0  0  0  0  0  0
  -89.5976   24.1403   -0.8605 S   0  0  0  0  0  0  0  0  0  0  0  0
  -91.0404   24.2946   -1.7900 C   0  0  0  0  0  0  0  0  0  0  0  0
  -90.9817   25.5597   -2.1657 N   0  0  0  0  0  0  0  0  0  0  0  0
  -92.0511   23.2817   -2.0766 C   0  0  0  0  0  0  0  0  0  0  0  0
  -92.5740   23.1803   -3.3387 C   0  0  0  0  0  0  0  0  0  0  0  0
  -93.5441   22.1937   -3.5753 C   0  0  0  0  0  0  0  0  0  0  0  0
  -93.9589   21.3502   -2.5655 C   0  0  0  0  0  0  0  0  0  0  0  0
  -94.8878   20.2995   -2.5131 O   0  0  0  0  0  0  0  0  0  0  0  0
  -95.3118   20.1052   -1.1737 C   0  0  0  0  0  0  0  0  0  0  0  0
  -94.0453   20.4363   -0.4096 C   0  0  0  0  0  0  0  0  0  0  0  0
  -93.4264   21.4585   -1.2937 C   0  0  0  0  0  0  0  0  0  0  0  0
  -92.4701   22.4458   -1.0990 C   0  0  0  0  0  0  0  0  0  0  0  0
  1  2  2  0  0  0
  2  3  1  0  0  0
  3  5  1  0  0  0
  5  6  2  0  0  0
  6  7  1  0  0  0
  7  8  2  0  0  0
  8  9  1  0  0  0
  9 10  2  0  0  0
 10 11  1  0  0  0
 11 12  2  0  0  0
 12 13  1  0  0  0
 10 14  1  0  0  0
 14 15  2  0  0  0
 14 16  1  0  0  0
 16 17  1  0  0  0
 17 18  1  0  0  0
 18 19  1  0  0  0
 19 20  1  0  0  0
 20 21  1  0  0  0
  2 22  1  0  0  0
 22 23  2  0  0  0
 23 24  1  0  0  0
 24 25  1  0  0  0
 25 26  2  0  0  0
 25 27  1  0  0  0
 27 28  2  0  0  0
 28 29  1  0  0  0
 29 30  2  0  0  0
 30 31  1  0  0  0
 31 32  1  0  0  0
 32 33  1  0  0  0
 33 34  1  0  0  0
 34 35  2  0  0  0
 13  5  1  0  0  0
 21 16  1  0  0  0
 26 22  1  0  0  0
 35 27  1  0  0  0
 12  7  1  0  0  0
 34 30  1  0  0  0
  3  4  1  0  0  0
M  END
> <minimizedAffinity>
-6.87120

> <CNNscore>
0.0694521666

> <CNNaffinity>
5.2595643997

> <CNN_VS>
0.3652881384

> <CNNaffinity_variance>
0.1721631140

$$$$
[H]c1sc(-c2c([H])c([H])c3c(c2[H])C([H])([H])C([H])([H])O3)nc1C(=O)N([H])c1nc2c([H])c([H])c(C(=O)N3C([H])([H])C([H])([H])OC([H])([H])C3([H])[H])c([H])c2s1


 35 40  0  0  0  0  0  0  0  0999 V2000
  -87.4585   29.9442   -2.0103 O   0  0  0  0  0  0  0  0  0  0  0  0
  -87.3359   30.1663   -0.7913 C   0  0  0  0  0  0  0  0  0  0  0  0
  -87.3296   31.5094   -0.3351 N   0  0  0  0  0  0  0  0  0  0  0  0
  -87.2294   31.7433    0.6770 H   0  0  0  0  0  0  0  0  0  0  0  0
  -87.4625   32.5685   -1.2742 C   0  0  0  0  0  0  0  0  0  0  0  0
  -88.5853   33.0406   -1.7646 N   0  0  0  0  0  0  0  0  0  0  0  0
  -88.5633   34.0227   -2.6257 C   0  0  0  0  0  0  0  0  0  0  0  0
  -89.6921   34.6137   -3.2211 C   0  0  0  0  0  0  0  0  0  0  0  0
  -89.5006   35.6478   -4.1164 C   0  0  0  0  0  0  0  0  0  0  0  0
  -88.3154   36.1747   -4.4992 C   0  0  0  0  0  0  0  0  0  0  0  0
  -87.1915   35.5643   -3.8872 C   0  0  0  0  0  0  0  0  0  0  0  0
  -87.3470   34.5269   -2.9867 C   0  0  0  0  0  0  0  0  0  0  0  0
  -86.2858   33.5370   -2.0455 S   0  0  0  0  0  0  0  0  0  0  0  0
  -88.0139   37.2397   -5.4125 C   0  0  0  0  0  0  0  0  0  0  0  0
  -86.9133   37.9388   -5.1783 O   0  0  0  0  0  0  0  0  0  0  0  0
  -88.7202   37.6577   -6.5327 N   0  0  0  0  0  0  0  0  0  0  0  0
  -89.9326   37.1452   -7.0772 C   0  0  0  0  0  0  0  0  0  0  0  0
  -90.2795   38.0030   -8.3168 C   0  0  0  0  0  0  0  0  0  0  0  0
  -89.2428   37.8772   -9.2084 O   0  0  0  0  0  0  0  0  0  0  0  0
  -88.0391   38.3403   -8.7231 C   0  0  0  0  0  0  0  0  0  0  0  0
  -88.1419   38.8152   -7.2961 C   0  0  0  0  0  0  0  0  0  0  0  0
  -87.1984   29.0467    0.1731 C   0  0  0  0  0  0  0  0  0  0  0  0
  -86.0020   28.8040    0.8146 C   0  0  0  0  0  0  0  0  0  0  0  0
  -86.3879   27.4508    1.7755 S   0  0  0  0  0  0  0  0  0  0  0  0
  -88.0379   27.2671    1.3137 C   0  0  0  0  0  0  0  0  0  0  0  0
  -88.1854   28.2569    0.4514 N   0  0  0  0  0  0  0  0  0  0  0  0
  -89.0046   26.2722    1.7670 C   0  0  0  0  0  0  0  0  0  0  0  0
  -89.2377   26.1113    3.1073 C   0  0  0  0  0  0  0  0  0  0  0  0
  -90.1746   25.1443    3.5041 C   0  0  0  0  0  0  0  0  0  0  0  0
  -90.8415   24.3778    2.5709 C   0  0  0  0  0  0  0  0  0  0  0  0
  -91.8056   23.3631    2.6739 O   0  0  0  0  0  0  0  0  0  0  0  0
  -91.7857   22.5666    1.5006 C   0  0  0  0  0  0  0  0  0  0  0  0
  -91.4467   23.6001    0.4449 C   0  0  0  0  0  0  0  0  0  0  0  0
  -90.6009   24.5458    1.2193 C   0  0  0  0  0  0  0  0  0  0  0  0
  -89.6681   25.5115    0.8664 C   0  0  0  0  0  0  0  0  0  0  0  0
  1  2  2  0  0  0
  2  3  1  0  0  0
  3  5  1  0  0  0
  5  6  2  0  0  0
  6  7  1  0  0  0
  7  8  2  0  0  0
  8  9  1  0  0  0
  9 10  2  0  0  0
 10 11  1  0  0  0
 11 12  2  0  0  0
 12 13  1  0  0  0
 10 14  1  0  0  0
 14 15  2  0  0  0
 14 16  1  0  0  0
 16 17  1  0  0  0
 17 18  1  0  0  0
 18 19  1  0  0  0
 19 20  1  0  0  0
 20 21  1  0  0  0
  2 22  1  0  0  0
 22 23  2  0  0  0
 23 24  1  0  0  0
 24 25  1  0  0  0
 25 26  2  0  0  0
 25 27  1  0  0  0
 27 28  2  0  0  0
 28 29  1  0  0  0
 29 30  2  0  0  0
 30 31  1  0  0  0
 31 32  1  0  0  0
 32 33  1  0  0  0
 33 34  1  0  0  0
 34 35  2  0  0  0
 13  5  1  0  0  0
 21 16  1  0  0  0
 26 22  1  0  0  0
 35 27  1  0  0  0
 12  7  1  0  0  0
 34 30  1  0  0  0
  3  4  1  0  0  0
M  END
> <minimizedAffinity>
-8.05863

> <CNNscore>
0.0691717863

> <CNNaffinity>
5.7533121109

> <CNN_VS>
0.3979668617

> <CNNaffinity_variance>
0.1166997403

$$$$
[H]c1sc(-c2c([H])c([H])c3c(c2[H])C([H])([H])C([H])([H])O3)nc1C(=O)N([H])c1nc2c([H])c([H])c(C(=O)N3C([H])([H])C([H])([H])OC([H])([H])C3([H])[H])c([H])c2s1


 35 40  0  0  0  0  0  0  0  0999 V2000
  -90.5798   24.4720   -1.4663 O   0  0  0  0  0  0  0  0  0  0  0  0
  -91.4146   24.3600   -0.5494 C   0  0  0  0  0  0  0  0  0  0  0  0
  -91.2801   25.1735    0.6049 N   0  0  0  0  0  0  0  0  0  0  0  0
  -91.9557   25.1142    1.3982 H   0  0  0  0  0  0  0  0  0  0  0  0
  -90.2006   26.0946    0.6904 C   0  0  0  0  0  0  0  0  0  0  0  0
  -90.0698   27.2093    0.0088 N   0  0  0  0  0  0  0  0  0  0  0  0
  -89.0208   27.9674    0.1865 C   0  0  0  0  0  0  0  0  0  0  0  0
  -88.7658   29.1796   -0.4795 C   0  0  0  0  0  0  0  0  0  0  0  0
  -87.6059   29.8664   -0.1786 C   0  0  0  0  0  0  0  0  0  0  0  0
  -86.6566   29.4964    0.7106 C   0  0  0  0  0  0  0  0  0  0  0  0
  -86.9338   28.2723    1.3700 C   0  0  0  0  0  0  0  0  0  0  0  0
  -88.0852   27.5590    1.0930 C   0  0  0  0  0  0  0  0  0  0  0  0
  -88.7857   26.0778    1.6471 S   0  0  0  0  0  0  0  0  0  0  0  0
  -85.4292   30.1347    1.0919 C   0  0  0  0  0  0  0  0  0  0  0  0
  -84.6943   29.5244    2.0098 O   0  0  0  0  0  0  0  0  0  0  0  0
  -84.8827   31.3254    0.6317 N   0  0  0  0  0  0  0  0  0  0  0  0
  -85.3908   32.2345   -0.3402 C   0  0  0  0  0  0  0  0  0  0  0  0
  -84.3852   33.4052   -0.4458 C   0  0  0  0  0  0  0  0  0  0  0  0
  -83.1800   32.8789   -0.8408 O   0  0  0  0  0  0  0  0  0  0  0  0
  -82.6525   31.9755    0.0560 C   0  0  0  0  0  0  0  0  0  0  0  0
  -83.5667   31.7343    1.2301 C   0  0  0  0  0  0  0  0  0  0  0  0
  -92.5345   23.3922   -0.6578 C   0  0  0  0  0  0  0  0  0  0  0  0
  -93.3173   23.0856    0.4354 C   0  0  0  0  0  0  0  0  0  0  0  0
  -94.4152   21.9618   -0.2242 S   0  0  0  0  0  0  0  0  0  0  0  0
  -93.8247   21.9418   -1.8430 C   0  0  0  0  0  0  0  0  0  0  0  0
  -92.8225   22.7996   -1.7718 N   0  0  0  0  0  0  0  0  0  0  0  0
  -94.3157   21.1723   -2.9815 C   0  0  0  0  0  0  0  0  0  0  0  0
  -94.3328   19.8039   -2.9213 C   0  0  0  0  0  0  0  0  0  0  0  0
  -94.8122   19.0989   -4.0365 C   0  0  0  0  0  0  0  0  0  0  0  0
  -95.2535   19.7652   -5.1609 C   0  0  0  0  0  0  0  0  0  0  0  0
  -95.7720   19.3332   -6.3915 O   0  0  0  0  0  0  0  0  0  0  0  0
  -95.5910   20.3469   -7.3667 C   0  0  0  0  0  0  0  0  0  0  0  0
  -95.7592   21.5990   -6.5292 C   0  0  0  0  0  0  0  0  0  0  0  0
  -95.2332   21.1471   -5.2145 C   0  0  0  0  0  0  0  0  0  0  0  0
  -94.7525   21.8085   -4.0926 C   0  0  0  0  0  0  0  0  0  0  0  0
  1  2  2  0  0  0
  2  3  1  0  0  0
  3  5  1  0  0  0
  5  6  2  0  0  0
  6  7  1  0  0  0
  7  8  2  0  0  0
  8  9  1  0  0  0
  9 10  2  0  0  0
 10 11  1  0  0  0
 11 12  2  0  0  0
 12 13  1  0  0  0
 10 14  1  0  0  0
 14 15  2  0  0  0
 14 16  1  0  0  0
 16 17  1  0  0  0
 17 18  1  0  0  0
 18 19  1  0  0  0
 19 20  1  0  0  0
 20 21  1  0  0  0
  2 22  1  0  0  0
 22 23  2  0  0  0
 23 24  1  0  0  0
 24 25  1  0  0  0
 25 26  2  0  0  0
 25 27  1  0  0  0
 27 28  2  0  0  0
 28 29  1  0  0  0
 29 30  2  0  0  0
 30 31  1  0  0  0
 31 32  1  0  0  0
 32 33  1  0  0  0
 33 34  1  0  0  0
 34 35  2  0  0  0
 13  5  1  0  0  0
 21 16  1  0  0  0
 26 22  1  0  0  0
 35 27  1  0  0  0
 12  7  1  0  0  0
 34 30  1  0  0  0
  3  4  1  0  0  0
M  END
> <minimizedAffinity>
-7.42933

> <CNNscore>
0.0650748387

> <CNNaffinity>
5.7279014587

> <CNN_VS>
0.3727422655

> <CNNaffinity_variance>
0.7765939832

$$$$
[H]c1sc(-c2c([H])c([H])c3c(c2[H])C([H])([H])C([H])([H])O3)nc1C(=O)N([H])c1nc2c([H])c([H])c(C(=O)N3C([H])([H])C([H])([H])OC([H])([H])C3([H])[H])c([H])c2s1


 35 40  0  0  0  0  0  0  0  0999 V2000
  -87.5982   29.5675   -2.8374 O   0  0  0  0  0  0  0  0  0  0  0  0
  -87.9360   29.4740   -1.6427 C   0  0  0  0  0  0  0  0  0  0  0  0
  -88.2175   30.6579   -0.9138 N   0  0  0  0  0  0  0  0  0  0  0  0
  -88.5042   30.6281    0.0892 H   0  0  0  0  0  0  0  0  0  0  0  0
  -88.1086   31.9200   -1.5592 C   0  0  0  0  0  0  0  0  0  0  0  0
  -89.0724   32.5708   -2.1687 N   0  0  0  0  0  0  0  0  0  0  0  0
  -88.8331   33.7292   -2.7232 C   0  0  0  0  0  0  0  0  0  0  0  0
  -89.7761   34.5211   -3.4025 C   0  0  0  0  0  0  0  0  0  0  0  0
  -89.3639   35.7267   -3.9355 C   0  0  0  0  0  0  0  0  0  0  0  0
  -88.1186   36.2508   -3.8779 C   0  0  0  0  0  0  0  0  0  0  0  0
  -87.1846   35.4365   -3.1890 C   0  0  0  0  0  0  0  0  0  0  0  0
  -87.5631   34.2240   -2.6434 C   0  0  0  0  0  0  0  0  0  0  0  0
  -86.7732   32.9665   -1.7565 S   0  0  0  0  0  0  0  0  0  0  0  0
  -87.5952   37.4835   -4.3936 C   0  0  0  0  0  0  0  0  0  0  0  0
  -87.3529   38.4469   -3.5172 O   0  0  0  0  0  0  0  0  0  0  0  0
  -87.2974   37.8263   -5.7058 N   0  0  0  0  0  0  0  0  0  0  0  0
  -87.4309   37.0505   -6.8930 C   0  0  0  0  0  0  0  0  0  0  0  0
  -86.9738   37.9363   -8.0759 C   0  0  0  0  0  0  0  0  0  0  0  0
  -85.6632   38.2790   -7.8518 O   0  0  0  0  0  0  0  0  0  0  0  0
  -85.4746   39.0149   -6.7021 C   0  0  0  0  0  0  0  0  0  0  0  0
  -86.7550   39.2092   -5.9305 C   0  0  0  0  0  0  0  0  0  0  0  0
  -88.0439   28.1469   -0.9871 C   0  0  0  0  0  0  0  0  0  0  0  0
  -87.2100   27.7987    0.0545 C   0  0  0  0  0  0  0  0  0  0  0  0
  -87.7462   26.2235    0.4210 S   0  0  0  0  0  0  0  0  0  0  0  0
  -88.9931   26.0924   -0.7611 C   0  0  0  0  0  0  0  0  0  0  0  0
  -88.9167   27.2670   -1.3607 N   0  0  0  0  0  0  0  0  0  0  0  0
  -89.8892   24.9697   -1.0182 C   0  0  0  0  0  0  0  0  0  0  0  0
  -89.7886   23.8318   -0.2621 C   0  0  0  0  0  0  0  0  0  0  0  0
  -90.6680   22.7735   -0.5396 C   0  0  0  0  0  0  0  0  0  0  0  0
  -91.6068   22.8766   -1.5452 C   0  0  0  0  0  0  0  0  0  0  0  0
  -92.5904   22.0027   -2.0337 O   0  0  0  0  0  0  0  0  0  0  0  0
  -92.9298   22.3630   -3.3628 C   0  0  0  0  0  0  0  0  0  0  0  0
  -92.7879   23.8710   -3.3079 C   0  0  0  0  0  0  0  0  0  0  0  0
  -91.7025   24.0286   -2.3046 C   0  0  0  0  0  0  0  0  0  0  0  0
  -90.8160   25.0526   -2.0002 C   0  0  0  0  0  0  0  0  0  0  0  0
  1  2  2  0  0  0
  2  3  1  0  0  0
  3  5  1  0  0  0
  5  6  2  0  0  0
  6  7  1  0  0  0
  7  8  2  0  0  0
  8  9  1  0  0  0
  9 10  2  0  0  0
 10 11  1  0  0  0
 11 12  2  0  0  0
 12 13  1  0  0  0
 10 14  1  0  0  0
 14 15  2  0  0  0
 14 16  1  0  0  0
 16 17  1  0  0  0
 17 18  1  0  0  0
 18 19  1  0  0  0
 19 20  1  0  0  0
 20 21  1  0  0  0
  2 22  1  0  0  0
 22 23  2  0  0  0
 23 24  1  0  0  0
 24 25  1  0  0  0
 25 26  2  0  0  0
 25 27  1  0  0  0
 27 28  2  0  0  0
 28 29  1  0  0  0
 29 30  2  0  0  0
 30 31  1  0  0  0
 31 32  1  0  0  0
 32 33  1  0  0  0
 33 34  1  0  0  0
 34 35  2  0  0  0
 13  5  1  0  0  0
 21 16  1  0  0  0
 26 22  1  0  0  0
 35 27  1  0  0  0
 12  7  1  0  0  0
 34 30  1  0  0  0
  3  4  1  0  0  0
M  END
> <minimizedAffinity>
-8.04980

> <CNNscore>
0.0589281321

> <CNNaffinity>
5.4111347198

> <CNN_VS>
0.3188680708

> <CNNaffinity_variance>
0.2699164152

$$$$
[H]c1sc(-c2c([H])c([H])c3c(c2[H])C([H])([H])C([H])([H])O3)nc1C(=O)N([H])c1nc2c([H])c(C(=O)c3sc([H])c([H])c3[H])c([H])c([H])c2n1[H]


 35 40  0  0  0  0  0  0  0  0999 V2000
  -83.1753   33.8020   -0.5650 O   0  0  0  0  0  0  0  0  0  0  0  0
  -84.2576   33.0546   -0.6053 C   0  0  0  0  0  0  0  0  0  0  0  0
  -85.2686   33.5721   -1.3887 N   0  0  0  0  0  0  0  0  0  0  0  0
  -85.0537   34.5363   -1.8558 H   0  0  0  0  0  0  0  0  0  0  0  0
  -86.5047   32.9977   -1.7707 C   0  0  0  0  0  0  0  0  0  0  0  0
  -86.9942   32.7027   -2.9676 N   0  0  0  0  0  0  0  0  0  0  0  0
  -88.2213   32.1629   -2.8794 C   0  0  0  0  0  0  0  0  0  0  0  0
  -89.1509   31.6934   -3.8197 C   0  0  0  0  0  0  0  0  0  0  0  0
  -90.3659   31.1803   -3.4600 C   0  0  0  0  0  0  0  0  0  0  0  0
  -90.6294   31.1518   -2.0817 C   0  0  0  0  0  0  0  0  0  0  0  0
  -89.7337   31.6063   -1.1492 C   0  0  0  0  0  0  0  0  0  0  0  0
  -88.5112   32.1206   -1.5384 C   0  0  0  0  0  0  0  0  0  0  0  0
  -87.4579   32.6310   -0.8828 N   0  0  0  0  0  0  0  0  0  0  0  0
  -87.4131   32.7173    0.1699 H   0  0  0  0  0  0  0  0  0  0  0  0
  -91.3467   30.6806   -4.3786 C   0  0  0  0  0  0  0  0  0  0  0  0
  -91.3874   29.4699   -4.7579 O   0  0  0  0  0  0  0  0  0  0  0  0
  -92.3709   31.5819   -4.9307 C   0  0  0  0  0  0  0  0  0  0  0  0
  -92.1572   32.8721   -5.3831 C   0  0  0  0  0  0  0  0  0  0  0  0
  -93.2285   33.5417   -5.8352 C   0  0  0  0  0  0  0  0  0  0  0  0
  -94.4335   32.9020   -5.8129 C   0  0  0  0  0  0  0  0  0  0  0  0
  -94.0465   31.3785   -5.1610 S   0  0  0  0  0  0  0  0  0  0  0  0
  -84.1900   31.8127    0.1849 C   0  0  0  0  0  0  0  0  0  0  0  0
  -83.1314   31.4927    0.9977 C   0  0  0  0  0  0  0  0  0  0  0  0
  -83.6327   30.0045    1.6702 S   0  0  0  0  0  0  0  0  0  0  0  0
  -85.1405   29.8709    0.8908 C   0  0  0  0  0  0  0  0  0  0  0  0
  -85.1875   30.9638    0.1593 N   0  0  0  0  0  0  0  0  0  0  0  0
  -86.1589   28.7944    0.9923 C   0  0  0  0  0  0  0  0  0  0  0  0
  -85.8664   27.6375    1.6668 C   0  0  0  0  0  0  0  0  0  0  0  0
  -86.8339   26.6339    1.7617 C   0  0  0  0  0  0  0  0  0  0  0  0
  -88.0932   26.7670    1.1918 C   0  0  0  0  0  0  0  0  0  0  0  0
  -89.1806   25.9161    1.1646 O   0  0  0  0  0  0  0  0  0  0  0  0
  -90.2543   26.5473    0.5488 C   0  0  0  0  0  0  0  0  0  0  0  0
  -89.7681   27.8505    0.0060 C   0  0  0  0  0  0  0  0  0  0  0  0
  -88.3698   27.9339    0.5189 C   0  0  0  0  0  0  0  0  0  0  0  0
  -87.3981   28.9354    0.4267 C   0  0  0  0  0  0  0  0  0  0  0  0
  1  2  2  0  0  0
  2  3  1  0  0  0
  3  5  1  0  0  0
  5  6  2  0  0  0
  6  7  1  0  0  0
  7  8  2  0  0  0
  8  9  1  0  0  0
  9 10  2  0  0  0
 10 11  1  0  0  0
 11 12  2  0  0  0
 12 13  1  0  0  0
  9 15  1  0  0  0
 15 16  2  0  0  0
 15 17  1  0  0  0
 17 18  2  0  0  0
 18 19  1  0  0  0
 19 20  2  0  0  0
 20 21  1  0  0  0
  2 22  1  0  0  0
 22 23  2  0  0  0
 23 24  1  0  0  0
 24 25  1  0  0  0
 25 26  2  0  0  0
 25 27  1  0  0  0
 27 28  2  0  0  0
 28 29  1  0  0  0
 29 30  2  0  0  0
 30 31  1  0  0  0
 31 32  1  0  0  0
 32 33  1  0  0  0
 33 34  1  0  0  0
 34 35  2  0  0  0
 13  5  1  0  0  0
 21 17  1  0  0  0
 26 22  1  0  0  0
 35 27  1  0  0  0
 12  7  1  0  0  0
 34 30  1  0  0  0
  3  4  1  0  0  0
 13 14  1  0  0  0
M  END
> <minimizedAffinity>
-8.80914

> <CNNscore>
0.5018045902

> <CNNaffinity>
7.2862930298

> <CNN_VS>
3.6562952995

> <CNNaffinity_variance>
0.1211941093

$$$$
[H]c1sc(-c2c([H])c([H])c3c(c2[H])C([H])([H])C([H])([H])O3)nc1C(=O)N([H])c1nc2c([H])c(C(=O)c3sc([H])c([H])c3[H])c([H])c([H])c2n1[H]


 35 40  0  0  0  0  0  0  0  0999 V2000
  -81.7946   32.2166    0.5293 O   0  0  0  0  0  0  0  0  0  0  0  0
  -83.0734   31.9892    0.3181 C   0  0  0  0  0  0  0  0  0  0  0  0
  -83.7042   32.9707   -0.4183 N   0  0  0  0  0  0  0  0  0  0  0  0
  -83.0747   33.8138   -0.7133 H   0  0  0  0  0  0  0  0  0  0  0  0
  -85.0174   33.0064   -0.9457 C   0  0  0  0  0  0  0  0  0  0  0  0
  -85.4616   33.3268   -2.1537 N   0  0  0  0  0  0  0  0  0  0  0  0
  -86.7990   33.2255   -2.2304 C   0  0  0  0  0  0  0  0  0  0  0  0
  -87.7378   33.4476   -3.2493 C   0  0  0  0  0  0  0  0  0  0  0  0
  -89.0806   33.2708   -3.0637 C   0  0  0  0  0  0  0  0  0  0  0  0
  -89.4665   32.8505   -1.7813 C   0  0  0  0  0  0  0  0  0  0  0  0
  -88.5638   32.6290   -0.7742 C   0  0  0  0  0  0  0  0  0  0  0  0
  -87.2108   32.8148   -0.9870 C   0  0  0  0  0  0  0  0  0  0  0  0
  -86.1158   32.6874   -0.2224 N   0  0  0  0  0  0  0  0  0  0  0  0
  -86.1441   32.3803    0.7888 H   0  0  0  0  0  0  0  0  0  0  0  0
  -90.0792   33.4757   -4.0718 C   0  0  0  0  0  0  0  0  0  0  0  0
  -90.8150   32.5425   -4.5180 O   0  0  0  0  0  0  0  0  0  0  0  0
  -90.2916   34.8159   -4.6418 C   0  0  0  0  0  0  0  0  0  0  0  0
  -90.3386   36.0018   -3.9304 C   0  0  0  0  0  0  0  0  0  0  0  0
  -90.5616   37.1228   -4.6334 C   0  0  0  0  0  0  0  0  0  0  0  0
  -90.7230   37.0045   -5.9831 C   0  0  0  0  0  0  0  0  0  0  0  0
  -90.5602   35.3308   -6.2433 S   0  0  0  0  0  0  0  0  0  0  0  0
  -83.5908   30.7383    0.9002 C   0  0  0  0  0  0  0  0  0  0  0  0
  -82.8361   29.9033    1.6856 C   0  0  0  0  0  0  0  0  0  0  0  0
  -83.9592   28.6822    2.0931 S   0  0  0  0  0  0  0  0  0  0  0  0
  -85.3092   29.2909    1.2529 C   0  0  0  0  0  0  0  0  0  0  0  0
  -84.8390   30.3913    0.7055 N   0  0  0  0  0  0  0  0  0  0  0  0
  -86.6807   28.7307    1.1463 C   0  0  0  0  0  0  0  0  0  0  0  0
  -87.5285   29.1792    0.1670 C   0  0  0  0  0  0  0  0  0  0  0  0
  -88.8144   28.6409    0.0717 C   0  0  0  0  0  0  0  0  0  0  0  0
  -89.2692   27.6586    0.9415 C   0  0  0  0  0  0  0  0  0  0  0  0
  -90.4798   26.9995    1.0260 O   0  0  0  0  0  0  0  0  0  0  0  0
  -90.4141   26.0233    2.0125 C   0  0  0  0  0  0  0  0  0  0  0  0
  -89.1055   26.1719    2.7159 C   0  0  0  0  0  0  0  0  0  0  0  0
  -88.4057   27.2201    1.9178 C   0  0  0  0  0  0  0  0  0  0  0  0
  -87.1198   27.7620    2.0090 C   0  0  0  0  0  0  0  0  0  0  0  0
  1  2  2  0  0  0
  2  3  1  0  0  0
  3  5  1  0  0  0
  5  6  2  0  0  0
  6  7  1  0  0  0
  7  8  2  0  0  0
  8  9  1  0  0  0
  9 10  2  0  0  0
 10 11  1  0  0  0
 11 12  2  0  0  0
 12 13  1  0  0  0
  9 15  1  0  0  0
 15 16  2  0  0  0
 15 17  1  0  0  0
 17 18  2  0  0  0
 18 19  1  0  0  0
 19 20  2  0  0  0
 20 21  1  0  0  0
  2 22  1  0  0  0
 22 23  2  0  0  0
 23 24  1  0  0  0
 24 25  1  0  0  0
 25 26  2  0  0  0
 25 27  1  0  0  0
 27 28  2  0  0  0
 28 29  1  0  0  0
 29 30  2  0  0  0
 30 31  1  0  0  0
 31 32  1  0  0  0
 32 33  1  0  0  0
 33 34  1  0  0  0
 34 35  2  0  0  0
 13  5  1  0  0  0
 21 17  1  0  0  0
 26 22  1  0  0  0
 35 27  1  0  0  0
 12  7  1  0  0  0
 34 30  1  0  0  0
  3  4  1  0  0  0
 13 14  1  0  0  0
M  END
> <minimizedAffinity>
-8.75781

> <CNNscore>
0.4634414017

> <CNNaffinity>
7.3066167831

> <CNN_VS>
3.3861887455

> <CNNaffinity_variance>
0.2053257227

$$$$
[H]c1sc(-c2c([H])c([H])c3c(c2[H])C([H])([H])C([H])([H])O3)nc1C(=O)N([H])c1nc2c([H])c(C(=O)c3sc([H])c([H])c3[H])c([H])c([H])c2n1[H]


 35 40  0  0  0  0  0  0  0  0999 V2000
  -82.5838   30.3716    1.6676 O   0  0  0  0  0  0  0  0  0  0  0  0
  -83.7536   30.5768    1.1009 C   0  0  0  0  0  0  0  0  0  0  0  0
  -83.9042   31.8391    0.5649 N   0  0  0  0  0  0  0  0  0  0  0  0
  -83.0507   32.5090    0.6944 H   0  0  0  0  0  0  0  0  0  0  0  0
  -84.9530   32.3709   -0.2233 C   0  0  0  0  0  0  0  0  0  0  0  0
  -84.9276   33.1793   -1.2745 N   0  0  0  0  0  0  0  0  0  0  0  0
  -86.1656   33.4400   -1.7263 C   0  0  0  0  0  0  0  0  0  0  0  0
  -86.6778   34.2160   -2.7772 C   0  0  0  0  0  0  0  0  0  0  0  0
  -88.0173   34.3207   -3.0293 C   0  0  0  0  0  0  0  0  0  0  0  0
  -88.8562   33.5992   -2.1657 C   0  0  0  0  0  0  0  0  0  0  0  0
  -88.3738   32.8365   -1.1342 C   0  0  0  0  0  0  0  0  0  0  0  0
  -87.0146   32.7467   -0.8999 C   0  0  0  0  0  0  0  0  0  0  0  0
  -86.2601   32.1047    0.0047 N   0  0  0  0  0  0  0  0  0  0  0  0
  -86.6605   31.4905    0.7663 H   0  0  0  0  0  0  0  0  0  0  0  0
  -88.5912   35.0920   -4.0928 C   0  0  0  0  0  0  0  0  0  0  0  0
  -88.9339   34.5889   -5.2068 O   0  0  0  0  0  0  0  0  0  0  0  0
  -88.8089   36.5378   -3.9247 C   0  0  0  0  0  0  0  0  0  0  0  0
  -87.9849   37.4069   -3.2314 C   0  0  0  0  0  0  0  0  0  0  0  0
  -88.3674   38.6919   -3.1767 C   0  0  0  0  0  0  0  0  0  0  0  0
  -89.5291   39.0362   -3.8041 C   0  0  0  0  0  0  0  0  0  0  0  0
  -90.0640   37.5590   -4.4577 S   0  0  0  0  0  0  0  0  0  0  0  0
  -84.6779   29.4299    1.1412 C   0  0  0  0  0  0  0  0  0  0  0  0
  -84.6741   28.4931    2.1441 C   0  0  0  0  0  0  0  0  0  0  0  0
  -85.9630   27.4704    1.6845 S   0  0  0  0  0  0  0  0  0  0  0  0
  -86.4298   28.2779    0.2601 C   0  0  0  0  0  0  0  0  0  0  0  0
  -85.5834   29.2841    0.2057 N   0  0  0  0  0  0  0  0  0  0  0  0
  -87.5136   27.9422   -0.6985 C   0  0  0  0  0  0  0  0  0  0  0  0
  -87.7727   28.7740   -1.7568 C   0  0  0  0  0  0  0  0  0  0  0  0
  -88.7903   28.4454   -2.6562 C   0  0  0  0  0  0  0  0  0  0  0  0
  -89.5563   27.2957   -2.5155 C   0  0  0  0  0  0  0  0  0  0  0  0
  -90.5927   26.7875   -3.2735 O   0  0  0  0  0  0  0  0  0  0  0  0
  -90.9721   25.5467   -2.7767 C   0  0  0  0  0  0  0  0  0  0  0  0
  -90.2180   25.3119   -1.5095 C   0  0  0  0  0  0  0  0  0  0  0  0
  -89.2829   26.4726   -1.4484 C   0  0  0  0  0  0  0  0  0  0  0  0
  -88.2635   26.8058   -0.5510 C   0  0  0  0  0  0  0  0  0  0  0  0
  1  2  2  0  0  0
  2  3  1  0  0  0
  3  5  1  0  0  0
  5  6  2  0  0  0
  6  7  1  0  0  0
  7  8  2  0  0  0
  8  9  1  0  0  0
  9 10  2  0  0  0
 10 11  1  0  0  0
 11 12  2  0  0  0
 12 13  1  0  0  0
  9 15  1  0  0  0
 15 16  2  0  0  0
 15 17  1  0  0  0
 17 18  2  0  0  0
 18 19  1  0  0  0
 19 20  2  0  0  0
 20 21  1  0  0  0
  2 22  1  0  0  0
 22 23  2  0  0  0
 23 24  1  0  0  0
 24 25  1  0  0  0
 25 26  2  0  0  0
 25 27  1  0  0  0
 27 28  2  0  0  0
 28 29  1  0  0  0
 29 30  2  0  0  0
 30 31  1  0  0  0
 31 32  1  0  0  0
 32 33  1  0  0  0
 33 34  1  0  0  0
 34 35  2  0  0  0
 13  5  1  0  0  0
 21 17  1  0  0  0
 26 22  1  0  0  0
 35 27  1  0  0  0
 12  7  1  0  0  0
 34 30  1  0  0  0
  3  4  1  0  0  0
 13 14  1  0  0  0
M  END
> <minimizedAffinity>
-9.31022

> <CNNscore>
0.4494001567

> <CNNaffinity>
7.1952295303

> <CNN_VS>
3.2335371971

> <CNNaffinity_variance>
0.1486417353

$$$$
[H]c1sc(-c2c([H])c([H])c3c(c2[H])C([H])([H])C([H])([H])O3)nc1C(=O)N([H])c1nc2c([H])c(C(=O)c3sc([H])c([H])c3[H])c([H])c([H])c2n1[H]


 35 40  0  0  0  0  0  0  0  0999 V2000
  -82.5184   30.6028    1.5863 O   0  0  0  0  0  0  0  0  0  0  0  0
  -83.7094   30.7574    1.0486 C   0  0  0  0  0  0  0  0  0  0  0  0
  -83.9280   32.0127    0.5196 N   0  0  0  0  0  0  0  0  0  0  0  0
  -83.1018   32.7191    0.6301 H   0  0  0  0  0  0  0  0  0  0  0  0
  -85.0179   32.4993   -0.2416 C   0  0  0  0  0  0  0  0  0  0  0  0
  -85.0538   33.3133   -1.2882 N   0  0  0  0  0  0  0  0  0  0  0  0
  -86.3124   33.5185   -1.7106 C   0  0  0  0  0  0  0  0  0  0  0  0
  -86.8837   34.2752   -2.7450 C   0  0  0  0  0  0  0  0  0  0  0  0
  -88.2320   34.3189   -2.9663 C   0  0  0  0  0  0  0  0  0  0  0  0
  -89.0168   33.5550   -2.0885 C   0  0  0  0  0  0  0  0  0  0  0  0
  -88.4764   32.8103   -1.0728 C   0  0  0  0  0  0  0  0  0  0  0  0
  -87.1095   32.7825   -0.8696 C   0  0  0  0  0  0  0  0  0  0  0  0
  -86.3058   32.1715    0.0140 N   0  0  0  0  0  0  0  0  0  0  0  0
  -86.6600   31.5356    0.7806 H   0  0  0  0  0  0  0  0  0  0  0  0
  -88.8650   35.0682   -4.0120 C   0  0  0  0  0  0  0  0  0  0  0  0
  -90.1008   34.9694   -4.2845 O   0  0  0  0  0  0  0  0  0  0  0  0
  -88.0795   36.0056   -4.8308 C   0  0  0  0  0  0  0  0  0  0  0  0
  -87.8710   35.9123   -6.1955 C   0  0  0  0  0  0  0  0  0  0  0  0
  -87.1063   36.8602   -6.7587 C   0  0  0  0  0  0  0  0  0  0  0  0
  -86.5993   37.8326   -5.9469 C   0  0  0  0  0  0  0  0  0  0  0  0
  -87.2004   37.4039   -4.4138 S   0  0  0  0  0  0  0  0  0  0  0  0
  -84.5814   29.5711    1.1082 C   0  0  0  0  0  0  0  0  0  0  0  0
  -84.5121   28.6337    2.1082 C   0  0  0  0  0  0  0  0  0  0  0  0
  -85.7659   27.5563    1.6773 S   0  0  0  0  0  0  0  0  0  0  0  0
  -86.3023   28.3450    0.2670 C   0  0  0  0  0  0  0  0  0  0  0  0
  -85.5023   29.3873    0.1947 N   0  0  0  0  0  0  0  0  0  0  0  0
  -87.3936   27.9637   -0.6658 C   0  0  0  0  0  0  0  0  0  0  0  0
  -87.7018   28.7757   -1.7263 C   0  0  0  0  0  0  0  0  0  0  0  0
  -88.7259   28.4043   -2.6013 C   0  0  0  0  0  0  0  0  0  0  0  0
  -89.4500   27.2313   -2.4340 C   0  0  0  0  0  0  0  0  0  0  0  0
  -90.4839   26.6812   -3.1656 O   0  0  0  0  0  0  0  0  0  0  0  0
  -90.8114   25.4336   -2.6494 C   0  0  0  0  0  0  0  0  0  0  0  0
  -90.0244   25.2369   -1.3959 C   0  0  0  0  0  0  0  0  0  0  0  0
  -89.1276   26.4285   -1.3650 C   0  0  0  0  0  0  0  0  0  0  0  0
  -88.1018   26.8045   -0.4921 C   0  0  0  0  0  0  0  0  0  0  0  0
  1  2  2  0  0  0
  2  3  1  0  0  0
  3  5  1  0  0  0
  5  6  2  0  0  0
  6  7  1  0  0  0
  7  8  2  0  0  0
  8  9  1  0  0  0
  9 10  2  0  0  0
 10 11  1  0  0  0
 11 12  2  0  0  0
 12 13  1  0  0  0
  9 15  1  0  0  0
 15 16  2  0  0  0
 15 17  1  0  0  0
 17 18  2  0  0  0
 18 19  1  0  0  0
 19 20  2  0  0  0
 20 21  1  0  0  0
  2 22  1  0  0  0
 22 23  2  0  0  0
 23 24  1  0  0  0
 24 25  1  0  0  0
 25 26  2  0  0  0
 25 27  1  0  0  0
 27 28  2  0  0  0
 28 29  1  0  0  0
 29 30  2  0  0  0
 30 31  1  0  0  0
 31 32  1  0  0  0
 32 33  1  0  0  0
 33 34  1  0  0  0
 34 35  2  0  0  0
 13  5  1  0  0  0
 21 17  1  0  0  0
 26 22  1  0  0  0
 35 27  1  0  0  0
 12  7  1  0  0  0
 34 30  1  0  0  0
  3  4  1  0  0  0
 13 14  1  0  0  0
M  END
> <minimizedAffinity>
-9.44210

> <CNNscore>
0.4024765193

> <CNNaffinity>
7.2265028954

> <CNN_VS>
2.9084978104

> <CNNaffinity_variance>
0.0948063284

$$$$
[H]c1sc(-c2c([H])c([H])c3c(c2[H])C([H])([H])C([H])([H])O3)nc1C(=O)N([H])c1nc2c([H])c(C(=O)c3sc([H])c([H])c3[H])c([H])c([H])c2n1[H]


 35 40  0  0  0  0  0  0  0  0999 V2000
  -83.2571   33.8237   -0.5786 O   0  0  0  0  0  0  0  0  0  0  0  0
  -84.3096   33.0338   -0.5782 C   0  0  0  0  0  0  0  0  0  0  0  0
  -85.3771   33.5204   -1.3042 N   0  0  0  0  0  0  0  0  0  0  0  0
  -85.2237   34.4985   -1.7665 H   0  0  0  0  0  0  0  0  0  0  0  0
  -86.6066   32.9016   -1.6350 C   0  0  0  0  0  0  0  0  0  0  0  0
  -87.0933   32.5019   -2.8024 N   0  0  0  0  0  0  0  0  0  0  0  0
  -88.3138   31.9570   -2.6675 C   0  0  0  0  0  0  0  0  0  0  0  0
  -89.2383   31.3996   -3.5639 C   0  0  0  0  0  0  0  0  0  0  0  0
  -90.4469   30.9042   -3.1608 C   0  0  0  0  0  0  0  0  0  0  0  0
  -90.7094   30.9879   -1.7845 C   0  0  0  0  0  0  0  0  0  0  0  0
  -89.8186   31.5292   -0.8946 C   0  0  0  0  0  0  0  0  0  0  0  0
  -88.6025   32.0235   -1.3272 C   0  0  0  0  0  0  0  0  0  0  0  0
  -87.5549   32.5992   -0.7181 N   0  0  0  0  0  0  0  0  0  0  0  0
  -87.5107   32.7736    0.3236 H   0  0  0  0  0  0  0  0  0  0  0  0
  -91.4222   30.3180   -4.0329 C   0  0  0  0  0  0  0  0  0  0  0  0
  -91.9788   30.9564   -4.9785 O   0  0  0  0  0  0  0  0  0  0  0  0
  -91.8245   28.9134   -3.8561 C   0  0  0  0  0  0  0  0  0  0  0  0
  -91.1613   27.9699   -3.0913 C   0  0  0  0  0  0  0  0  0  0  0  0
  -91.6787   26.7320   -3.0720 C   0  0  0  0  0  0  0  0  0  0  0  0
  -92.8086   26.5043   -3.8022 C   0  0  0  0  0  0  0  0  0  0  0  0
  -93.1257   28.0230   -4.5012 S   0  0  0  0  0  0  0  0  0  0  0  0
  -84.1544   31.7854    0.1891 C   0  0  0  0  0  0  0  0  0  0  0  0
  -83.0267   31.4773    0.9081 C   0  0  0  0  0  0  0  0  0  0  0  0
  -83.4436   29.9731    1.6020 S   0  0  0  0  0  0  0  0  0  0  0  0
  -85.0080   29.8188    0.9480 C   0  0  0  0  0  0  0  0  0  0  0  0
  -85.1351   30.9180    0.2358 N   0  0  0  0  0  0  0  0  0  0  0  0
  -85.9949   28.7221    1.1204 C   0  0  0  0  0  0  0  0  0  0  0  0
  -85.6496   27.5950    1.8200 C   0  0  0  0  0  0  0  0  0  0  0  0
  -86.5878   26.5721    1.9816 C   0  0  0  0  0  0  0  0  0  0  0  0
  -87.8695   26.6566    1.4540 C   0  0  0  0  0  0  0  0  0  0  0  0
  -88.9355   25.7796    1.4933 O   0  0  0  0  0  0  0  0  0  0  0  0
  -90.0459   26.3646    0.8975 C   0  0  0  0  0  0  0  0  0  0  0  0
  -89.6122   27.6608    0.2965 C   0  0  0  0  0  0  0  0  0  0  0  0
  -88.1990   27.7942    0.7553 C   0  0  0  0  0  0  0  0  0  0  0  0
  -87.2566   28.8151    0.5962 C   0  0  0  0  0  0  0  0  0  0  0  0
  1  2  2  0  0  0
  2  3  1  0  0  0
  3  5  1  0  0  0
  5  6  2  0  0  0
  6  7  1  0  0  0
  7  8  2  0  0  0
  8  9  1  0  0  0
  9 10  2  0  0  0
 10 11  1  0  0  0
 11 12  2  0  0  0
 12 13  1  0  0  0
  9 15  1  0  0  0
 15 16  2  0  0  0
 15 17  1  0  0  0
 17 18  2  0  0  0
 18 19  1  0  0  0
 19 20  2  0  0  0
 20 21  1  0  0  0
  2 22  1  0  0  0
 22 23  2  0  0  0
 23 24  1  0  0  0
 24 25  1  0  0  0
 25 26  2  0  0  0
 25 27  1  0  0  0
 27 28  2  0  0  0
 28 29  1  0  0  0
 29 30  2  0  0  0
 30 31  1  0  0  0
 31 32  1  0  0  0
 32 33  1  0  0  0
 33 34  1  0  0  0
 34 35  2  0  0  0
 13  5  1  0  0  0
 21 17  1  0  0  0
 26 22  1  0  0  0
 35 27  1  0  0  0
 12  7  1  0  0  0
 34 30  1  0  0  0
  3  4  1  0  0  0
 13 14  1  0  0  0
M  END
> <minimizedAffinity>
-8.89340

> <CNNscore>
0.3882868886

> <CNNaffinity>
7.1975564957

> <CNN_VS>
2.7947168350

> <CNNaffinity_variance>
0.1511466503

$$$$
[H]c1sc(-c2c([H])c([H])c3c(c2[H])C([H])([H])C([H])([H])O3)nc1C(=O)N([H])c1nc2c([H])c(C(=O)c3sc([H])c([H])c3[H])c([H])c([H])c2n1[H]


 35 40  0  0  0  0  0  0  0  0999 V2000
  -87.4327   35.5560   -3.9836 O   0  0  0  0  0  0  0  0  0  0  0  0
  -87.3671   34.4275   -3.3099 C   0  0  0  0  0  0  0  0  0  0  0  0
  -86.2277   34.2969   -2.5429 N   0  0  0  0  0  0  0  0  0  0  0  0
  -85.5215   35.1283   -2.6060 H   0  0  0  0  0  0  0  0  0  0  0  0
  -85.8778   33.3002   -1.6004 C   0  0  0  0  0  0  0  0  0  0  0  0
  -86.5587   32.2581   -1.1427 N   0  0  0  0  0  0  0  0  0  0  0  0
  -85.8452   31.5583   -0.2449 C   0  0  0  0  0  0  0  0  0  0  0  0
  -86.0960   30.4080    0.5184 C   0  0  0  0  0  0  0  0  0  0  0  0
  -85.1780   29.8868    1.3869 C   0  0  0  0  0  0  0  0  0  0  0  0
  -83.9592   30.5780    1.4696 C   0  0  0  0  0  0  0  0  0  0  0  0
  -83.6969   31.7030    0.7321 C   0  0  0  0  0  0  0  0  0  0  0  0
  -84.6419   32.2105   -0.1395 C   0  0  0  0  0  0  0  0  0  0  0  0
  -84.6812   33.2638   -0.9694 N   0  0  0  0  0  0  0  0  0  0  0  0
  -83.8789   33.9419   -1.0882 H   0  0  0  0  0  0  0  0  0  0  0  0
  -85.3807   28.7116    2.1828 C   0  0  0  0  0  0  0  0  0  0  0  0
  -84.5769   28.3450    3.0943 O   0  0  0  0  0  0  0  0  0  0  0  0
  -86.5634   27.8637    1.9631 C   0  0  0  0  0  0  0  0  0  0  0  0
  -87.7597   27.9455    2.6538 C   0  0  0  0  0  0  0  0  0  0  0  0
  -88.7162   27.0669    2.3168 C   0  0  0  0  0  0  0  0  0  0  0  0
  -88.4351   26.1700    1.3277 C   0  0  0  0  0  0  0  0  0  0  0  0
  -86.8409   26.5715    0.8883 S   0  0  0  0  0  0  0  0  0  0  0  0
  -88.5135   33.5206   -3.4956 C   0  0  0  0  0  0  0  0  0  0  0  0
  -89.6982   33.9102   -4.0684 C   0  0  0  0  0  0  0  0  0  0  0  0
  -90.5968   32.4573   -4.0573 S   0  0  0  0  0  0  0  0  0  0  0  0
  -89.4333   31.4470   -3.3333 C   0  0  0  0  0  0  0  0  0  0  0  0
  -88.4206   32.2640   -3.1369 N   0  0  0  0  0  0  0  0  0  0  0  0
  -89.5227   30.0037   -2.9934 C   0  0  0  0  0  0  0  0  0  0  0  0
  -88.4021   29.3256   -2.5892 C   0  0  0  0  0  0  0  0  0  0  0  0
  -88.4987   27.9696   -2.2657 C   0  0  0  0  0  0  0  0  0  0  0  0
  -89.7002   27.2774   -2.3398 C   0  0  0  0  0  0  0  0  0  0  0  0
  -90.0160   25.9600   -2.0718 O   0  0  0  0  0  0  0  0  0  0  0  0
  -91.3863   25.7707   -2.2017 C   0  0  0  0  0  0  0  0  0  0  0  0
  -91.9727   27.0333   -2.7417 C   0  0  0  0  0  0  0  0  0  0  0  0
  -90.8143   27.9731   -2.7469 C   0  0  0  0  0  0  0  0  0  0  0  0
  -90.7125   29.3300   -3.0696 C   0  0  0  0  0  0  0  0  0  0  0  0
  1  2  2  0  0  0
  2  3  1  0  0  0
  3  5  1  0  0  0
  5  6  2  0  0  0
  6  7  1  0  0  0
  7  8  2  0  0  0
  8  9  1  0  0  0
  9 10  2  0  0  0
 10 11  1  0  0  0
 11 12  2  0  0  0
 12 13  1  0  0  0
  9 15  1  0  0  0
 15 16  2  0  0  0
 15 17  1  0  0  0
 17 18  2  0  0  0
 18 19  1  0  0  0
 19 20  2  0  0  0
 20 21  1  0  0  0
  2 22  1  0  0  0
 22 23  2  0  0  0
 23 24  1  0  0  0
 24 25  1  0  0  0
 25 26  2  0  0  0
 25 27  1  0  0  0
 27 28  2  0  0  0
 28 29  1  0  0  0
 29 30  2  0  0  0
 30 31  1  0  0  0
 31 32  1  0  0  0
 32 33  1  0  0  0
 33 34  1  0  0  0
 34 35  2  0  0  0
 13  5  1  0  0  0
 21 17  1  0  0  0
 26 22  1  0  0  0
 35 27  1  0  0  0
 12  7  1  0  0  0
 34 30  1  0  0  0
  3  4  1  0  0  0
 13 14  1  0  0  0
M  END
> <minimizedAffinity>
-9.04599

> <CNNscore>
0.3302884400

> <CNNaffinity>
7.2552070618

> <CNN_VS>
2.3963110447

> <CNNaffinity_variance>
0.4134467542

$$$$
[H]c1sc(-c2c([H])c([H])c3c(c2[H])C([H])([H])C([H])([H])O3)nc1C(=O)N([H])c1nc2c([H])c(C(=O)c3sc([H])c([H])c3[H])c([H])c([H])c2n1[H]


 35 40  0  0  0  0  0  0  0  0999 V2000
  -81.7963   32.1320    0.5367 O   0  0  0  0  0  0  0  0  0  0  0  0
  -83.0744   31.9206    0.3055 C   0  0  0  0  0  0  0  0  0  0  0  0
  -83.6971   32.9418   -0.3821 N   0  0  0  0  0  0  0  0  0  0  0  0
  -83.0630   33.7970   -0.6281 H   0  0  0  0  0  0  0  0  0  0  0  0
  -85.0066   33.0100   -0.9154 C   0  0  0  0  0  0  0  0  0  0  0  0
  -85.4430   33.4080   -2.1030 N   0  0  0  0  0  0  0  0  0  0  0  0
  -86.7795   33.3099   -2.1958 C   0  0  0  0  0  0  0  0  0  0  0  0
  -87.7116   33.5967   -3.2047 C   0  0  0  0  0  0  0  0  0  0  0  0
  -89.0553   33.4062   -3.0406 C   0  0  0  0  0  0  0  0  0  0  0  0
  -89.4494   32.9023   -1.7913 C   0  0  0  0  0  0  0  0  0  0  0  0
  -88.5533   32.6168   -0.7943 C   0  0  0  0  0  0  0  0  0  0  0  0
  -87.1993   32.8181   -0.9849 C   0  0  0  0  0  0  0  0  0  0  0  0
  -86.1095   32.6426   -0.2224 N   0  0  0  0  0  0  0  0  0  0  0  0
  -86.1443   32.2700    0.7662 H   0  0  0  0  0  0  0  0  0  0  0  0
  -90.0472   33.6751   -4.0403 C   0  0  0  0  0  0  0  0  0  0  0  0
  -90.1668   34.8021   -4.6121 O   0  0  0  0  0  0  0  0  0  0  0  0
  -90.9902   32.6218   -4.4497 C   0  0  0  0  0  0  0  0  0  0  0  0
  -90.7418   31.2606   -4.4358 C   0  0  0  0  0  0  0  0  0  0  0  0
  -91.7280   30.4594   -4.8670 C   0  0  0  0  0  0  0  0  0  0  0  0
  -92.8879   31.0464   -5.2815 C   0  0  0  0  0  0  0  0  0  0  0  0
  -92.5781   32.7050   -5.0610 S   0  0  0  0  0  0  0  0  0  0  0  0
  -83.5996   30.6426    0.8174 C   0  0  0  0  0  0  0  0  0  0  0  0
  -83.0331   29.9596    1.8644 C   0  0  0  0  0  0  0  0  0  0  0  0
  -84.0803   28.6196    2.0269 S   0  0  0  0  0  0  0  0  0  0  0  0
  -85.1665   28.9948    0.7706 C   0  0  0  0  0  0  0  0  0  0  0  0
  -84.6793   30.1193    0.2912 N   0  0  0  0  0  0  0  0  0  0  0  0
  -86.3655   28.2484    0.3106 C   0  0  0  0  0  0  0  0  0  0  0  0
  -86.8233   27.1773    1.0332 C   0  0  0  0  0  0  0  0  0  0  0  0
  -87.9559   26.4862    0.5949 C   0  0  0  0  0  0  0  0  0  0  0  0
  -88.6410   26.8483   -0.5574 C   0  0  0  0  0  0  0  0  0  0  0  0
  -89.7618   26.3144   -1.1622 O   0  0  0  0  0  0  0  0  0  0  0  0
  -90.1231   27.0958   -2.2527 C   0  0  0  0  0  0  0  0  0  0  0  0
  -89.0600   28.1259   -2.4488 C   0  0  0  0  0  0  0  0  0  0  0  0
  -88.1682   27.9251   -1.2700 C   0  0  0  0  0  0  0  0  0  0  0  0
  -87.0343   28.6136   -0.8273 C   0  0  0  0  0  0  0  0  0  0  0  0
  1  2  2  0  0  0
  2  3  1  0  0  0
  3  5  1  0  0  0
  5  6  2  0  0  0
  6  7  1  0  0  0
  7  8  2  0  0  0
  8  9  1  0  0  0
  9 10  2  0  0  0
 10 11  1  0  0  0
 11 12  2  0  0  0
 12 13  1  0  0  0
  9 15  1  0  0  0
 15 16  2  0  0  0
 15 17  1  0  0  0
 17 18  2  0  0  0
 18 19  1  0  0  0
 19 20  2  0  0  0
 20 21  1  0  0  0
  2 22  1  0  0  0
 22 23  2  0  0  0
 23 24  1  0  0  0
 24 25  1  0  0  0
 25 26  2  0  0  0
 25 27  1  0  0  0
 27 28  2  0  0  0
 28 29  1  0  0  0
 29 30  2  0  0  0
 30 31  1  0  0  0
 31 32  1  0  0  0
 32 33  1  0  0  0
 33 34  1  0  0  0
 34 35  2  0  0  0
 13  5  1  0  0  0
 21 17  1  0  0  0
 26 22  1  0  0  0
 35 27  1  0  0  0
 12  7  1  0  0  0
 34 30  1  0  0  0
  3  4  1  0  0  0
 13 14  1  0  0  0
M  END
> <minimizedAffinity>
-8.78886

> <CNNscore>
0.2460844517

> <CNNaffinity>
7.1073760986

> <CNN_VS>
1.7490147352

> <CNNaffinity_variance>
0.2325919867

$$$$
[H]c1sc(-c2c([H])c([H])c3c(c2[H])C([H])([H])C([H])([H])O3)nc1C(=O)N([H])c1nc2c([H])c(C(=O)c3sc([H])c([H])c3[H])c([H])c([H])c2n1[H]


 35 40  0  0  0  0  0  0  0  0999 V2000
  -83.1705   33.5753   -0.3427 O   0  0  0  0  0  0  0  0  0  0  0  0
  -84.3634   33.0944   -0.6207 C   0  0  0  0  0  0  0  0  0  0  0  0
  -85.0334   33.7895   -1.6064 N   0  0  0  0  0  0  0  0  0  0  0  0
  -84.5038   34.6541   -2.0137 H   0  0  0  0  0  0  0  0  0  0  0  0
  -86.2586   33.4948   -2.2513 C   0  0  0  0  0  0  0  0  0  0  0  0
  -87.3319   34.2442   -2.4647 N   0  0  0  0  0  0  0  0  0  0  0  0
  -88.2852   33.5645   -3.1235 C   0  0  0  0  0  0  0  0  0  0  0  0
  -89.5740   33.8831   -3.5777 C   0  0  0  0  0  0  0  0  0  0  0  0
  -90.3648   32.9839   -4.2372 C   0  0  0  0  0  0  0  0  0  0  0  0
  -89.8048   31.7119   -4.4336 C   0  0  0  0  0  0  0  0  0  0  0  0
  -88.5482   31.3829   -3.9967 C   0  0  0  0  0  0  0  0  0  0  0  0
  -87.7679   32.3102   -3.3322 C   0  0  0  0  0  0  0  0  0  0  0  0
  -86.5382   32.2880   -2.7963 N   0  0  0  0  0  0  0  0  0  0  0  0
  -85.9095   31.4384   -2.8163 H   0  0  0  0  0  0  0  0  0  0  0  0
  -91.6830   33.2604   -4.7283 C   0  0  0  0  0  0  0  0  0  0  0  0
  -92.0430   34.4063   -5.1392 O   0  0  0  0  0  0  0  0  0  0  0  0
  -92.6952   32.1930   -4.7736 C   0  0  0  0  0  0  0  0  0  0  0  0
  -93.1593   31.5631   -5.9149 C   0  0  0  0  0  0  0  0  0  0  0  0
  -94.1019   30.6228   -5.7483 C   0  0  0  0  0  0  0  0  0  0  0  0
  -94.5241   30.3648   -4.4768 C   0  0  0  0  0  0  0  0  0  0  0  0
  -93.5967   31.4404   -3.5394 S   0  0  0  0  0  0  0  0  0  0  0  0
  -84.7593   31.9115    0.1636 C   0  0  0  0  0  0  0  0  0  0  0  0
  -84.3388   31.6843    1.4502 C   0  0  0  0  0  0  0  0  0  0  0  0
  -85.1425   30.2277    1.8383 S   0  0  0  0  0  0  0  0  0  0  0  0
  -85.9579   29.9889    0.3628 C   0  0  0  0  0  0  0  0  0  0  0  0
  -85.5789   31.0280   -0.3502 N   0  0  0  0  0  0  0  0  0  0  0  0
  -86.8677   28.8863   -0.0405 C   0  0  0  0  0  0  0  0  0  0  0  0
  -87.1816   28.7076   -1.3628 C   0  0  0  0  0  0  0  0  0  0  0  0
  -88.0334   27.6632   -1.7319 C   0  0  0  0  0  0  0  0  0  0  0  0
  -88.5789   26.7914   -0.7987 C   0  0  0  0  0  0  0  0  0  0  0  0
  -89.4280   25.7117   -0.9412 O   0  0  0  0  0  0  0  0  0  0  0  0
  -89.6106   25.0933    0.2895 C   0  0  0  0  0  0  0  0  0  0  0  0
  -88.9439   25.9351    1.3270 C   0  0  0  0  0  0  0  0  0  0  0  0
  -88.2534   26.9850    0.5232 C   0  0  0  0  0  0  0  0  0  0  0  0
  -87.4005   28.0316    0.8875 C   0  0  0  0  0  0  0  0  0  0  0  0
  1  2  2  0  0  0
  2  3  1  0  0  0
  3  5  1  0  0  0
  5  6  2  0  0  0
  6  7  1  0  0  0
  7  8  2  0  0  0
  8  9  1  0  0  0
  9 10  2  0  0  0
 10 11  1  0  0  0
 11 12  2  0  0  0
 12 13  1  0  0  0
  9 15  1  0  0  0
 15 16  2  0  0  0
 15 17  1  0  0  0
 17 18  2  0  0  0
 18 19  1  0  0  0
 19 20  2  0  0  0
 20 21  1  0  0  0
  2 22  1  0  0  0
 22 23  2  0  0  0
 23 24  1  0  0  0
 24 25  1  0  0  0
 25 26  2  0  0  0
 25 27  1  0  0  0
 27 28  2  0  0  0
 28 29  1  0  0  0
 29 30  2  0  0  0
 30 31  1  0  0  0
 31 32  1  0  0  0
 32 33  1  0  0  0
 33 34  1  0  0  0
 34 35  2  0  0  0
 13  5  1  0  0  0
 21 17  1  0  0  0
 26 22  1  0  0  0
 35 27  1  0  0  0
 12  7  1  0  0  0
 34 30  1  0  0  0
  3  4  1  0  0  0
 13 14  1  0  0  0
M  END
> <minimizedAffinity>
-8.06443

> <CNNscore>
0.2269699425

> <CNNaffinity>
7.0687036514

> <CNN_VS>
1.6043832302

> <CNNaffinity_variance>
0.2308346331

$$$$
[H]c1sc(-c2c([H])c([H])c3c(c2[H])C([H])([H])C([H])([H])O3)nc1C(=O)N([H])c1nc2c([H])c(C(=O)c3sc([H])c([H])c3[H])c([H])c([H])c2n1[H]


 35 40  0  0  0  0  0  0  0  0999 V2000
  -83.6440   27.0607    3.1487 O   0  0  0  0  0  0  0  0  0  0  0  0
  -84.4732   27.5739    2.2650 C   0  0  0  0  0  0  0  0  0  0  0  0
  -85.5501   26.7639    1.9690 N   0  0  0  0  0  0  0  0  0  0  0  0
  -85.5687   25.8006    2.4843 H   0  0  0  0  0  0  0  0  0  0  0  0
  -86.6956   27.0297    1.1808 C   0  0  0  0  0  0  0  0  0  0  0  0
  -87.1801   26.4098    0.1130 N   0  0  0  0  0  0  0  0  0  0  0  0
  -88.3031   26.9978   -0.3316 C   0  0  0  0  0  0  0  0  0  0  0  0
  -89.1800   26.7468   -1.3979 C   0  0  0  0  0  0  0  0  0  0  0  0
  -90.2808   27.5196   -1.6426 C   0  0  0  0  0  0  0  0  0  0  0  0
  -90.4821   28.5885   -0.7555 C   0  0  0  0  0  0  0  0  0  0  0  0
  -89.6362   28.8489    0.2909 C   0  0  0  0  0  0  0  0  0  0  0  0
  -88.5296   28.0524    0.5175 C   0  0  0  0  0  0  0  0  0  0  0  0
  -87.5441   28.0547    1.4278 N   0  0  0  0  0  0  0  0  0  0  0  0
  -87.4733   28.7648    2.2077 H   0  0  0  0  0  0  0  0  0  0  0  0
  -91.2113   27.3019   -2.7114 C   0  0  0  0  0  0  0  0  0  0  0  0
  -91.3054   28.0724   -3.7158 O   0  0  0  0  0  0  0  0  0  0  0  0
  -92.1176   26.1427   -2.6793 C   0  0  0  0  0  0  0  0  0  0  0  0
  -92.6890   25.5291   -3.7801 C   0  0  0  0  0  0  0  0  0  0  0  0
  -93.5063   24.4922   -3.5406 C   0  0  0  0  0  0  0  0  0  0  0  0
  -93.7071   24.1286   -2.2410 C   0  0  0  0  0  0  0  0  0  0  0  0
  -92.7508   25.2417   -1.3795 S   0  0  0  0  0  0  0  0  0  0  0  0
  -84.1028   28.9080    1.7608 C   0  0  0  0  0  0  0  0  0  0  0  0
  -82.8546   29.4554    1.9219 C   0  0  0  0  0  0  0  0  0  0  0  0
  -83.0101   30.9489    1.1074 S   0  0  0  0  0  0  0  0  0  0  0  0
  -84.6327   30.7990    0.6138 C   0  0  0  0  0  0  0  0  0  0  0  0
  -84.9745   29.6217    1.0921 N   0  0  0  0  0  0  0  0  0  0  0  0
  -85.4722   31.7510   -0.1578 C   0  0  0  0  0  0  0  0  0  0  0  0
  -84.9055   32.8702   -0.7103 C   0  0  0  0  0  0  0  0  0  0  0  0
  -85.7032   33.7558   -1.4396 C   0  0  0  0  0  0  0  0  0  0  0  0
  -87.0623   33.5414   -1.6267 C   0  0  0  0  0  0  0  0  0  0  0  0
  -88.0207   34.2736   -2.2993 O   0  0  0  0  0  0  0  0  0  0  0  0
  -89.2296   33.5890   -2.2843 C   0  0  0  0  0  0  0  0  0  0  0  0
  -89.0674   32.3946   -1.4030 C   0  0  0  0  0  0  0  0  0  0  0  0
  -87.6144   32.4138   -1.0657 C   0  0  0  0  0  0  0  0  0  0  0  0
  -86.8119   31.5305   -0.3367 C   0  0  0  0  0  0  0  0  0  0  0  0
  1  2  2  0  0  0
  2  3  1  0  0  0
  3  5  1  0  0  0
  5  6  2  0  0  0
  6  7  1  0  0  0
  7  8  2  0  0  0
  8  9  1  0  0  0
  9 10  2  0  0  0
 10 11  1  0  0  0
 11 12  2  0  0  0
 12 13  1  0  0  0
  9 15  1  0  0  0
 15 16  2  0  0  0
 15 17  1  0  0  0
 17 18  2  0  0  0
 18 19  1  0  0  0
 19 20  2  0  0  0
 20 21  1  0  0  0
  2 22  1  0  0  0
 22 23  2  0  0  0
 23 24  1  0  0  0
 24 25  1  0  0  0
 25 26  2  0  0  0
 25 27  1  0  0  0
 27 28  2  0  0  0
 28 29  1  0  0  0
 29 30  2  0  0  0
 30 31  1  0  0  0
 31 32  1  0  0  0
 32 33  1  0  0  0
 33 34  1  0  0  0
 34 35  2  0  0  0
 13  5  1  0  0  0
 21 17  1  0  0  0
 26 22  1  0  0  0
 35 27  1  0  0  0
 12  7  1  0  0  0
 34 30  1  0  0  0
  3  4  1  0  0  0
 13 14  1  0  0  0
M  END
> <minimizedAffinity>
-9.52845

> <CNNscore>
0.2182132453

> <CNNaffinity>
7.0027251244

> <CNN_VS>
1.5280873775

> <CNNaffinity_variance>
0.0938793942

$$$$
[H]Oc1c([H])c([H])c(-c2c([H])n([H])c3nc([H])c(-c4c([H])c([H])c5c(c4[H])c([H])c([H])n5[H])c([H])c23)c([H])c1[H]


 28 32  0  0  0  0  0  0  0  0999 V2000
  -84.4804   29.8268    1.1212 C   0  0  0  0  0  0  0  0  0  0  0  0
  -83.1514   29.8500    1.5636 C   0  0  0  0  0  0  0  0  0  0  0  0
  -82.5871   30.9983    1.1599 N   0  0  0  0  0  0  0  0  0  0  0  0
  -83.4663   31.7422    0.4723 C   0  0  0  0  0  0  0  0  0  0  0  0
  -83.4069   32.9543   -0.1384 N   0  0  0  0  0  0  0  0  0  0  0  0
  -84.4978   33.4320   -0.7612 C   0  0  0  0  0  0  0  0  0  0  0  0
  -85.6895   32.7536   -0.8164 C   0  0  0  0  0  0  0  0  0  0  0  0
  -85.7487   31.5206   -0.1946 C   0  0  0  0  0  0  0  0  0  0  0  0
  -84.6397   31.0220    0.4454 C   0  0  0  0  0  0  0  0  0  0  0  0
  -81.6058   31.2854    1.3464 H   0  0  0  0  0  0  0  0  0  0  0  0
  -86.8795   33.2617   -1.4885 C   0  0  0  0  0  0  0  0  0  0  0  0
  -88.1336   32.7281   -1.2828 C   0  0  0  0  0  0  0  0  0  0  0  0
  -89.2611   33.2089   -1.9183 C   0  0  0  0  0  0  0  0  0  0  0  0
  -89.1524   34.2612   -2.7957 C   0  0  0  0  0  0  0  0  0  0  0  0
  -90.0657   34.9141   -3.5356 N   0  0  0  0  0  0  0  0  0  0  0  0
  -89.4324   35.8935   -4.2460 C   0  0  0  0  0  0  0  0  0  0  0  0
  -88.0926   35.8444   -3.9367 C   0  0  0  0  0  0  0  0  0  0  0  0
  -87.8930   34.8284   -3.0291 C   0  0  0  0  0  0  0  0  0  0  0  0
  -86.7866   34.3172   -2.3716 C   0  0  0  0  0  0  0  0  0  0  0  0
  -91.0919   34.7560   -3.6051 H   0  0  0  0  0  0  0  0  0  0  0  0
  -88.2172   25.7480    1.9778 O   0  0  0  0  0  0  0  0  0  0  0  0
  -87.2951   26.7660    1.7623 C   0  0  0  0  0  0  0  0  0  0  0  0
  -87.6784   27.9173    1.1329 C   0  0  0  0  0  0  0  0  0  0  0  0
  -86.7324   28.9033    0.9385 C   0  0  0  0  0  0  0  0  0  0  0  0
  -85.4301   28.7668    1.3529 C   0  0  0  0  0  0  0  0  0  0  0  0
  -85.0670   27.6052    1.9814 C   0  0  0  0  0  0  0  0  0  0  0  0
  -85.9888   26.5758    2.2022 C   0  0  0  0  0  0  0  0  0  0  0  0
  -88.3400   25.0333    1.2875 H   0  0  0  0  0  0  0  0  0  0  0  0
 21 22  1  0  0  0
 22 23  2  0  0  0
 23 24  1  0  0  0
 24 25  2  0  0  0
 25 26  1  0  0  0
 26 27  2  0  0  0
 25  1  1  0  0  0
  1  2  2  0  0  0
  2  3  1  0  0  0
  3  4  1  0  0  0
  4  5  2  0  0  0
  5  6  1  0  0  0
  6  7  2  0  0  0
  7  8  1  0  0  0
  8  9  2  0  0  0
  7 11  1  0  0  0
 11 12  2  0  0  0
 12 13  1  0  0  0
 13 14  2  0  0  0
 14 15  1  0  0  0
 15 16  1  0  0  0
 16 17  2  0  0  0
 17 18  1  0  0  0
 18 19  2  0  0  0
 27 22  1  0  0  0
  9  1  1  0  0  0
 19 11  1  0  0  0
  9  4  1  0  0  0
 18 14  1  0  0  0
 21 28  1  0  0  0
  3 10  1  0  0  0
 15 20  1  0  0  0
M  END
> <minimizedAffinity>
-10.11481

> <CNNscore>
0.8449822664

> <CNNaffinity>
6.7681832314

> <CNN_VS>
5.7189946175

> <CNNaffinity_variance>
0.0638652295

$$$$
[H]Oc1c([H])c([H])c(-c2c([H])n([H])c3nc([H])c(-c4c([H])c([H])c5c(c4[H])c([H])c([H])n5[H])c([H])c23)c([H])c1[H]


 28 32  0  0  0  0  0  0  0  0999 V2000
  -84.6045   30.2005    0.9564 C   0  0  0  0  0  0  0  0  0  0  0  0
  -83.3116   30.3600    1.4717 C   0  0  0  0  0  0  0  0  0  0  0  0
  -82.8193   31.5291    1.0349 N   0  0  0  0  0  0  0  0  0  0  0  0
  -83.7124   32.1582    0.2565 C   0  0  0  0  0  0  0  0  0  0  0  0
  -83.7148   33.3369   -0.4190 N   0  0  0  0  0  0  0  0  0  0  0  0
  -84.8006   33.6865   -1.1294 C   0  0  0  0  0  0  0  0  0  0  0  0
  -85.9272   32.9073   -1.2130 C   0  0  0  0  0  0  0  0  0  0  0  0
  -85.9237   31.7083   -0.5252 C   0  0  0  0  0  0  0  0  0  0  0  0
  -84.8191   31.3404    0.2046 C   0  0  0  0  0  0  0  0  0  0  0  0
  -81.8781   31.9081    1.2601 H   0  0  0  0  0  0  0  0  0  0  0  0
  -87.1112   33.2760   -1.9800 C   0  0  0  0  0  0  0  0  0  0  0  0
  -87.3087   34.5466   -2.4763 C   0  0  0  0  0  0  0  0  0  0  0  0
  -88.4292   34.8966   -3.2031 C   0  0  0  0  0  0  0  0  0  0  0  0
  -89.3998   33.9564   -3.4541 C   0  0  0  0  0  0  0  0  0  0  0  0
  -90.5660   34.0225   -4.1199 N   0  0  0  0  0  0  0  0  0  0  0  0
  -91.1633   32.7952   -4.0768 C   0  0  0  0  0  0  0  0  0  0  0  0
  -90.3444   31.9485   -3.3658 C   0  0  0  0  0  0  0  0  0  0  0  0
  -89.2322   32.6546   -2.9649 C   0  0  0  0  0  0  0  0  0  0  0  0
  -88.0939   32.3437   -2.2403 C   0  0  0  0  0  0  0  0  0  0  0  0
  -91.0010   34.8326   -4.6075 H   0  0  0  0  0  0  0  0  0  0  0  0
  -87.9382   25.8092    1.9247 O   0  0  0  0  0  0  0  0  0  0  0  0
  -87.1037   26.8956    1.6869 C   0  0  0  0  0  0  0  0  0  0  0  0
  -85.7995   26.8615    2.0950 C   0  0  0  0  0  0  0  0  0  0  0  0
  -85.0047   27.9605    1.8396 C   0  0  0  0  0  0  0  0  0  0  0  0
  -85.4769   29.0774    1.1947 C   0  0  0  0  0  0  0  0  0  0  0  0
  -86.7868   29.0910    0.7944 C   0  0  0  0  0  0  0  0  0  0  0  0
  -87.6333   28.0019    1.0297 C   0  0  0  0  0  0  0  0  0  0  0  0
  -88.4667   25.7641    2.7738 H   0  0  0  0  0  0  0  0  0  0  0  0
 21 22  1  0  0  0
 22 23  2  0  0  0
 23 24  1  0  0  0
 24 25  2  0  0  0
 25 26  1  0  0  0
 26 27  2  0  0  0
 25  1  1  0  0  0
  1  2  2  0  0  0
  2  3  1  0  0  0
  3  4  1  0  0  0
  4  5  2  0  0  0
  5  6  1  0  0  0
  6  7  2  0  0  0
  7  8  1  0  0  0
  8  9  2  0  0  0
  7 11  1  0  0  0
 11 12  2  0  0  0
 12 13  1  0  0  0
 13 14  2  0  0  0
 14 15  1  0  0  0
 15 16  1  0  0  0
 16 17  2  0  0  0
 17 18  1  0  0  0
 18 19  2  0  0  0
 27 22  1  0  0  0
  9  1  1  0  0  0
 19 11  1  0  0  0
  9  4  1  0  0  0
 18 14  1  0  0  0
 21 28  1  0  0  0
  3 10  1  0  0  0
 15 20  1  0  0  0
M  END
> <minimizedAffinity>
-9.38185

> <CNNscore>
0.8299974799

> <CNNaffinity>
6.7589559555

> <CNN_VS>
5.6099162102

> <CNNaffinity_variance>
0.0562247522

$$$$
[H]Oc1c([H])c([H])c(-c2c([H])n([H])c3nc([H])c(-c4c([H])c([H])c5c(c4[H])c([H])c([H])n5[H])c([H])c23)c([H])c1[H]


 28 32  0  0  0  0  0  0  0  0999 V2000
  -84.4738   31.5322    0.3911 C   0  0  0  0  0  0  0  0  0  0  0  0
  -83.6040   32.5970    0.1228 C   0  0  0  0  0  0  0  0  0  0  0  0
  -84.2624   33.5136   -0.6026 N   0  0  0  0  0  0  0  0  0  0  0  0
  -85.5234   33.1189   -0.8331 C   0  0  0  0  0  0  0  0  0  0  0  0
  -86.5782   33.6601   -1.4966 N   0  0  0  0  0  0  0  0  0  0  0  0
  -87.7411   32.9882   -1.5444 C   0  0  0  0  0  0  0  0  0  0  0  0
  -87.9274   31.7649   -0.9507 C   0  0  0  0  0  0  0  0  0  0  0  0
  -86.8536   31.2153   -0.2759 C   0  0  0  0  0  0  0  0  0  0  0  0
  -85.6597   31.8932   -0.2203 C   0  0  0  0  0  0  0  0  0  0  0  0
  -83.8638   34.4101   -0.9457 H   0  0  0  0  0  0  0  0  0  0  0  0
  -89.1841   31.0268   -0.9955 C   0  0  0  0  0  0  0  0  0  0  0  0
  -89.4992   30.0410   -0.0851 C   0  0  0  0  0  0  0  0  0  0  0  0
  -90.6891   29.3419   -0.1264 C   0  0  0  0  0  0  0  0  0  0  0  0
  -91.6114   29.6233   -1.1058 C   0  0  0  0  0  0  0  0  0  0  0  0
  -92.8239   29.1084   -1.3750 N   0  0  0  0  0  0  0  0  0  0  0  0
  -93.3348   29.7445   -2.4700 C   0  0  0  0  0  0  0  0  0  0  0  0
  -92.4137   30.6770   -2.8884 C   0  0  0  0  0  0  0  0  0  0  0  0
  -91.3244   30.6194   -2.0480 C   0  0  0  0  0  0  0  0  0  0  0  0
  -90.1196   31.2978   -1.9722 C   0  0  0  0  0  0  0  0  0  0  0  0
  -93.3446   28.3560   -0.8792 H   0  0  0  0  0  0  0  0  0  0  0  0
  -83.2967   26.9142    3.3278 O   0  0  0  0  0  0  0  0  0  0  0  0
  -83.5971   28.0602    2.6000 C   0  0  0  0  0  0  0  0  0  0  0  0
  -84.8993   28.3943    2.3523 C   0  0  0  0  0  0  0  0  0  0  0  0
  -85.1545   29.5399    1.6261 C   0  0  0  0  0  0  0  0  0  0  0  0
  -84.1520   30.3479    1.1483 C   0  0  0  0  0  0  0  0  0  0  0  0
  -82.8541   29.9948    1.4075 C   0  0  0  0  0  0  0  0  0  0  0  0
  -82.5432   28.8432    2.1392 C   0  0  0  0  0  0  0  0  0  0  0  0
  -83.1680   26.0424    2.8527 H   0  0  0  0  0  0  0  0  0  0  0  0
 21 22  1  0  0  0
 22 23  2  0  0  0
 23 24  1  0  0  0
 24 25  2  0  0  0
 25 26  1  0  0  0
 26 27  2  0  0  0
 25  1  1  0  0  0
  1  2  2  0  0  0
  2  3  1  0  0  0
  3  4  1  0  0  0
  4  5  2  0  0  0
  5  6  1  0  0  0
  6  7  2  0  0  0
  7  8  1  0  0  0
  8  9  2  0  0  0
  7 11  1  0  0  0
 11 12  2  0  0  0
 12 13  1  0  0  0
 13 14  2  0  0  0
 14 15  1  0  0  0
 15 16  1  0  0  0
 16 17  2  0  0  0
 17 18  1  0  0  0
 18 19  2  0  0  0
 27 22  1  0  0  0
  9  1  1  0  0  0
 19 11  1  0  0  0
  9  4  1  0  0  0
 18 14  1  0  0  0
 21 28  1  0  0  0
  3 10  1  0  0  0
 15 20  1  0  0  0
M  END
> <minimizedAffinity>
-10.89234

> <CNNscore>
0.7514332533

> <CNNaffinity>
6.8194785118

> <CNN_VS>
5.1243829727

> <CNNaffinity_variance>
0.1663980484

$$$$
[H]Oc1c([H])c([H])c(-c2c([H])n([H])c3nc([H])c(-c4c([H])c([H])c5c(c4[H])c([H])c([H])n5[H])c([H])c23)c([H])c1[H]


 28 32  0  0  0  0  0  0  0  0999 V2000
  -90.7620   29.0901    0.1913 C   0  0  0  0  0  0  0  0  0  0  0  0
  -91.9263   28.9894   -0.5811 C   0  0  0  0  0  0  0  0  0  0  0  0
  -91.7738   29.7394   -1.6830 N   0  0  0  0  0  0  0  0  0  0  0  0
  -90.5720   30.3350   -1.6881 C   0  0  0  0  0  0  0  0  0  0  0  0
  -89.9357   31.1749   -2.5457 N   0  0  0  0  0  0  0  0  0  0  0  0
  -88.6975   31.6048   -2.2490 C   0  0  0  0  0  0  0  0  0  0  0  0
  -88.0270   31.2374   -1.1093 C   0  0  0  0  0  0  0  0  0  0  0  0
  -88.6754   30.3828   -0.2377 C   0  0  0  0  0  0  0  0  0  0  0  0
  -89.9416   29.9366   -0.5305 C   0  0  0  0  0  0  0  0  0  0  0  0
  -92.4802   29.8528   -2.4369 H   0  0  0  0  0  0  0  0  0  0  0  0
  -86.6838   31.6969   -0.7769 C   0  0  0  0  0  0  0  0  0  0  0  0
  -86.2140   32.9415   -1.1375 C   0  0  0  0  0  0  0  0  0  0  0  0
  -84.9424   33.3777   -0.8228 C   0  0  0  0  0  0  0  0  0  0  0  0
  -84.0935   32.5545   -0.1223 C   0  0  0  0  0  0  0  0  0  0  0  0
  -82.8305   32.7205    0.3080 N   0  0  0  0  0  0  0  0  0  0  0  0
  -82.4399   31.5873    0.9623 C   0  0  0  0  0  0  0  0  0  0  0  0
  -83.4893   30.6979    0.9357 C   0  0  0  0  0  0  0  0  0  0  0  0
  -84.5375   31.2824    0.2607 C   0  0  0  0  0  0  0  0  0  0  0  0
  -85.8202   30.8825   -0.0743 C   0  0  0  0  0  0  0  0  0  0  0  0
  -82.1999   33.5411    0.1982 H   0  0  0  0  0  0  0  0  0  0  0  0
  -89.7813   26.4872    5.0491 O   0  0  0  0  0  0  0  0  0  0  0  0
  -90.0207   27.1279    3.8385 C   0  0  0  0  0  0  0  0  0  0  0  0
  -89.4137   26.6858    2.6963 C   0  0  0  0  0  0  0  0  0  0  0  0
  -89.6781   27.3495    1.5154 C   0  0  0  0  0  0  0  0  0  0  0  0
  -90.5234   28.4300    1.4510 C   0  0  0  0  0  0  0  0  0  0  0  0
  -91.1210   28.8569    2.6072 C   0  0  0  0  0  0  0  0  0  0  0  0
  -90.8856   28.2178    3.8296 C   0  0  0  0  0  0  0  0  0  0  0  0
  -89.0258   26.7905    5.6318 H   0  0  0  0  0  0  0  0  0  0  0  0
 21 22  1  0  0  0
 22 23  2  0  0  0
 23 24  1  0  0  0
 24 25  2  0  0  0
 25 26  1  0  0  0
 26 27  2  0  0  0
 25  1  1  0  0  0
  1  2  2  0  0  0
  2  3  1  0  0  0
  3  4  1  0  0  0
  4  5  2  0  0  0
  5  6  1  0  0  0
  6  7  2  0  0  0
  7  8  1  0  0  0
  8  9  2  0  0  0
  7 11  1  0  0  0
 11 12  2  0  0  0
 12 13  1  0  0  0
 13 14  2  0  0  0
 14 15  1  0  0  0
 15 16  1  0  0  0
 16 17  2  0  0  0
 17 18  1  0  0  0
 18 19  2  0  0  0
 27 22  1  0  0  0
  9  1  1  0  0  0
 19 11  1  0  0  0
  9  4  1  0  0  0
 18 14  1  0  0  0
 21 28  1  0  0  0
  3 10  1  0  0  0
 15 20  1  0  0  0
M  END
> <minimizedAffinity>
-9.29860

> <CNNscore>
0.5349295735

> <CNNaffinity>
6.4291276932

> <CNN_VS>
3.4391305447

> <CNNaffinity_variance>
0.3684022725

$$$$
[H]Oc1c([H])c([H])c(-c2c([H])n([H])c3nc([H])c(-c4c([H])c([H])c5c(c4[H])c([H])c([H])n5[H])c([H])c23)c([H])c1[H]


 28 32  0  0  0  0  0  0  0  0999 V2000
  -85.4643   31.7964   -0.0955 C   0  0  0  0  0  0  0  0  0  0  0  0
  -84.5980   32.8936   -0.0050 C   0  0  0  0  0  0  0  0  0  0  0  0
  -85.0972   33.8939   -0.7467 N   0  0  0  0  0  0  0  0  0  0  0  0
  -86.2487   33.5244   -1.3271 C   0  0  0  0  0  0  0  0  0  0  0  0
  -87.1323   34.1416   -2.1540 N   0  0  0  0  0  0  0  0  0  0  0  0
  -88.2218   33.4739   -2.5701 C   0  0  0  0  0  0  0  0  0  0  0  0
  -88.4978   32.1812   -2.2008 C   0  0  0  0  0  0  0  0  0  0  0  0
  -87.5980   31.5543   -1.3594 C   0  0  0  0  0  0  0  0  0  0  0  0
  -86.4806   32.2272   -0.9274 C   0  0  0  0  0  0  0  0  0  0  0  0
  -84.6632   34.8308   -0.8647 H   0  0  0  0  0  0  0  0  0  0  0  0
  -89.6763   31.4467   -2.6453 C   0  0  0  0  0  0  0  0  0  0  0  0
  -90.1247   31.4801   -3.9482 C   0  0  0  0  0  0  0  0  0  0  0  0
  -91.2402   30.7845   -4.3701 C   0  0  0  0  0  0  0  0  0  0  0  0
  -91.9477   30.0215   -3.4721 C   0  0  0  0  0  0  0  0  0  0  0  0
  -93.0466   29.2589   -3.6082 N   0  0  0  0  0  0  0  0  0  0  0  0
  -93.3468   28.7058   -2.3963 C   0  0  0  0  0  0  0  0  0  0  0  0
  -92.4085   29.1378   -1.4875 C   0  0  0  0  0  0  0  0  0  0  0  0
  -91.5206   29.9643   -2.1392 C   0  0  0  0  0  0  0  0  0  0  0  0
  -90.3966   30.6766   -1.7560 C   0  0  0  0  0  0  0  0  0  0  0  0
  -93.6201   29.0758   -4.4572 H   0  0  0  0  0  0  0  0  0  0  0  0
  -84.7322   26.8892    2.4966 O   0  0  0  0  0  0  0  0  0  0  0  0
  -84.9072   28.1109    1.8562 C   0  0  0  0  0  0  0  0  0  0  0  0
  -84.0831   29.1622    2.1466 C   0  0  0  0  0  0  0  0  0  0  0  0
  -84.2903   30.3577    1.4887 C   0  0  0  0  0  0  0  0  0  0  0  0
  -85.2886   30.5242    0.5603 C   0  0  0  0  0  0  0  0  0  0  0  0
  -86.1032   29.4581    0.2843 C   0  0  0  0  0  0  0  0  0  0  0  0
  -85.9340   28.2253    0.9242 C   0  0  0  0  0  0  0  0  0  0  0  0
  -85.2127   26.7042    3.3552 H   0  0  0  0  0  0  0  0  0  0  0  0
 21 22  1  0  0  0
 22 23  2  0  0  0
 23 24  1  0  0  0
 24 25  2  0  0  0
 25 26  1  0  0  0
 26 27  2  0  0  0
 25  1  1  0  0  0
  1  2  2  0  0  0
  2  3  1  0  0  0
  3  4  1  0  0  0
  4  5  2  0  0  0
  5  6  1  0  0  0
  6  7  2  0  0  0
  7  8  1  0  0  0
  8  9  2  0  0  0
  7 11  1  0  0  0
 11 12  2  0  0  0
 12 13  1  0  0  0
 13 14  2  0  0  0
 14 15  1  0  0  0
 15 16  1  0  0  0
 16 17  2  0  0  0
 17 18  1  0  0  0
 18 19  2  0  0  0
 27 22  1  0  0  0
  9  1  1  0  0  0
 19 11  1  0  0  0
  9  4  1  0  0  0
 18 14  1  0  0  0
 21 28  1  0  0  0
  3 10  1  0  0  0
 15 20  1  0  0  0
M  END
> <minimizedAffinity>
-8.48877

> <CNNscore>
0.4503333867

> <CNNaffinity>
6.3755207062

> <CNN_VS>
2.8711097240

> <CNNaffinity_variance>
0.2960954309

$$$$
[H]Oc1c([H])c([H])c(-c2c([H])n([H])c3nc([H])c(-c4c([H])c([H])c5c(c4[H])c([H])c([H])n5[H])c([H])c23)c([H])c1[H]


 28 32  0  0  0  0  0  0  0  0999 V2000
  -84.8674   31.3766    0.4216 C   0  0  0  0  0  0  0  0  0  0  0  0
  -84.1647   32.5653    0.1853 C   0  0  0  0  0  0  0  0  0  0  0  0
  -84.9495   33.3915   -0.5227 N   0  0  0  0  0  0  0  0  0  0  0  0
  -86.1370   32.8195   -0.7718 C   0  0  0  0  0  0  0  0  0  0  0  0
  -87.2581   33.2142   -1.4298 N   0  0  0  0  0  0  0  0  0  0  0  0
  -88.3078   32.3782   -1.5022 C   0  0  0  0  0  0  0  0  0  0  0  0
  -88.3123   31.1265   -0.9395 C   0  0  0  0  0  0  0  0  0  0  0  0
  -87.1711   30.7261   -0.2702 C   0  0  0  0  0  0  0  0  0  0  0  0
  -86.0915   31.5724   -0.1896 C   0  0  0  0  0  0  0  0  0  0  0  0
  -84.6876   34.3455   -0.8412 H   0  0  0  0  0  0  0  0  0  0  0  0
  -89.4449   30.2110   -1.0111 C   0  0  0  0  0  0  0  0  0  0  0  0
  -90.5991   30.5101   -1.7024 C   0  0  0  0  0  0  0  0  0  0  0  0
  -91.6719   29.6437   -1.7712 C   0  0  0  0  0  0  0  0  0  0  0  0
  -91.6086   28.4285   -1.1322 C   0  0  0  0  0  0  0  0  0  0  0  0
  -92.4871   27.4152   -1.0363 N   0  0  0  0  0  0  0  0  0  0  0  0
  -91.9301   26.4250   -0.2787 C   0  0  0  0  0  0  0  0  0  0  0  0
  -90.6744   26.8373    0.1035 C   0  0  0  0  0  0  0  0  0  0  0  0
  -90.4505   28.0911   -0.4199 C   0  0  0  0  0  0  0  0  0  0  0  0
  -89.3964   28.9879   -0.3752 C   0  0  0  0  0  0  0  0  0  0  0  0
  -93.4418   27.3308   -1.4419 H   0  0  0  0  0  0  0  0  0  0  0  0
  -83.0270   26.9139    3.2557 O   0  0  0  0  0  0  0  0  0  0  0  0
  -83.4919   28.0201    2.5533 C   0  0  0  0  0  0  0  0  0  0  0  0
  -84.8295   28.1685    2.3137 C   0  0  0  0  0  0  0  0  0  0  0  0
  -85.2496   29.2808    1.6130 C   0  0  0  0  0  0  0  0  0  0  0  0
  -84.3756   30.2349    1.1525 C   0  0  0  0  0  0  0  0  0  0  0  0
  -83.0395   30.0669    1.4033 C   0  0  0  0  0  0  0  0  0  0  0  0
  -82.5634   28.9565    2.1093 C   0  0  0  0  0  0  0  0  0  0  0  0
  -82.7759   26.0802    2.7615 H   0  0  0  0  0  0  0  0  0  0  0  0
 21 22  1  0  0  0
 22 23  2  0  0  0
 23 24  1  0  0  0
 24 25  2  0  0  0
 25 26  1  0  0  0
 26 27  2  0  0  0
 25  1  1  0  0  0
  1  2  2  0  0  0
  2  3  1  0  0  0
  3  4  1  0  0  0
  4  5  2  0  0  0
  5  6  1  0  0  0
  6  7  2  0  0  0
  7  8  1  0  0  0
  8  9  2  0  0  0
  7 11  1  0  0  0
 11 12  2  0  0  0
 12 13  1  0  0  0
 13 14  2  0  0  0
 14 15  1  0  0  0
 15 16  1  0  0  0
 16 17  2  0  0  0
 17 18  1  0  0  0
 18 19  2  0  0  0
 27 22  1  0  0  0
  9  1  1  0  0  0
 19 11  1  0  0  0
  9  4  1  0  0  0
 18 14  1  0  0  0
 21 28  1  0  0  0
  3 10  1  0  0  0
 15 20  1  0  0  0
M  END
> <minimizedAffinity>
-10.49016

> <CNNscore>
0.3951671720

> <CNNaffinity>
6.4666495323

> <CNN_VS>
2.5554075241

> <CNNaffinity_variance>
0.2166359127

$$$$
[H]Oc1c([H])c([H])c(-c2c([H])n([H])c3nc([H])c(-c4c([H])c([H])c5c(c4[H])c([H])c([H])n5[H])c([H])c23)c([H])c1[H]


 28 32  0  0  0  0  0  0  0  0999 V2000
  -85.3839   32.8897   -0.7986 C   0  0  0  0  0  0  0  0  0  0  0  0
  -84.2112   33.6416   -0.6515 C   0  0  0  0  0  0  0  0  0  0  0  0
  -83.3135   32.9052    0.0208 N   0  0  0  0  0  0  0  0  0  0  0  0
  -83.8230   31.7036    0.3304 C   0  0  0  0  0  0  0  0  0  0  0  0
  -83.3459   30.6140    0.9868 N   0  0  0  0  0  0  0  0  0  0  0  0
  -84.1347   29.5359    1.1334 C   0  0  0  0  0  0  0  0  0  0  0  0
  -85.4173   29.4714    0.6493 C   0  0  0  0  0  0  0  0  0  0  0  0
  -85.9015   30.5806   -0.0183 C   0  0  0  0  0  0  0  0  0  0  0  0
  -85.1041   31.6886   -0.1744 C   0  0  0  0  0  0  0  0  0  0  0  0
  -82.3527   33.2101    0.2740 H   0  0  0  0  0  0  0  0  0  0  0  0
  -86.2822   28.3075    0.8019 C   0  0  0  0  0  0  0  0  0  0  0  0
  -86.3605   27.5890    1.9754 C   0  0  0  0  0  0  0  0  0  0  0  0
  -87.1796   26.4871    2.1210 C   0  0  0  0  0  0  0  0  0  0  0  0
  -87.9571   26.0718    1.0664 C   0  0  0  0  0  0  0  0  0  0  0  0
  -88.8260   25.0542    0.9347 N   0  0  0  0  0  0  0  0  0  0  0  0
  -89.3398   25.0801   -0.3302 C   0  0  0  0  0  0  0  0  0  0  0  0
  -88.7736   26.1417   -0.9976 C   0  0  0  0  0  0  0  0  0  0  0  0
  -87.9029   26.7785   -0.1418 C   0  0  0  0  0  0  0  0  0  0  0  0
  -87.0684   27.8786   -0.2472 C   0  0  0  0  0  0  0  0  0  0  0  0
  -89.1072   24.3340    1.6315 H   0  0  0  0  0  0  0  0  0  0  0  0
  -90.0921   34.5333   -3.3416 O   0  0  0  0  0  0  0  0  0  0  0  0
  -88.9271   34.1199   -2.7053 C   0  0  0  0  0  0  0  0  0  0  0  0
  -88.9943   33.2852   -1.6247 C   0  0  0  0  0  0  0  0  0  0  0  0
  -87.8146   32.8985   -1.0218 C   0  0  0  0  0  0  0  0  0  0  0  0
  -86.5863   33.3210   -1.4679 C   0  0  0  0  0  0  0  0  0  0  0  0
  -86.5413   34.1571   -2.5519 C   0  0  0  0  0  0  0  0  0  0  0  0
  -87.7091   34.5778   -3.1980 C   0  0  0  0  0  0  0  0  0  0  0  0
  -90.5539   35.3690   -3.0405 H   0  0  0  0  0  0  0  0  0  0  0  0
 21 22  1  0  0  0
 22 23  2  0  0  0
 23 24  1  0  0  0
 24 25  2  0  0  0
 25 26  1  0  0  0
 26 27  2  0  0  0
 25  1  1  0  0  0
  1  2  2  0  0  0
  2  3  1  0  0  0
  3  4  1  0  0  0
  4  5  2  0  0  0
  5  6  1  0  0  0
  6  7  2  0  0  0
  7  8  1  0  0  0
  8  9  2  0  0  0
  7 11  1  0  0  0
 11 12  2  0  0  0
 12 13  1  0  0  0
 13 14  2  0  0  0
 14 15  1  0  0  0
 15 16  1  0  0  0
 16 17  2  0  0  0
 17 18  1  0  0  0
 18 19  2  0  0  0
 27 22  1  0  0  0
  9  1  1  0  0  0
 19 11  1  0  0  0
  9  4  1  0  0  0
 18 14  1  0  0  0
 21 28  1  0  0  0
  3 10  1  0  0  0
 15 20  1  0  0  0
M  END
> <minimizedAffinity>
-9.89046

> <CNNscore>
0.3079344332

> <CNNaffinity>
6.2445220947

> <CNN_VS>
1.9229034185

> <CNNaffinity_variance>
0.1496008933

$$$$
[H]Oc1c([H])c([H])c(-c2c([H])n([H])c3nc([H])c(-c4c([H])c([H])c5c(c4[H])c([H])c([H])n5[H])c([H])c23)c([H])c1[H]


 28 32  0  0  0  0  0  0  0  0999 V2000
  -84.3404   30.5011    0.8844 C   0  0  0  0  0  0  0  0  0  0  0  0
  -83.0581   30.6233    1.4350 C   0  0  0  0  0  0  0  0  0  0  0  0
  -82.7689   29.4936    2.0984 N   0  0  0  0  0  0  0  0  0  0  0  0
  -83.7877   28.6245    2.0207 C   0  0  0  0  0  0  0  0  0  0  0  0
  -84.0027   27.3728    2.5031 N   0  0  0  0  0  0  0  0  0  0  0  0
  -85.1676   26.7567    2.2395 C   0  0  0  0  0  0  0  0  0  0  0  0
  -86.1701   27.3296    1.4977 C   0  0  0  0  0  0  0  0  0  0  0  0
  -85.9502   28.6031    1.0075 C   0  0  0  0  0  0  0  0  0  0  0  0
  -84.7629   29.2429    1.2704 C   0  0  0  0  0  0  0  0  0  0  0  0
  -81.8825   29.3036    2.6067 H   0  0  0  0  0  0  0  0  0  0  0  0
  -87.4377   26.6711    1.2050 C   0  0  0  0  0  0  0  0  0  0  0  0
  -88.3792   26.4068    2.1763 C   0  0  0  0  0  0  0  0  0  0  0  0
  -89.5799   25.7838    1.9000 C   0  0  0  0  0  0  0  0  0  0  0  0
  -89.8694   25.4029    0.6115 C   0  0  0  0  0  0  0  0  0  0  0  0
  -90.9392   24.7925    0.0722 N   0  0  0  0  0  0  0  0  0  0  0  0
  -90.7256   24.6411   -1.2680 C   0  0  0  0  0  0  0  0  0  0  0  0
  -89.4914   25.1719   -1.5646 C   0  0  0  0  0  0  0  0  0  0  0  0
  -88.9354   25.6557   -0.4015 C   0  0  0  0  0  0  0  0  0  0  0  0
  -87.7427   26.2830   -0.0831 C   0  0  0  0  0  0  0  0  0  0  0  0
  -91.8124   24.4646    0.5338 H   0  0  0  0  0  0  0  0  0  0  0  0
  -86.9083   34.3952   -2.2102 O   0  0  0  0  0  0  0  0  0  0  0  0
  -86.2635   33.4322   -1.4421 C   0  0  0  0  0  0  0  0  0  0  0  0
  -84.9093   33.4896   -1.2647 C   0  0  0  0  0  0  0  0  0  0  0  0
  -84.3079   32.5145   -0.4952 C   0  0  0  0  0  0  0  0  0  0  0  0
  -85.0190   31.4973    0.0929 C   0  0  0  0  0  0  0  0  0  0  0  0
  -86.3749   31.4582   -0.0977 C   0  0  0  0  0  0  0  0  0  0  0  0
  -87.0316   32.4234   -0.8692 C   0  0  0  0  0  0  0  0  0  0  0  0
  -87.0253   34.2508   -3.1940 H   0  0  0  0  0  0  0  0  0  0  0  0
 21 22  1  0  0  0
 22 23  2  0  0  0
 23 24  1  0  0  0
 24 25  2  0  0  0
 25 26  1  0  0  0
 26 27  2  0  0  0
 25  1  1  0  0  0
  1  2  2  0  0  0
  2  3  1  0  0  0
  3  4  1  0  0  0
  4  5  2  0  0  0
  5  6  1  0  0  0
  6  7  2  0  0  0
  7  8  1  0  0  0
  8  9  2  0  0  0
  7 11  1  0  0  0
 11 12  2  0  0  0
 12 13  1  0  0  0
 13 14  2  0  0  0
 14 15  1  0  0  0
 15 16  1  0  0  0
 16 17  2  0  0  0
 17 18  1  0  0  0
 18 19  2  0  0  0
 27 22  1  0  0  0
  9  1  1  0  0  0
 19 11  1  0  0  0
  9  4  1  0  0  0
 18 14  1  0  0  0
 21 28  1  0  0  0
  3 10  1  0  0  0
 15 20  1  0  0  0
M  END
> <minimizedAffinity>
-9.66336

> <CNNscore>
0.2811763585

> <CNNaffinity>
6.2064847946

> <CNN_VS>
1.7451168299

> <CNNaffinity_variance>
0.1360566169

$$$$
[H]Oc1c([H])c([H])c(-c2c([H])n([H])c3nc([H])c(-c4c([H])c([H])c5c(c4[H])c([H])c([H])n5[H])c([H])c23)c([H])c1[H]


 28 32  0  0  0  0  0  0  0  0999 V2000
  -85.8969   30.0137    0.8484 C   0  0  0  0  0  0  0  0  0  0  0  0
  -85.0018   30.4525    1.8326 C   0  0  0  0  0  0  0  0  0  0  0  0
  -84.7190   31.7444    1.6070 N   0  0  0  0  0  0  0  0  0  0  0  0
  -85.3760   32.1916    0.5264 C   0  0  0  0  0  0  0  0  0  0  0  0
  -85.4389   33.3874   -0.1152 N   0  0  0  0  0  0  0  0  0  0  0  0
  -86.2154   33.5098   -1.2051 C   0  0  0  0  0  0  0  0  0  0  0  0
  -86.9618   32.4778   -1.7162 C   0  0  0  0  0  0  0  0  0  0  0  0
  -86.8971   31.2616   -1.0625 C   0  0  0  0  0  0  0  0  0  0  0  0
  -86.1065   31.1246    0.0530 C   0  0  0  0  0  0  0  0  0  0  0  0
  -84.0812   32.3305    2.1813 H   0  0  0  0  0  0  0  0  0  0  0  0
  -87.8081   32.5986   -2.8974 C   0  0  0  0  0  0  0  0  0  0  0  0
  -88.1630   31.5143   -3.6709 C   0  0  0  0  0  0  0  0  0  0  0  0
  -88.9647   31.6276   -4.7892 C   0  0  0  0  0  0  0  0  0  0  0  0
  -89.4393   32.8615   -5.1654 C   0  0  0  0  0  0  0  0  0  0  0  0
  -90.2211   33.2518   -6.1873 N   0  0  0  0  0  0  0  0  0  0  0  0
  -90.3985   34.6035   -6.1094 C   0  0  0  0  0  0  0  0  0  0  0  0
  -89.7083   35.0604   -5.0104 C   0  0  0  0  0  0  0  0  0  0  0  0
  -89.0986   33.9858   -4.4024 C   0  0  0  0  0  0  0  0  0  0  0  0
  -88.2922   33.8298   -3.2876 C   0  0  0  0  0  0  0  0  0  0  0  0
  -90.6515   32.6799   -6.9428 H   0  0  0  0  0  0  0  0  0  0  0  0
  -88.0489   24.8699    0.3527 O   0  0  0  0  0  0  0  0  0  0  0  0
  -87.5169   26.1493    0.4682 C   0  0  0  0  0  0  0  0  0  0  0  0
  -87.4918   26.9826   -0.6152 C   0  0  0  0  0  0  0  0  0  0  0  0
  -86.9552   28.2444   -0.4583 C   0  0  0  0  0  0  0  0  0  0  0  0
  -86.4501   28.6864    0.7399 C   0  0  0  0  0  0  0  0  0  0  0  0
  -86.4848   27.8356    1.8128 C   0  0  0  0  0  0  0  0  0  0  0  0
  -87.0184   26.5465    1.7050 C   0  0  0  0  0  0  0  0  0  0  0  0
  -87.4559   24.1059    0.0938 H   0  0  0  0  0  0  0  0  0  0  0  0
 21 22  1  0  0  0
 22 23  2  0  0  0
 23 24  1  0  0  0
 24 25  2  0  0  0
 25 26  1  0  0  0
 26 27  2  0  0  0
 25  1  1  0  0  0
  1  2  2  0  0  0
  2  3  1  0  0  0
  3  4  1  0  0  0
  4  5  2  0  0  0
  5  6  1  0  0  0
  6  7  2  0  0  0
  7  8  1  0  0  0
  8  9  2  0  0  0
  7 11  1  0  0  0
 11 12  2  0  0  0
 12 13  1  0  0  0
 13 14  2  0  0  0
 14 15  1  0  0  0
 15 16  1  0  0  0
 16 17  2  0  0  0
 17 18  1  0  0  0
 18 19  2  0  0  0
 27 22  1  0  0  0
  9  1  1  0  0  0
 19 11  1  0  0  0
  9  4  1  0  0  0
 18 14  1  0  0  0
 21 28  1  0  0  0
  3 10  1  0  0  0
 15 20  1  0  0  0
M  END
> <minimizedAffinity>
-9.16285

> <CNNscore>
0.2538036108

> <CNNaffinity>
6.0331315994

> <CNN_VS>
1.5312305689

> <CNNaffinity_variance>
0.1712840348

$$$$
[H]N=C(OC([H])([H])[H])c1nc2c([H])c([H])c3nc([H])nc(N([H])c4c([H])c([H])c(OC([H])([H])[H])c([H])c4[H])c3c2s1


 28 31  0  0  0  0  0  0  0  0999 V2000
  -86.7872   27.5844    1.3592 C   0  0  0  0  0  0  0  0  0  0  0  0
  -85.5685   27.8242    1.7595 N   0  0  0  0  0  0  0  0  0  0  0  0
  -84.9744   28.9428    1.4426 C   0  0  0  0  0  0  0  0  0  0  0  0
  -83.6726   29.3300    1.8111 C   0  0  0  0  0  0  0  0  0  0  0  0
  -83.1832   30.5384    1.4106 C   0  0  0  0  0  0  0  0  0  0  0  0
  -83.8949   31.4547    0.6366 C   0  0  0  0  0  0  0  0  0  0  0  0
  -83.3540   32.6222    0.2876 N   0  0  0  0  0  0  0  0  0  0  0  0
  -84.1192   33.4381   -0.4503 C   0  0  0  0  0  0  0  0  0  0  0  0
  -85.3517   33.0843   -0.8070 N   0  0  0  0  0  0  0  0  0  0  0  0
  -85.9482   31.8964   -0.4725 C   0  0  0  0  0  0  0  0  0  0  0  0
  -85.1656   31.0558    0.2867 C   0  0  0  0  0  0  0  0  0  0  0  0
  -85.6853   29.8370    0.6800 C   0  0  0  0  0  0  0  0  0  0  0  0
  -87.1571   28.9927    0.4805 S   0  0  0  0  0  0  0  0  0  0  0  0
  -87.6652   26.4156    1.5795 C   0  0  0  0  0  0  0  0  0  0  0  0
  -87.7318   25.5274    0.6967 N   0  0  0  0  0  0  0  0  0  0  0  0
  -87.1826   25.5998   -0.1825 H   0  0  0  0  0  0  0  0  0  0  0  0
  -89.8257   26.4829    2.7484 C   0  0  0  0  0  0  0  0  0  0  0  0
  -88.3978   26.3129    2.7450 O   0  0  0  0  0  0  0  0  0  0  0  0
  -87.2200   31.6016   -0.9495 N   0  0  0  0  0  0  0  0  0  0  0  0
  -87.8482   30.8983   -0.5830 H   0  0  0  0  0  0  0  0  0  0  0  0
  -87.7467   32.3186   -2.0835 C   0  0  0  0  0  0  0  0  0  0  0  0
  -87.4338   31.8702   -3.3748 C   0  0  0  0  0  0  0  0  0  0  0  0
  -87.9271   32.4750   -4.5048 C   0  0  0  0  0  0  0  0  0  0  0  0
  -88.7601   33.5609   -4.4043 C   0  0  0  0  0  0  0  0  0  0  0  0
  -89.0720   34.0058   -3.1454 C   0  0  0  0  0  0  0  0  0  0  0  0
  -88.5745   33.3955   -1.9942 C   0  0  0  0  0  0  0  0  0  0  0  0
  -89.2525   34.1644   -5.5579 O   0  0  0  0  0  0  0  0  0  0  0  0
  -90.0776   35.3097   -5.4561 C   0  0  0  0  0  0  0  0  0  0  0  0
 17 18  1  0  0  0
 18 14  1  0  0  0
 14 15  2  0  0  0
 14  1  1  0  0  0
  1  2  2  0  0  0
  2  3  1  0  0  0
  3  4  2  0  0  0
  4  5  1  0  0  0
  5  6  2  0  0  0
  6  7  1  0  0  0
  7  8  2  0  0  0
  8  9  1  0  0  0
  9 10  2  0  0  0
 10 19  1  0  0  0
 19 21  1  0  0  0
 21 22  2  0  0  0
 22 23  1  0  0  0
 23 24  2  0  0  0
 24 27  1  0  0  0
 27 28  1  0  0  0
 24 25  1  0  0  0
 25 26  2  0  0  0
 10 11  1  0  0  0
 11 12  2  0  0  0
 12 13  1  0  0  0
 13  1  1  0  0  0
 12  3  1  0  0  0
 11  6  1  0  0  0
 26 21  1  0  0  0
 15 16  1  0  0  0
 19 20  1  0  0  0
M  END
> <minimizedAffinity>
-8.15428

> <CNNscore>
0.8149875998

> <CNNaffinity>
6.9864602089

> <CNN_VS>
5.6938786507

> <CNNaffinity_variance>
0.0821248367

$$$$
[H]N=C(OC([H])([H])[H])c1nc2c([H])c([H])c3nc([H])nc(N([H])c4c([H])c([H])c(OC([H])([H])[H])c([H])c4[H])c3c2s1


 28 31  0  0  0  0  0  0  0  0999 V2000
  -86.2156   33.2206   -1.6996 C   0  0  0  0  0  0  0  0  0  0  0  0
  -84.9596   33.3443   -1.3676 N   0  0  0  0  0  0  0  0  0  0  0  0
  -84.3975   32.4809   -0.5657 C   0  0  0  0  0  0  0  0  0  0  0  0
  -83.0581   32.4918   -0.1340 C   0  0  0  0  0  0  0  0  0  0  0  0
  -82.6054   31.5154    0.7039 C   0  0  0  0  0  0  0  0  0  0  0  0
  -83.3919   30.4689    1.1852 C   0  0  0  0  0  0  0  0  0  0  0  0
  -82.8789   29.5445    1.9973 N   0  0  0  0  0  0  0  0  0  0  0  0
  -83.7118   28.5751    2.4003 C   0  0  0  0  0  0  0  0  0  0  0  0
  -84.9812   28.5530    2.0008 N   0  0  0  0  0  0  0  0  0  0  0  0
  -85.5515   29.4806    1.1682 C   0  0  0  0  0  0  0  0  0  0  0  0
  -84.6986   30.4777    0.7511 C   0  0  0  0  0  0  0  0  0  0  0  0
  -85.1821   31.4550   -0.0982 C   0  0  0  0  0  0  0  0  0  0  0  0
  -86.6710   31.8171   -0.8539 S   0  0  0  0  0  0  0  0  0  0  0  0
  -87.0709   34.0500   -2.5748 C   0  0  0  0  0  0  0  0  0  0  0  0
  -86.5596   34.6124   -3.5723 N   0  0  0  0  0  0  0  0  0  0  0  0
  -85.5496   34.5051   -3.7919 H   0  0  0  0  0  0  0  0  0  0  0  0
  -89.3756   34.4512   -3.3270 C   0  0  0  0  0  0  0  0  0  0  0  0
  -88.4134   34.1970   -2.2890 O   0  0  0  0  0  0  0  0  0  0  0  0
  -86.9047   29.3971    0.8621 N   0  0  0  0  0  0  0  0  0  0  0  0
  -87.5699   30.1593    0.8786 H   0  0  0  0  0  0  0  0  0  0  0  0
  -87.4819   28.1285    0.4949 C   0  0  0  0  0  0  0  0  0  0  0  0
  -88.2094   27.4107    1.4550 C   0  0  0  0  0  0  0  0  0  0  0  0
  -88.8220   26.2143    1.1730 C   0  0  0  0  0  0  0  0  0  0  0  0
  -88.7400   25.6712   -0.0845 C   0  0  0  0  0  0  0  0  0  0  0  0
  -88.0310   26.3667   -1.0300 C   0  0  0  0  0  0  0  0  0  0  0  0
  -87.4073   27.5823   -0.7498 C   0  0  0  0  0  0  0  0  0  0  0  0
  -89.3652   24.4577   -0.3563 O   0  0  0  0  0  0  0  0  0  0  0  0
  -89.8959   24.2122   -1.6452 C   0  0  0  0  0  0  0  0  0  0  0  0
 17 18  1  0  0  0
 18 14  1  0  0  0
 14 15  2  0  0  0
 14  1  1  0  0  0
  1  2  2  0  0  0
  2  3  1  0  0  0
  3  4  2  0  0  0
  4  5  1  0  0  0
  5  6  2  0  0  0
  6  7  1  0  0  0
  7  8  2  0  0  0
  8  9  1  0  0  0
  9 10  2  0  0  0
 10 19  1  0  0  0
 19 21  1  0  0  0
 21 22  2  0  0  0
 22 23  1  0  0  0
 23 24  2  0  0  0
 24 27  1  0  0  0
 27 28  1  0  0  0
 24 25  1  0  0  0
 25 26  2  0  0  0
 10 11  1  0  0  0
 11 12  2  0  0  0
 12 13  1  0  0  0
 13  1  1  0  0  0
 12  3  1  0  0  0
 11  6  1  0  0  0
 26 21  1  0  0  0
 15 16  1  0  0  0
 19 20  1  0  0  0
M  END
> <minimizedAffinity>
-8.51471

> <CNNscore>
0.7847395539

> <CNNaffinity>
7.0987038612

> <CNN_VS>
5.5706338882

> <CNNaffinity_variance>
0.1091560274

$$$$
[H]N=C(OC([H])([H])[H])c1nc2c([H])c([H])c3nc([H])nc(N([H])c4c([H])c([H])c(OC([H])([H])[H])c([H])c4[H])c3c2s1


 28 31  0  0  0  0  0  0  0  0999 V2000
  -87.2131   27.1124    1.8629 C   0  0  0  0  0  0  0  0  0  0  0  0
  -85.9694   27.0650    2.2553 N   0  0  0  0  0  0  0  0  0  0  0  0
  -85.1500   28.0441    1.9821 C   0  0  0  0  0  0  0  0  0  0  0  0
  -83.7937   28.1242    2.3484 C   0  0  0  0  0  0  0  0  0  0  0  0
  -83.0576   29.2175    1.9976 C   0  0  0  0  0  0  0  0  0  0  0  0
  -83.5592   30.3022    1.2784 C   0  0  0  0  0  0  0  0  0  0  0  0
  -82.7814   31.3419    0.9763 N   0  0  0  0  0  0  0  0  0  0  0  0
  -83.3567   32.3383    0.2892 C   0  0  0  0  0  0  0  0  0  0  0  0
  -84.6381   32.2754   -0.0648 N   0  0  0  0  0  0  0  0  0  0  0  0
  -85.4747   31.2283    0.2229 C   0  0  0  0  0  0  0  0  0  0  0  0
  -84.8876   30.2030    0.9297 C   0  0  0  0  0  0  0  0  0  0  0  0
  -85.6556   29.1065    1.2733 C   0  0  0  0  0  0  0  0  0  0  0  0
  -87.2755   28.6087    1.0570 S   0  0  0  0  0  0  0  0  0  0  0  0
  -88.3209   26.1501    2.0416 C   0  0  0  0  0  0  0  0  0  0  0  0
  -88.6117   25.3728    1.1014 N   0  0  0  0  0  0  0  0  0  0  0  0
  -88.0889   25.3945    0.2036 H   0  0  0  0  0  0  0  0  0  0  0  0
  -89.7181   27.2728    3.7226 C   0  0  0  0  0  0  0  0  0  0  0  0
  -89.0198   26.1156    3.2316 O   0  0  0  0  0  0  0  0  0  0  0  0
  -86.7824   31.2373   -0.2480 N   0  0  0  0  0  0  0  0  0  0  0  0
  -87.5726   30.7649    0.1718 H   0  0  0  0  0  0  0  0  0  0  0  0
  -87.1074   31.9554   -1.4546 C   0  0  0  0  0  0  0  0  0  0  0  0
  -87.1338   33.3571   -1.4238 C   0  0  0  0  0  0  0  0  0  0  0  0
  -87.3966   34.1142   -2.5391 C   0  0  0  0  0  0  0  0  0  0  0  0
  -87.6472   33.5101   -3.7455 C   0  0  0  0  0  0  0  0  0  0  0  0
  -87.6229   32.1397   -3.7851 C   0  0  0  0  0  0  0  0  0  0  0  0
  -87.3561   31.3656   -2.6560 C   0  0  0  0  0  0  0  0  0  0  0  0
  -87.9127   34.2896   -4.8678 O   0  0  0  0  0  0  0  0  0  0  0  0
  -87.3732   35.5946   -4.9622 C   0  0  0  0  0  0  0  0  0  0  0  0
 17 18  1  0  0  0
 18 14  1  0  0  0
 14 15  2  0  0  0
 14  1  1  0  0  0
  1  2  2  0  0  0
  2  3  1  0  0  0
  3  4  2  0  0  0
  4  5  1  0  0  0
  5  6  2  0  0  0
  6  7  1  0  0  0
  7  8  2  0  0  0
  8  9  1  0  0  0
  9 10  2  0  0  0
 10 19  1  0  0  0
 19 21  1  0  0  0
 21 22  2  0  0  0
 22 23  1  0  0  0
 23 24  2  0  0  0
 24 27  1  0  0  0
 27 28  1  0  0  0
 24 25  1  0  0  0
 25 26  2  0  0  0
 10 11  1  0  0  0
 11 12  2  0  0  0
 12 13  1  0  0  0
 13  1  1  0  0  0
 12  3  1  0  0  0
 11  6  1  0  0  0
 26 21  1  0  0  0
 15 16  1  0  0  0
 19 20  1  0  0  0
M  END
> <minimizedAffinity>
-8.72081

> <CNNscore>
0.6647080183

> <CNNaffinity>
6.9993314743

> <CNN_VS>
4.6525115967

> <CNNaffinity_variance>
0.1888433993

$$$$
[H]N=C(OC([H])([H])[H])c1nc2c([H])c([H])c3nc([H])nc(N([H])c4c([H])c([H])c(OC([H])([H])[H])c([H])c4[H])c3c2s1


 28 31  0  0  0  0  0  0  0  0999 V2000
  -87.3206   32.2384   -1.1139 C   0  0  0  0  0  0  0  0  0  0  0  0
  -86.1970   32.6125   -0.5655 N   0  0  0  0  0  0  0  0  0  0  0  0
  -85.5030   31.7780    0.1601 C   0  0  0  0  0  0  0  0  0  0  0  0
  -84.2788   32.0466    0.7999 C   0  0  0  0  0  0  0  0  0  0  0  0
  -83.6606   31.0696    1.5236 C   0  0  0  0  0  0  0  0  0  0  0  0
  -84.1626   29.7786    1.6867 C   0  0  0  0  0  0  0  0  0  0  0  0
  -83.4991   28.8716    2.4039 N   0  0  0  0  0  0  0  0  0  0  0  0
  -84.0587   27.6575    2.4963 C   0  0  0  0  0  0  0  0  0  0  0  0
  -85.2167   27.3898    1.8973 N   0  0  0  0  0  0  0  0  0  0  0  0
  -85.9335   28.2892    1.1515 C   0  0  0  0  0  0  0  0  0  0  0  0
  -85.3612   29.5376    1.0532 C   0  0  0  0  0  0  0  0  0  0  0  0
  -86.0077   30.5097    0.3135 C   0  0  0  0  0  0  0  0  0  0  0  0
  -87.4453   30.6212   -0.6027 S   0  0  0  0  0  0  0  0  0  0  0  0
  -88.2758   32.9800   -1.9642 C   0  0  0  0  0  0  0  0  0  0  0  0
  -89.4768   33.0545   -1.6110 N   0  0  0  0  0  0  0  0  0  0  0  0
  -89.8092   32.6056   -0.7348 H   0  0  0  0  0  0  0  0  0  0  0  0
  -87.3442   34.9282   -3.1368 C   0  0  0  0  0  0  0  0  0  0  0  0
  -87.8413   33.5789   -3.1296 O   0  0  0  0  0  0  0  0  0  0  0  0
  -87.1639   27.9224    0.6191 N   0  0  0  0  0  0  0  0  0  0  0  0
  -87.4839   28.0985   -0.3245 H   0  0  0  0  0  0  0  0  0  0  0  0
  -88.1287   27.2382    1.4428 C   0  0  0  0  0  0  0  0  0  0  0  0
  -88.6432   26.0089    1.0063 C   0  0  0  0  0  0  0  0  0  0  0  0
  -89.5359   25.2774    1.7506 C   0  0  0  0  0  0  0  0  0  0  0  0
  -89.9623   25.7359    2.9717 C   0  0  0  0  0  0  0  0  0  0  0  0
  -89.4639   26.9369    3.4068 C   0  0  0  0  0  0  0  0  0  0  0  0
  -88.5567   27.6840    2.6557 C   0  0  0  0  0  0  0  0  0  0  0  0
  -90.8677   24.9845    3.7154 O   0  0  0  0  0  0  0  0  0  0  0  0
  -91.0413   23.6089    3.4318 C   0  0  0  0  0  0  0  0  0  0  0  0
 17 18  1  0  0  0
 18 14  1  0  0  0
 14 15  2  0  0  0
 14  1  1  0  0  0
  1  2  2  0  0  0
  2  3  1  0  0  0
  3  4  2  0  0  0
  4  5  1  0  0  0
  5  6  2  0  0  0
  6  7  1  0  0  0
  7  8  2  0  0  0
  8  9  1  0  0  0
  9 10  2  0  0  0
 10 19  1  0  0  0
 19 21  1  0  0  0
 21 22  2  0  0  0
 22 23  1  0  0  0
 23 24  2  0  0  0
 24 27  1  0  0  0
 27 28  1  0  0  0
 24 25  1  0  0  0
 25 26  2  0  0  0
 10 11  1  0  0  0
 11 12  2  0  0  0
 12 13  1  0  0  0
 13  1  1  0  0  0
 12  3  1  0  0  0
 11  6  1  0  0  0
 26 21  1  0  0  0
 15 16  1  0  0  0
 19 20  1  0  0  0
M  END
> <minimizedAffinity>
-8.02979

> <CNNscore>
0.3936562836

> <CNNaffinity>
6.7476816177

> <CNN_VS>
2.6562671661

> <CNNaffinity_variance>
0.2130980194

$$$$
[H]N=C(OC([H])([H])[H])c1nc2c([H])c([H])c3nc([H])nc(N([H])c4c([H])c([H])c(OC([H])([H])[H])c([H])c4[H])c3c2s1


 28 31  0  0  0  0  0  0  0  0999 V2000
  -87.4602   27.4446    2.3607 C   0  0  0  0  0  0  0  0  0  0  0  0
  -86.1657   27.4475    2.5261 N   0  0  0  0  0  0  0  0  0  0  0  0
  -85.4346   28.4036    2.0203 C   0  0  0  0  0  0  0  0  0  0  0  0
  -84.0374   28.5319    2.1281 C   0  0  0  0  0  0  0  0  0  0  0  0
  -83.4051   29.5935    1.5505 C   0  0  0  0  0  0  0  0  0  0  0  0
  -84.0556   30.5988    0.8352 C   0  0  0  0  0  0  0  0  0  0  0  0
  -83.3722   31.6121    0.3029 N   0  0  0  0  0  0  0  0  0  0  0  0
  -84.0870   32.5319   -0.3595 C   0  0  0  0  0  0  0  0  0  0  0  0
  -85.4088   32.4226   -0.4703 N   0  0  0  0  0  0  0  0  0  0  0  0
  -86.1524   31.4000    0.0591 C   0  0  0  0  0  0  0  0  0  0  0  0
  -85.4217   30.4534    0.7414 C   0  0  0  0  0  0  0  0  0  0  0  0
  -86.0865   29.3877    1.3179 C   0  0  0  0  0  0  0  0  0  0  0  0
  -87.7052   28.8556    1.4433 S   0  0  0  0  0  0  0  0  0  0  0  0
  -88.4924   26.4932    2.8241 C   0  0  0  0  0  0  0  0  0  0  0  0
  -88.6490   25.4136    2.2055 N   0  0  0  0  0  0  0  0  0  0  0  0
  -88.0679   25.1788    1.3768 H   0  0  0  0  0  0  0  0  0  0  0  0
  -90.4709   27.5768    3.7988 C   0  0  0  0  0  0  0  0  0  0  0  0
  -89.2682   26.7986    3.9244 O   0  0  0  0  0  0  0  0  0  0  0  0
  -87.5228   31.3507   -0.1681 N   0  0  0  0  0  0  0  0  0  0  0  0
  -88.2150   31.9846    0.2098 H   0  0  0  0  0  0  0  0  0  0  0  0
  -88.0771   30.3113   -0.9986 C   0  0  0  0  0  0  0  0  0  0  0  0
  -89.4331   29.9823   -0.8593 C   0  0  0  0  0  0  0  0  0  0  0  0
  -90.0448   29.0314   -1.6390 C   0  0  0  0  0  0  0  0  0  0  0  0
  -89.3333   28.3584   -2.6001 C   0  0  0  0  0  0  0  0  0  0  0  0
  -88.0066   28.6741   -2.7437 C   0  0  0  0  0  0  0  0  0  0  0  0
  -87.3801   29.6390   -1.9553 C   0  0  0  0  0  0  0  0  0  0  0  0
  -89.9657   27.3968   -3.3829 O   0  0  0  0  0  0  0  0  0  0  0  0
  -90.4135   26.1912   -2.7921 C   0  0  0  0  0  0  0  0  0  0  0  0
 17 18  1  0  0  0
 18 14  1  0  0  0
 14 15  2  0  0  0
 14  1  1  0  0  0
  1  2  2  0  0  0
  2  3  1  0  0  0
  3  4  2  0  0  0
  4  5  1  0  0  0
  5  6  2  0  0  0
  6  7  1  0  0  0
  7  8  2  0  0  0
  8  9  1  0  0  0
  9 10  2  0  0  0
 10 19  1  0  0  0
 19 21  1  0  0  0
 21 22  2  0  0  0
 22 23  1  0  0  0
 23 24  2  0  0  0
 24 27  1  0  0  0
 27 28  1  0  0  0
 24 25  1  0  0  0
 25 26  2  0  0  0
 10 11  1  0  0  0
 11 12  2  0  0  0
 12 13  1  0  0  0
 13  1  1  0  0  0
 12  3  1  0  0  0
 11  6  1  0  0  0
 26 21  1  0  0  0
 15 16  1  0  0  0
 19 20  1  0  0  0
M  END
> <minimizedAffinity>
-7.40538

> <CNNscore>
0.3183543682

> <CNNaffinity>
6.6018486023

> <CNN_VS>
2.1017272472

> <CNNaffinity_variance>
0.1805805862

$$$$
[H]N=C(OC([H])([H])[H])c1nc2c([H])c([H])c3nc([H])nc(N([H])c4c([H])c([H])c(OC([H])([H])[H])c([H])c4[H])c3c2s1


 28 31  0  0  0  0  0  0  0  0999 V2000
  -87.7616   26.8574    1.4649 C   0  0  0  0  0  0  0  0  0  0  0  0
  -86.5578   26.6732    1.9339 N   0  0  0  0  0  0  0  0  0  0  0  0
  -85.6643   27.6222    1.8582 C   0  0  0  0  0  0  0  0  0  0  0  0
  -84.3389   27.5600    2.3271 C   0  0  0  0  0  0  0  0  0  0  0  0
  -83.5155   28.6380    2.1846 C   0  0  0  0  0  0  0  0  0  0  0  0
  -83.8952   29.8410    1.5896 C   0  0  0  0  0  0  0  0  0  0  0  0
  -83.0372   30.8566    1.4908 N   0  0  0  0  0  0  0  0  0  0  0  0
  -83.4977   31.9730    0.9100 C   0  0  0  0  0  0  0  0  0  0  0  0
  -84.7485   32.0454    0.4610 N   0  0  0  0  0  0  0  0  0  0  0  0
  -85.6642   31.0285    0.5403 C   0  0  0  0  0  0  0  0  0  0  0  0
  -85.1952   29.8800    1.1374 C   0  0  0  0  0  0  0  0  0  0  0  0
  -86.0499   28.8020    1.2700 C   0  0  0  0  0  0  0  0  0  0  0  0
  -87.6736   28.4491    0.8726 S   0  0  0  0  0  0  0  0  0  0  0  0
  -88.9337   25.9573    1.4292 C   0  0  0  0  0  0  0  0  0  0  0  0
  -89.1761   25.2311    2.4225 N   0  0  0  0  0  0  0  0  0  0  0  0
  -88.5691   25.2521    3.2657 H   0  0  0  0  0  0  0  0  0  0  0  0
  -89.2456   25.4801   -0.9611 C   0  0  0  0  0  0  0  0  0  0  0  0
  -89.7445   25.9241    0.3124 O   0  0  0  0  0  0  0  0  0  0  0  0
  -86.9277   31.1895   -0.0161 N   0  0  0  0  0  0  0  0  0  0  0  0
  -87.7913   30.7985    0.3376 H   0  0  0  0  0  0  0  0  0  0  0  0
  -87.0893   31.9616   -1.2223 C   0  0  0  0  0  0  0  0  0  0  0  0
  -87.4996   31.3107   -2.3947 C   0  0  0  0  0  0  0  0  0  0  0  0
  -87.7132   31.9814   -3.5740 C   0  0  0  0  0  0  0  0  0  0  0  0
  -87.5279   33.3393   -3.6444 C   0  0  0  0  0  0  0  0  0  0  0  0
  -87.1273   33.9841   -2.5025 C   0  0  0  0  0  0  0  0  0  0  0  0
  -86.9093   33.3085   -1.3019 C   0  0  0  0  0  0  0  0  0  0  0  0
  -87.7475   34.0062   -4.8462 O   0  0  0  0  0  0  0  0  0  0  0  0
  -87.5622   35.4075   -4.9178 C   0  0  0  0  0  0  0  0  0  0  0  0
 17 18  1  0  0  0
 18 14  1  0  0  0
 14 15  2  0  0  0
 14  1  1  0  0  0
  1  2  2  0  0  0
  2  3  1  0  0  0
  3  4  2  0  0  0
  4  5  1  0  0  0
  5  6  2  0  0  0
  6  7  1  0  0  0
  7  8  2  0  0  0
  8  9  1  0  0  0
  9 10  2  0  0  0
 10 19  1  0  0  0
 19 21  1  0  0  0
 21 22  2  0  0  0
 22 23  1  0  0  0
 23 24  2  0  0  0
 24 27  1  0  0  0
 27 28  1  0  0  0
 24 25  1  0  0  0
 25 26  2  0  0  0
 10 11  1  0  0  0
 11 12  2  0  0  0
 12 13  1  0  0  0
 13  1  1  0  0  0
 12  3  1  0  0  0
 11  6  1  0  0  0
 26 21  1  0  0  0
 15 16  1  0  0  0
 19 20  1  0  0  0
M  END
> <minimizedAffinity>
-8.49193

> <CNNscore>
0.3067092896

> <CNNaffinity>
6.6937379837

> <CNN_VS>
2.0530316830

> <CNNaffinity_variance>
0.3010920584

$$$$
[H]N=C(OC([H])([H])[H])c1nc2c([H])c([H])c3nc([H])nc(N([H])c4c([H])c([H])c(OC([H])([H])[H])c([H])c4[H])c3c2s1


 28 31  0  0  0  0  0  0  0  0999 V2000
  -84.9543   31.5187    0.3799 C   0  0  0  0  0  0  0  0  0  0  0  0
  -85.5778   32.5279   -0.1640 N   0  0  0  0  0  0  0  0  0  0  0  0
  -86.7534   32.3657   -0.7083 C   0  0  0  0  0  0  0  0  0  0  0  0
  -87.5346   33.3635   -1.3202 C   0  0  0  0  0  0  0  0  0  0  0  0
  -88.7540   33.0475   -1.8434 C   0  0  0  0  0  0  0  0  0  0  0  0
  -89.3091   31.7682   -1.8201 C   0  0  0  0  0  0  0  0  0  0  0  0
  -90.5116   31.5341   -2.3459 N   0  0  0  0  0  0  0  0  0  0  0  0
  -90.9623   30.2745   -2.2684 C   0  0  0  0  0  0  0  0  0  0  0  0
  -90.2336   29.3206   -1.6936 N   0  0  0  0  0  0  0  0  0  0  0  0
  -88.9942   29.5142   -1.1410 C   0  0  0  0  0  0  0  0  0  0  0  0
  -88.5281   30.8074   -1.2177 C   0  0  0  0  0  0  0  0  0  0  0  0
  -87.2895   31.1015   -0.6794 C   0  0  0  0  0  0  0  0  0  0  0  0
  -86.0539   30.2452    0.1323 S   0  0  0  0  0  0  0  0  0  0  0  0
  -83.6383   31.4417    1.0489 C   0  0  0  0  0  0  0  0  0  0  0  0
  -82.7109   32.1906    0.6593 N   0  0  0  0  0  0  0  0  0  0  0  0
  -82.8522   32.8607   -0.1222 H   0  0  0  0  0  0  0  0  0  0  0  0
  -82.7108   29.3309    1.8991 C   0  0  0  0  0  0  0  0  0  0  0  0
  -83.4433   30.5539    2.0879 O   0  0  0  0  0  0  0  0  0  0  0  0
  -88.2921   28.4340   -0.6194 N   0  0  0  0  0  0  0  0  0  0  0  0
  -87.4952   27.9773   -1.0439 H   0  0  0  0  0  0  0  0  0  0  0  0
  -88.6977   27.8505    0.6345 C   0  0  0  0  0  0  0  0  0  0  0  0
  -87.8738   26.8858    1.2321 C   0  0  0  0  0  0  0  0  0  0  0  0
  -88.1706   26.3113    2.4437 C   0  0  0  0  0  0  0  0  0  0  0  0
  -89.3074   26.6707    3.1231 C   0  0  0  0  0  0  0  0  0  0  0  0
  -90.1187   27.6138    2.5464 C   0  0  0  0  0  0  0  0  0  0  0  0
  -89.8224   28.2010    1.3166 C   0  0  0  0  0  0  0  0  0  0  0  0
  -89.5961   26.0800    4.3499 O   0  0  0  0  0  0  0  0  0  0  0  0
  -90.0412   26.8801    5.4291 C   0  0  0  0  0  0  0  0  0  0  0  0
 17 18  1  0  0  0
 18 14  1  0  0  0
 14 15  2  0  0  0
 14  1  1  0  0  0
  1  2  2  0  0  0
  2  3  1  0  0  0
  3  4  2  0  0  0
  4  5  1  0  0  0
  5  6  2  0  0  0
  6  7  1  0  0  0
  7  8  2  0  0  0
  8  9  1  0  0  0
  9 10  2  0  0  0
 10 19  1  0  0  0
 19 21  1  0  0  0
 21 22  2  0  0  0
 22 23  1  0  0  0
 23 24  2  0  0  0
 24 27  1  0  0  0
 27 28  1  0  0  0
 24 25  1  0  0  0
 25 26  2  0  0  0
 10 11  1  0  0  0
 11 12  2  0  0  0
 12 13  1  0  0  0
 13  1  1  0  0  0
 12  3  1  0  0  0
 11  6  1  0  0  0
 26 21  1  0  0  0
 15 16  1  0  0  0
 19 20  1  0  0  0
M  END
> <minimizedAffinity>
-7.73391

> <CNNscore>
0.2616571784

> <CNNaffinity>
6.5759825706

> <CNN_VS>
1.7206530571

> <CNNaffinity_variance>
0.0316948667

$$$$
[H]N=C(OC([H])([H])[H])c1nc2c([H])c([H])c3nc([H])nc(N([H])c4c([H])c([H])c(OC([H])([H])[H])c([H])c4[H])c3c2s1


 28 31  0  0  0  0  0  0  0  0999 V2000
  -87.2840   27.6605    0.7441 C   0  0  0  0  0  0  0  0  0  0  0  0
  -86.4787   28.4711    1.3746 N   0  0  0  0  0  0  0  0  0  0  0  0
  -86.2333   29.6630    0.9015 C   0  0  0  0  0  0  0  0  0  0  0  0
  -85.3955   30.6344    1.4800 C   0  0  0  0  0  0  0  0  0  0  0  0
  -85.2383   31.8458    0.8733 C   0  0  0  0  0  0  0  0  0  0  0  0
  -85.8638   32.2126   -0.3181 C   0  0  0  0  0  0  0  0  0  0  0  0
  -85.6684   33.4191   -0.8507 N   0  0  0  0  0  0  0  0  0  0  0  0
  -86.3189   33.6802   -1.9929 C   0  0  0  0  0  0  0  0  0  0  0  0
  -87.1135   32.7705   -2.5517 N   0  0  0  0  0  0  0  0  0  0  0  0
  -87.3439   31.5193   -2.0414 C   0  0  0  0  0  0  0  0  0  0  0  0
  -86.6781   31.2476   -0.8673 C   0  0  0  0  0  0  0  0  0  0  0  0
  -86.8549   30.0127   -0.2724 C   0  0  0  0  0  0  0  0  0  0  0  0
  -87.7461   28.5926   -0.6013 S   0  0  0  0  0  0  0  0  0  0  0  0
  -87.7176   26.2843    1.0655 C   0  0  0  0  0  0  0  0  0  0  0  0
  -87.7126   25.4159    0.1607 N   0  0  0  0  0  0  0  0  0  0  0  0
  -87.4102   25.6475   -0.8061 H   0  0  0  0  0  0  0  0  0  0  0  0
  -89.3485   26.4826    2.8929 C   0  0  0  0  0  0  0  0  0  0  0  0
  -88.1208   25.9695    2.3477 O   0  0  0  0  0  0  0  0  0  0  0  0
  -88.1460   30.6238   -2.7390 N   0  0  0  0  0  0  0  0  0  0  0  0
  -87.9119   29.6674   -2.9722 H   0  0  0  0  0  0  0  0  0  0  0  0
  -89.4397   31.0401   -3.2189 C   0  0  0  0  0  0  0  0  0  0  0  0
  -90.5789   30.7127   -2.4696 C   0  0  0  0  0  0  0  0  0  0  0  0
  -91.8420   31.1055   -2.8389 C   0  0  0  0  0  0  0  0  0  0  0  0
  -92.0339   31.8469   -3.9776 C   0  0  0  0  0  0  0  0  0  0  0  0
  -90.9254   32.1722   -4.7162 C   0  0  0  0  0  0  0  0  0  0  0  0
  -89.6402   31.7767   -4.3460 C   0  0  0  0  0  0  0  0  0  0  0  0
  -93.3196   32.2378   -4.3403 O   0  0  0  0  0  0  0  0  0  0  0  0
  -94.0490   31.4725   -5.2812 C   0  0  0  0  0  0  0  0  0  0  0  0
 17 18  1  0  0  0
 18 14  1  0  0  0
 14 15  2  0  0  0
 14  1  1  0  0  0
  1  2  2  0  0  0
  2  3  1  0  0  0
  3  4  2  0  0  0
  4  5  1  0  0  0
  5  6  2  0  0  0
  6  7  1  0  0  0
  7  8  2  0  0  0
  8  9  1  0  0  0
  9 10  2  0  0  0
 10 19  1  0  0  0
 19 21  1  0  0  0
 21 22  2  0  0  0
 22 23  1  0  0  0
 23 24  2  0  0  0
 24 27  1  0  0  0
 27 28  1  0  0  0
 24 25  1  0  0  0
 25 26  2  0  0  0
 10 11  1  0  0  0
 11 12  2  0  0  0
 12 13  1  0  0  0
 13  1  1  0  0  0
 12  3  1  0  0  0
 11  6  1  0  0  0
 26 21  1  0  0  0
 15 16  1  0  0  0
 19 20  1  0  0  0
M  END
> <minimizedAffinity>
-6.74784

> <CNNscore>
0.1808060259

> <CNNaffinity>
6.1529722214

> <CNN_VS>
1.1124944687

> <CNNaffinity_variance>
0.4909588695

$$$$
[H]N=C(OC([H])([H])[H])c1nc2c([H])c([H])c3nc([H])nc(N([H])c4c([H])c([H])c(OC([H])([H])[H])c([H])c4[H])c3c2s1


 28 31  0  0  0  0  0  0  0  0999 V2000
  -90.4439   22.4385   -0.5166 C   0  0  0  0  0  0  0  0  0  0  0  0
  -91.6467   22.3020   -1.0042 N   0  0  0  0  0  0  0  0  0  0  0  0
  -92.1381   23.1975   -1.8174 C   0  0  0  0  0  0  0  0  0  0  0  0
  -93.4106   23.1709   -2.4177 C   0  0  0  0  0  0  0  0  0  0  0  0
  -93.7884   24.1779   -3.2565 C   0  0  0  0  0  0  0  0  0  0  0  0
  -92.9858   25.2721   -3.5787 C   0  0  0  0  0  0  0  0  0  0  0  0
  -93.4194   26.2170   -4.4132 N   0  0  0  0  0  0  0  0  0  0  0  0
  -92.5728   27.2244   -4.6665 C   0  0  0  0  0  0  0  0  0  0  0  0
  -91.3667   27.2630   -4.1048 N   0  0  0  0  0  0  0  0  0  0  0  0
  -90.8791   26.3159   -3.2421 C   0  0  0  0  0  0  0  0  0  0  0  0
  -91.7457   25.2786   -2.9803 C   0  0  0  0  0  0  0  0  0  0  0  0
  -91.3384   24.2704   -2.1271 C   0  0  0  0  0  0  0  0  0  0  0  0
  -89.9384   23.9021   -1.2198 S   0  0  0  0  0  0  0  0  0  0  0  0
  -89.6718   21.5807    0.4072 C   0  0  0  0  0  0  0  0  0  0  0  0
  -88.4672   21.3408    0.1542 N   0  0  0  0  0  0  0  0  0  0  0  0
  -88.0059   21.7332   -0.6902 H   0  0  0  0  0  0  0  0  0  0  0  0
  -89.5744   20.1650    2.4134 C   0  0  0  0  0  0  0  0  0  0  0  0
  -90.2782   21.0559    1.5309 O   0  0  0  0  0  0  0  0  0  0  0  0
  -89.6264   26.4851   -2.6642 N   0  0  0  0  0  0  0  0  0  0  0  0
  -88.8807   25.8015   -2.6418 H   0  0  0  0  0  0  0  0  0  0  0  0
  -89.3010   27.7235   -2.0025 C   0  0  0  0  0  0  0  0  0  0  0  0
  -88.2950   28.5375   -2.5427 C   0  0  0  0  0  0  0  0  0  0  0  0
  -87.9532   29.7491   -1.9938 C   0  0  0  0  0  0  0  0  0  0  0  0
  -88.5990   30.2119   -0.8749 C   0  0  0  0  0  0  0  0  0  0  0  0
  -89.5845   29.4226   -0.3402 C   0  0  0  0  0  0  0  0  0  0  0  0
  -89.9364   28.1916   -0.8934 C   0  0  0  0  0  0  0  0  0  0  0  0
  -88.2420   31.4414   -0.3288 O   0  0  0  0  0  0  0  0  0  0  0  0
  -88.8291   32.6295   -0.8254 C   0  0  0  0  0  0  0  0  0  0  0  0
 17 18  1  0  0  0
 18 14  1  0  0  0
 14 15  2  0  0  0
 14  1  1  0  0  0
  1  2  2  0  0  0
  2  3  1  0  0  0
  3  4  2  0  0  0
  4  5  1  0  0  0
  5  6  2  0  0  0
  6  7  1  0  0  0
  7  8  2  0  0  0
  8  9  1  0  0  0
  9 10  2  0  0  0
 10 19  1  0  0  0
 19 21  1  0  0  0
 21 22  2  0  0  0
 22 23  1  0  0  0
 23 24  2  0  0  0
 24 27  1  0  0  0
 27 28  1  0  0  0
 24 25  1  0  0  0
 25 26  2  0  0  0
 10 11  1  0  0  0
 11 12  2  0  0  0
 12 13  1  0  0  0
 13  1  1  0  0  0
 12  3  1  0  0  0
 11  6  1  0  0  0
 26 21  1  0  0  0
 15 16  1  0  0  0
 19 20  1  0  0  0
M  END
> <minimizedAffinity>
-6.89988

> <CNNscore>
0.1438875645

> <CNNaffinity>
5.2326803207

> <CNN_VS>
0.7529176474

> <CNNaffinity_variance>
0.4429892898

$$$$
[H]N=C(OC([H])([H])c1c([H])c([H])c([H])c([H])c1[H])c1nc2c([H])c([H])c3nc([H])nc(N([H])c4c([H])c([H])c5c(c4[H])OC([H])([H])O5)c3c2s1


 35 40  0  0  0  0  0  0  0  0999 V2000
  -86.1220   32.5909   -1.2156 C   0  0  0  0  0  0  0  0  0  0  0  0
  -84.9167   32.7612   -0.7224 N   0  0  0  0  0  0  0  0  0  0  0  0
  -84.3786   31.8434    0.0231 C   0  0  0  0  0  0  0  0  0  0  0  0
  -83.1040   31.9068    0.6133 C   0  0  0  0  0  0  0  0  0  0  0  0
  -82.6331   30.8907    1.3848 C   0  0  0  0  0  0  0  0  0  0  0  0
  -83.3613   29.7665    1.6266 C   0  0  0  0  0  0  0  0  0  0  0  0
  -82.9115   28.7744    2.3838 N   0  0  0  0  0  0  0  0  0  0  0  0
  -83.6802   27.6646    2.6064 C   0  0  0  0  0  0  0  0  0  0  0  0
  -84.8794   27.5988    2.0527 N   0  0  0  0  0  0  0  0  0  0  0  0
  -85.4241   28.5663    1.2619 C   0  0  0  0  0  0  0  0  0  0  0  0
  -84.6311   29.6688    1.0563 C   0  0  0  0  0  0  0  0  0  0  0  0
  -85.1116   30.7068    0.2690 C   0  0  0  0  0  0  0  0  0  0  0  0
  -86.5339   31.0585   -0.6047 S   0  0  0  0  0  0  0  0  0  0  0  0
  -86.3106   34.0563   -3.0415 N   0  0  0  0  0  0  0  0  0  0  0  0
  -86.9151   33.4938   -2.0786 C   0  0  0  0  0  0  0  0  0  0  0  0
  -86.8356   34.6981   -3.6705 H   0  0  0  0  0  0  0  0  0  0  0  0
  -88.2458   33.7199   -1.8574 O   0  0  0  0  0  0  0  0  0  0  0  0
  -89.2775   33.1047   -2.6134 C   0  0  0  0  0  0  0  0  0  0  0  0
  -89.5313   31.7227   -2.1819 C   0  0  0  0  0  0  0  0  0  0  0  0
  -89.9801   31.4811   -0.9065 C   0  0  0  0  0  0  0  0  0  0  0  0
  -90.2327   30.1889   -0.4562 C   0  0  0  0  0  0  0  0  0  0  0  0
  -90.0189   29.1407   -1.3329 C   0  0  0  0  0  0  0  0  0  0  0  0
  -89.5702   29.3490   -2.6157 C   0  0  0  0  0  0  0  0  0  0  0  0
  -89.3290   30.6613   -3.0277 C   0  0  0  0  0  0  0  0  0  0  0  0
  -86.6812   28.3871    0.6658 N   0  0  0  0  0  0  0  0  0  0  0  0
  -86.9643   28.7746   -0.2143 H   0  0  0  0  0  0  0  0  0  0  0  0
  -87.6688   27.5853    1.3053 C   0  0  0  0  0  0  0  0  0  0  0  0
  -88.1409   26.4553    0.7053 C   0  0  0  0  0  0  0  0  0  0  0  0
  -89.1334   25.6819    1.3157 C   0  0  0  0  0  0  0  0  0  0  0  0
  -89.6582   26.0261    2.5207 C   0  0  0  0  0  0  0  0  0  0  0  0
  -90.6288   25.4167    3.2897 O   0  0  0  0  0  0  0  0  0  0  0  0
  -90.7125   26.1330    4.5017 C   0  0  0  0  0  0  0  0  0  0  0  0
  -89.8881   27.2697    4.3304 O   0  0  0  0  0  0  0  0  0  0  0  0
  -89.1838   27.1722    3.1387 C   0  0  0  0  0  0  0  0  0  0  0  0
  -88.2035   27.9360    2.5344 C   0  0  0  0  0  0  0  0  0  0  0  0
 14 15  2  0  0  0
 15 17  1  0  0  0
 17 18  1  0  0  0
 18 19  1  0  0  0
 19 20  2  0  0  0
 20 21  1  0  0  0
 21 22  2  0  0  0
 22 23  1  0  0  0
 23 24  2  0  0  0
 15  1  1  0  0  0
  1  2  2  0  0  0
  2  3  1  0  0  0
  3  4  2  0  0  0
  4  5  1  0  0  0
  5  6  2  0  0  0
  6  7  1  0  0  0
  7  8  2  0  0  0
  8  9  1  0  0  0
  9 10  2  0  0  0
 10 25  1  0  0  0
 25 27  1  0  0  0
 27 28  2  0  0  0
 28 29  1  0  0  0
 29 30  2  0  0  0
 30 31  1  0  0  0
 31 32  1  0  0  0
 32 33  1  0  0  0
 33 34  1  0  0  0
 34 35  2  0  0  0
 10 11  1  0  0  0
 11 12  2  0  0  0
 12 13  1  0  0  0
 24 19  1  0  0  0
 13  1  1  0  0  0
 12  3  1  0  0  0
 11  6  1  0  0  0
 35 27  1  0  0  0
 34 30  1  0  0  0
 14 16  1  0  0  0
 25 26  1  0  0  0
M  END
> <minimizedAffinity>
-9.55678

> <CNNscore>
0.9063119292

> <CNNaffinity>
7.7516241074

> <CNN_VS>
7.0253891945

> <CNNaffinity_variance>
0.2077890635

$$$$
[H]N=C(OC([H])([H])c1c([H])c([H])c([H])c([H])c1[H])c1nc2c([H])c([H])c3nc([H])nc(N([H])c4c([H])c([H])c5c(c4[H])OC([H])([H])O5)c3c2s1


 35 40  0  0  0  0  0  0  0  0999 V2000
  -86.3450   27.9599    1.2613 C   0  0  0  0  0  0  0  0  0  0  0  0
  -85.0921   28.2571    1.5199 N   0  0  0  0  0  0  0  0  0  0  0  0
  -84.6001   29.4004    1.1475 C   0  0  0  0  0  0  0  0  0  0  0  0
  -83.2795   29.8345    1.3578 C   0  0  0  0  0  0  0  0  0  0  0  0
  -82.8599   31.0524    0.9219 C   0  0  0  0  0  0  0  0  0  0  0  0
  -83.6862   31.9112    0.2644 C   0  0  0  0  0  0  0  0  0  0  0  0
  -83.2822   33.0979   -0.1700 N   0  0  0  0  0  0  0  0  0  0  0  0
  -84.1450   33.9275   -0.8330 C   0  0  0  0  0  0  0  0  0  0  0  0
  -85.3888   33.5250   -1.0325 N   0  0  0  0  0  0  0  0  0  0  0  0
  -85.8926   32.3263   -0.6233 C   0  0  0  0  0  0  0  0  0  0  0  0
  -85.0045   31.5139    0.0384 C   0  0  0  0  0  0  0  0  0  0  0  0
  -85.4323   30.2700    0.4833 C   0  0  0  0  0  0  0  0  0  0  0  0
  -86.8731   29.3572    0.4492 S   0  0  0  0  0  0  0  0  0  0  0  0
  -86.5860   25.9421    2.4392 N   0  0  0  0  0  0  0  0  0  0  0  0
  -87.1017   26.7320    1.5911 C   0  0  0  0  0  0  0  0  0  0  0  0
  -87.0892   25.0682    2.6968 H   0  0  0  0  0  0  0  0  0  0  0  0
  -88.3083   26.4497    1.0122 O   0  0  0  0  0  0  0  0  0  0  0  0
  -89.3464   25.7462    1.6768 C   0  0  0  0  0  0  0  0  0  0  0  0
  -89.6136   26.2889    3.0164 C   0  0  0  0  0  0  0  0  0  0  0  0
  -89.9523   27.6124    3.1577 C   0  0  0  0  0  0  0  0  0  0  0  0
  -90.2131   28.1679    4.4067 C   0  0  0  0  0  0  0  0  0  0  0  0
  -90.1224   27.3466    5.5159 C   0  0  0  0  0  0  0  0  0  0  0  0
  -89.7859   26.0179    5.4082 C   0  0  0  0  0  0  0  0  0  0  0  0
  -89.5321   25.5003    4.1364 C   0  0  0  0  0  0  0  0  0  0  0  0
  -87.2432   32.0052   -0.8249 N   0  0  0  0  0  0  0  0  0  0  0  0
  -87.8498   31.5994   -0.1378 H   0  0  0  0  0  0  0  0  0  0  0  0
  -87.8627   32.2716   -2.0789 C   0  0  0  0  0  0  0  0  0  0  0  0
  -87.6137   31.4772   -3.1591 C   0  0  0  0  0  0  0  0  0  0  0  0
  -88.1955   31.7538   -4.4004 C   0  0  0  0  0  0  0  0  0  0  0  0
  -89.0249   32.8159   -4.5727 C   0  0  0  0  0  0  0  0  0  0  0  0
  -89.6957   33.2650   -5.6922 O   0  0  0  0  0  0  0  0  0  0  0  0
  -90.5065   34.3458   -5.2880 C   0  0  0  0  0  0  0  0  0  0  0  0
  -90.1469   34.6111   -3.9459 O   0  0  0  0  0  0  0  0  0  0  0  0
  -89.2849   33.6282   -3.4804 C   0  0  0  0  0  0  0  0  0  0  0  0
  -88.7090   33.3544   -2.2544 C   0  0  0  0  0  0  0  0  0  0  0  0
 14 15  2  0  0  0
 15 17  1  0  0  0
 17 18  1  0  0  0
 18 19  1  0  0  0
 19 20  2  0  0  0
 20 21  1  0  0  0
 21 22  2  0  0  0
 22 23  1  0  0  0
 23 24  2  0  0  0
 15  1  1  0  0  0
  1  2  2  0  0  0
  2  3  1  0  0  0
  3  4  2  0  0  0
  4  5  1  0  0  0
  5  6  2  0  0  0
  6  7  1  0  0  0
  7  8  2  0  0  0
  8  9  1  0  0  0
  9 10  2  0  0  0
 10 25  1  0  0  0
 25 27  1  0  0  0
 27 28  2  0  0  0
 28 29  1  0  0  0
 29 30  2  0  0  0
 30 31  1  0  0  0
 31 32  1  0  0  0
 32 33  1  0  0  0
 33 34  1  0  0  0
 34 35  2  0  0  0
 10 11  1  0  0  0
 11 12  2  0  0  0
 12 13  1  0  0  0
 24 19  1  0  0  0
 13  1  1  0  0  0
 12  3  1  0  0  0
 11  6  1  0  0  0
 35 27  1  0  0  0
 34 30  1  0  0  0
 14 16  1  0  0  0
 25 26  1  0  0  0
M  END
> <minimizedAffinity>
-9.37628

> <CNNscore>
0.7771382332

> <CNNaffinity>
7.6112089157

> <CNN_VS>
5.9149613380

> <CNNaffinity_variance>
0.2271325886

$$$$
[H]N=C(OC([H])([H])c1c([H])c([H])c([H])c([H])c1[H])c1nc2c([H])c([H])c3nc([H])nc(N([H])c4c([H])c([H])c5c(c4[H])OC([H])([H])O5)c3c2s1


 35 40  0  0  0  0  0  0  0  0999 V2000
  -86.2497   33.2857   -1.7354 C   0  0  0  0  0  0  0  0  0  0  0  0
  -84.9824   33.3597   -1.3986 N   0  0  0  0  0  0  0  0  0  0  0  0
  -84.4671   32.4817   -0.5916 C   0  0  0  0  0  0  0  0  0  0  0  0
  -83.1321   32.4536   -0.1514 C   0  0  0  0  0  0  0  0  0  0  0  0
  -82.6912   31.4910    0.7020 C   0  0  0  0  0  0  0  0  0  0  0  0
  -83.5088   30.5102    1.1732 C   0  0  0  0  0  0  0  0  0  0  0  0
  -83.0878   29.5719    2.0113 N   0  0  0  0  0  0  0  0  0  0  0  0
  -83.9460   28.6081    2.4658 C   0  0  0  0  0  0  0  0  0  0  0  0
  -85.2026   28.6285    2.0541 N   0  0  0  0  0  0  0  0  0  0  0  0
  -85.7240   29.5506    1.1961 C   0  0  0  0  0  0  0  0  0  0  0  0
  -84.8407   30.5062    0.7569 C   0  0  0  0  0  0  0  0  0  0  0  0
  -85.2904   31.4897   -0.1141 C   0  0  0  0  0  0  0  0  0  0  0  0
  -86.7578   31.9093   -0.8763 S   0  0  0  0  0  0  0  0  0  0  0  0
  -86.4225   34.6846   -3.6144 N   0  0  0  0  0  0  0  0  0  0  0  0
  -87.0323   34.1673   -2.6296 C   0  0  0  0  0  0  0  0  0  0  0  0
  -86.9401   35.3100   -4.2657 H   0  0  0  0  0  0  0  0  0  0  0  0
  -88.3589   34.4209   -2.4138 O   0  0  0  0  0  0  0  0  0  0  0  0
  -89.3953   33.9010   -3.2321 C   0  0  0  0  0  0  0  0  0  0  0  0
  -89.8032   34.8493   -4.2784 C   0  0  0  0  0  0  0  0  0  0  0  0
  -89.5397   34.5621   -5.5954 C   0  0  0  0  0  0  0  0  0  0  0  0
  -89.9076   35.4314   -6.6179 C   0  0  0  0  0  0  0  0  0  0  0  0
  -90.5526   36.6054   -6.2734 C   0  0  0  0  0  0  0  0  0  0  0  0
  -90.8311   36.9221   -4.9647 C   0  0  0  0  0  0  0  0  0  0  0  0
  -90.4448   36.0222   -3.9693 C   0  0  0  0  0  0  0  0  0  0  0  0
  -87.0559   29.4616    0.7646 N   0  0  0  0  0  0  0  0  0  0  0  0
  -87.6588   30.2421    0.5851 H   0  0  0  0  0  0  0  0  0  0  0  0
  -87.6477   28.1887    0.5269 C   0  0  0  0  0  0  0  0  0  0  0  0
  -87.3721   27.4973   -0.6158 C   0  0  0  0  0  0  0  0  0  0  0  0
  -87.9755   26.2611   -0.8678 C   0  0  0  0  0  0  0  0  0  0  0  0
  -88.8510   25.7082    0.0118 C   0  0  0  0  0  0  0  0  0  0  0  0
  -89.5496   24.5188   -0.0370 O   0  0  0  0  0  0  0  0  0  0  0  0
  -90.2317   24.3843    1.1900 C   0  0  0  0  0  0  0  0  0  0  0  0
  -90.0425   25.6113    1.8680 O   0  0  0  0  0  0  0  0  0  0  0  0
  -89.1364   26.4029    1.1765 C   0  0  0  0  0  0  0  0  0  0  0  0
  -88.5401   27.6247    1.4242 C   0  0  0  0  0  0  0  0  0  0  0  0
 14 15  2  0  0  0
 15 17  1  0  0  0
 17 18  1  0  0  0
 18 19  1  0  0  0
 19 20  2  0  0  0
 20 21  1  0  0  0
 21 22  2  0  0  0
 22 23  1  0  0  0
 23 24  2  0  0  0
 15  1  1  0  0  0
  1  2  2  0  0  0
  2  3  1  0  0  0
  3  4  2  0  0  0
  4  5  1  0  0  0
  5  6  2  0  0  0
  6  7  1  0  0  0
  7  8  2  0  0  0
  8  9  1  0  0  0
  9 10  2  0  0  0
 10 25  1  0  0  0
 25 27  1  0  0  0
 27 28  2  0  0  0
 28 29  1  0  0  0
 29 30  2  0  0  0
 30 31  1  0  0  0
 31 32  1  0  0  0
 32 33  1  0  0  0
 33 34  1  0  0  0
 34 35  2  0  0  0
 10 11  1  0  0  0
 11 12  2  0  0  0
 12 13  1  0  0  0
 24 19  1  0  0  0
 13  1  1  0  0  0
 12  3  1  0  0  0
 11  6  1  0  0  0
 35 27  1  0  0  0
 34 30  1  0  0  0
 14 16  1  0  0  0
 25 26  1  0  0  0
M  END
> <minimizedAffinity>
-9.36075

> <CNNscore>
0.6506310105

> <CNNaffinity>
7.3566222191

> <CNN_VS>
4.7864465714

> <CNNaffinity_variance>
0.1477077454

$$$$
[H]N=C(OC([H])([H])c1c([H])c([H])c([H])c([H])c1[H])c1nc2c([H])c([H])c3nc([H])nc(N([H])c4c([H])c([H])c5c(c4[H])OC([H])([H])O5)c3c2s1


 35 40  0  0  0  0  0  0  0  0999 V2000
  -86.2273   33.1566   -1.4192 C   0  0  0  0  0  0  0  0  0  0  0  0
  -84.9312   33.2045   -1.2124 N   0  0  0  0  0  0  0  0  0  0  0  0
  -84.3567   32.3227   -0.4508 C   0  0  0  0  0  0  0  0  0  0  0  0
  -82.9851   32.2680   -0.1467 C   0  0  0  0  0  0  0  0  0  0  0  0
  -82.4818   31.3038    0.6696 C   0  0  0  0  0  0  0  0  0  0  0  0
  -83.2692   30.3468    1.2323 C   0  0  0  0  0  0  0  0  0  0  0  0
  -82.7866   29.4072    2.0351 N   0  0  0  0  0  0  0  0  0  0  0  0
  -83.6158   28.4680    2.5851 C   0  0  0  0  0  0  0  0  0  0  0  0
  -84.9066   28.5135    2.3015 N   0  0  0  0  0  0  0  0  0  0  0  0
  -85.4914   29.4389    1.4892 C   0  0  0  0  0  0  0  0  0  0  0  0
  -84.6360   30.3696    0.9521 C   0  0  0  0  0  0  0  0  0  0  0  0
  -85.1494   31.3547    0.1189 C   0  0  0  0  0  0  0  0  0  0  0  0
  -86.6764   31.8007   -0.4970 S   0  0  0  0  0  0  0  0  0  0  0  0
  -86.4870   34.8384   -3.0383 N   0  0  0  0  0  0  0  0  0  0  0  0
  -87.0763   34.0472   -2.2408 C   0  0  0  0  0  0  0  0  0  0  0  0
  -87.0510   35.4798   -3.6330 H   0  0  0  0  0  0  0  0  0  0  0  0
  -88.4411   34.0271   -2.1531 O   0  0  0  0  0  0  0  0  0  0  0  0
  -89.2742   33.3827   -3.1043 C   0  0  0  0  0  0  0  0  0  0  0  0
  -89.3391   31.9301   -2.8896 C   0  0  0  0  0  0  0  0  0  0  0  0
  -90.2356   31.4168   -1.9844 C   0  0  0  0  0  0  0  0  0  0  0  0
  -90.3305   30.0485   -1.7494 C   0  0  0  0  0  0  0  0  0  0  0  0
  -89.4912   29.2070   -2.4568 C   0  0  0  0  0  0  0  0  0  0  0  0
  -88.5831   29.6891   -3.3697 C   0  0  0  0  0  0  0  0  0  0  0  0
  -88.5203   31.0688   -3.5756 C   0  0  0  0  0  0  0  0  0  0  0  0
  -86.8616   29.3767    1.1948 N   0  0  0  0  0  0  0  0  0  0  0  0
  -87.4944   30.1537    1.2205 H   0  0  0  0  0  0  0  0  0  0  0  0
  -87.4542   28.1426    0.8035 C   0  0  0  0  0  0  0  0  0  0  0  0
  -87.1239   27.5595   -0.3841 C   0  0  0  0  0  0  0  0  0  0  0  0
  -87.7268   26.3635   -0.7866 C   0  0  0  0  0  0  0  0  0  0  0  0
  -88.6560   25.7437   -0.0132 C   0  0  0  0  0  0  0  0  0  0  0  0
  -89.3646   24.5765   -0.2144 O   0  0  0  0  0  0  0  0  0  0  0  0
  -90.1151   24.3365    0.9553 C   0  0  0  0  0  0  0  0  0  0  0  0
  -89.9494   25.4894    1.7580 O   0  0  0  0  0  0  0  0  0  0  0  0
  -88.9972   26.3282    1.1962 C   0  0  0  0  0  0  0  0  0  0  0  0
  -88.4013   27.5103    1.5926 C   0  0  0  0  0  0  0  0  0  0  0  0
 14 15  2  0  0  0
 15 17  1  0  0  0
 17 18  1  0  0  0
 18 19  1  0  0  0
 19 20  2  0  0  0
 20 21  1  0  0  0
 21 22  2  0  0  0
 22 23  1  0  0  0
 23 24  2  0  0  0
 15  1  1  0  0  0
  1  2  2  0  0  0
  2  3  1  0  0  0
  3  4  2  0  0  0
  4  5  1  0  0  0
  5  6  2  0  0  0
  6  7  1  0  0  0
  7  8  2  0  0  0
  8  9  1  0  0  0
  9 10  2  0  0  0
 10 25  1  0  0  0
 25 27  1  0  0  0
 27 28  2  0  0  0
 28 29  1  0  0  0
 29 30  2  0  0  0
 30 31  1  0  0  0
 31 32  1  0  0  0
 32 33  1  0  0  0
 33 34  1  0  0  0
 34 35  2  0  0  0
 10 11  1  0  0  0
 11 12  2  0  0  0
 12 13  1  0  0  0
 24 19  1  0  0  0
 13  1  1  0  0  0
 12  3  1  0  0  0
 11  6  1  0  0  0
 35 27  1  0  0  0
 34 30  1  0  0  0
 14 16  1  0  0  0
 25 26  1  0  0  0
M  END
> <minimizedAffinity>
-9.23101

> <CNNscore>
0.6236824393

> <CNNaffinity>
7.5540108681

> <CNN_VS>
4.7113037109

> <CNNaffinity_variance>
0.1993207783

$$$$
[H]N=C(OC([H])([H])c1c([H])c([H])c([H])c([H])c1[H])c1nc2c([H])c([H])c3nc([H])nc(N([H])c4c([H])c([H])c5c(c4[H])OC([H])([H])O5)c3c2s1


 35 40  0  0  0  0  0  0  0  0999 V2000
  -86.7006   32.5465   -1.2909 C   0  0  0  0  0  0  0  0  0  0  0  0
  -85.5359   32.8193   -0.7485 N   0  0  0  0  0  0  0  0  0  0  0  0
  -84.9342   31.9354   -0.0108 C   0  0  0  0  0  0  0  0  0  0  0  0
  -83.6932   32.1053    0.6279 C   0  0  0  0  0  0  0  0  0  0  0  0
  -83.1493   31.1162    1.3863 C   0  0  0  0  0  0  0  0  0  0  0  0
  -83.7689   29.9180    1.5678 C   0  0  0  0  0  0  0  0  0  0  0  0
  -83.2479   28.9510    2.3118 N   0  0  0  0  0  0  0  0  0  0  0  0
  -83.9086   27.7638    2.4731 C   0  0  0  0  0  0  0  0  0  0  0  0
  -85.0756   27.5976    1.8736 N   0  0  0  0  0  0  0  0  0  0  0  0
  -85.6873   28.5318    1.0917 C   0  0  0  0  0  0  0  0  0  0  0  0
  -85.0023   29.7136    0.9481 C   0  0  0  0  0  0  0  0  0  0  0  0
  -85.5574   30.7241    0.1743 C   0  0  0  0  0  0  0  0  0  0  0  0
  -86.9773   30.9617   -0.7409 S   0  0  0  0  0  0  0  0  0  0  0  0
  -87.0715   34.5083   -2.5283 N   0  0  0  0  0  0  0  0  0  0  0  0
  -87.5504   33.3942   -2.1560 C   0  0  0  0  0  0  0  0  0  0  0  0
  -87.6399   35.1317   -3.1378 H   0  0  0  0  0  0  0  0  0  0  0  0
  -88.8021   33.0032   -2.5449 O   0  0  0  0  0  0  0  0  0  0  0  0
  -89.0431   31.8920   -3.3942 C   0  0  0  0  0  0  0  0  0  0  0  0
  -90.3497   31.9784   -4.0619 C   0  0  0  0  0  0  0  0  0  0  0  0
  -90.8428   33.2054   -4.4331 C   0  0  0  0  0  0  0  0  0  0  0  0
  -92.0750   33.3335   -5.0668 C   0  0  0  0  0  0  0  0  0  0  0  0
  -92.8006   32.1830   -5.3174 C   0  0  0  0  0  0  0  0  0  0  0  0
  -92.3351   30.9401   -4.9586 C   0  0  0  0  0  0  0  0  0  0  0  0
  -91.0937   30.8558   -4.3247 C   0  0  0  0  0  0  0  0  0  0  0  0
  -86.8992   28.2485    0.4444 N   0  0  0  0  0  0  0  0  0  0  0  0
  -87.0217   28.1773   -0.5480 H   0  0  0  0  0  0  0  0  0  0  0  0
  -88.0796   28.0150    1.2054 C   0  0  0  0  0  0  0  0  0  0  0  0
  -89.2740   28.5441    0.8141 C   0  0  0  0  0  0  0  0  0  0  0  0
  -90.4298   28.3433    1.5755 C   0  0  0  0  0  0  0  0  0  0  0  0
  -90.4040   27.6178    2.7239 C   0  0  0  0  0  0  0  0  0  0  0  0
  -91.4100   27.3006    3.6140 O   0  0  0  0  0  0  0  0  0  0  0  0
  -90.8574   26.4300    4.5761 C   0  0  0  0  0  0  0  0  0  0  0  0
  -89.4684   26.3997    4.3100 O   0  0  0  0  0  0  0  0  0  0  0  0
  -89.1948   27.0750    3.1289 C   0  0  0  0  0  0  0  0  0  0  0  0
  -88.0533   27.2745    2.3761 C   0  0  0  0  0  0  0  0  0  0  0  0
 14 15  2  0  0  0
 15 17  1  0  0  0
 17 18  1  0  0  0
 18 19  1  0  0  0
 19 20  2  0  0  0
 20 21  1  0  0  0
 21 22  2  0  0  0
 22 23  1  0  0  0
 23 24  2  0  0  0
 15  1  1  0  0  0
  1  2  2  0  0  0
  2  3  1  0  0  0
  3  4  2  0  0  0
  4  5  1  0  0  0
  5  6  2  0  0  0
  6  7  1  0  0  0
  7  8  2  0  0  0
  8  9  1  0  0  0
  9 10  2  0  0  0
 10 25  1  0  0  0
 25 27  1  0  0  0
 27 28  2  0  0  0
 28 29  1  0  0  0
 29 30  2  0  0  0
 30 31  1  0  0  0
 31 32  1  0  0  0
 32 33  1  0  0  0
 33 34  1  0  0  0
 34 35  2  0  0  0
 10 11  1  0  0  0
 11 12  2  0  0  0
 12 13  1  0  0  0
 24 19  1  0  0  0
 13  1  1  0  0  0
 12  3  1  0  0  0
 11  6  1  0  0  0
 35 27  1  0  0  0
 34 30  1  0  0  0
 14 16  1  0  0  0
 25 26  1  0  0  0
M  END
> <minimizedAffinity>
-8.96094

> <CNNscore>
0.5518245697

> <CNNaffinity>
7.3229455948

> <CNN_VS>
4.0409812927

> <CNNaffinity_variance>
0.2473430336

$$$$
[H]N=C(OC([H])([H])c1c([H])c([H])c([H])c([H])c1[H])c1nc2c([H])c([H])c3nc([H])nc(N([H])c4c([H])c([H])c5c(c4[H])OC([H])([H])O5)c3c2s1


 35 40  0  0  0  0  0  0  0  0999 V2000
  -87.2309   32.4711   -0.9954 C   0  0  0  0  0  0  0  0  0  0  0  0
  -86.0548   32.8158   -0.5233 N   0  0  0  0  0  0  0  0  0  0  0  0
  -85.3380   31.9581    0.1386 C   0  0  0  0  0  0  0  0  0  0  0  0
  -84.0715   32.2032    0.6978 C   0  0  0  0  0  0  0  0  0  0  0  0
  -83.4028   31.2355    1.3802 C   0  0  0  0  0  0  0  0  0  0  0  0
  -83.9163   29.9876    1.5583 C   0  0  0  0  0  0  0  0  0  0  0  0
  -83.2730   29.0406    2.2287 N   0  0  0  0  0  0  0  0  0  0  0  0
  -83.8296   27.8011    2.3899 C   0  0  0  0  0  0  0  0  0  0  0  0
  -85.0200   27.5642    1.8649 N   0  0  0  0  0  0  0  0  0  0  0  0
  -85.7537   28.4727    1.1617 C   0  0  0  0  0  0  0  0  0  0  0  0
  -85.1713   29.7081    1.0163 C   0  0  0  0  0  0  0  0  0  0  0  0
  -85.8538   30.6968    0.3201 C   0  0  0  0  0  0  0  0  0  0  0  0
  -87.3484   30.8527   -0.4875 S   0  0  0  0  0  0  0  0  0  0  0  0
  -89.4283   32.9796   -1.6514 N   0  0  0  0  0  0  0  0  0  0  0  0
  -88.2008   33.2775   -1.7687 C   0  0  0  0  0  0  0  0  0  0  0  0
  -90.1401   33.5249   -2.1798 H   0  0  0  0  0  0  0  0  0  0  0  0
  -87.8023   34.3045   -2.5795 O   0  0  0  0  0  0  0  0  0  0  0  0
  -87.2024   34.1068   -3.8504 C   0  0  0  0  0  0  0  0  0  0  0  0
  -87.9539   34.7683   -4.9265 C   0  0  0  0  0  0  0  0  0  0  0  0
  -87.3970   35.8363   -5.5864 C   0  0  0  0  0  0  0  0  0  0  0  0
  -88.0731   36.4923   -6.6106 C   0  0  0  0  0  0  0  0  0  0  0  0
  -89.3340   36.0386   -6.9530 C   0  0  0  0  0  0  0  0  0  0  0  0
  -89.9193   34.9722   -6.3121 C   0  0  0  0  0  0  0  0  0  0  0  0
  -89.2066   34.3421   -5.2899 C   0  0  0  0  0  0  0  0  0  0  0  0
  -86.9833   28.1172    0.5876 N   0  0  0  0  0  0  0  0  0  0  0  0
  -87.2677   28.3322   -0.3492 H   0  0  0  0  0  0  0  0  0  0  0  0
  -87.9365   27.3743    1.3405 C   0  0  0  0  0  0  0  0  0  0  0  0
  -88.4268   26.1930    0.8674 C   0  0  0  0  0  0  0  0  0  0  0  0
  -89.3864   25.4759    1.5889 C   0  0  0  0  0  0  0  0  0  0  0  0
  -89.8603   25.9271    2.7796 C   0  0  0  0  0  0  0  0  0  0  0  0
  -90.7922   25.3877    3.6430 O   0  0  0  0  0  0  0  0  0  0  0  0
  -90.8276   26.2115    4.7872 C   0  0  0  0  0  0  0  0  0  0  0  0
  -90.0192   27.3301    4.4769 O   0  0  0  0  0  0  0  0  0  0  0  0
  -89.3670   27.1261    3.2690 C   0  0  0  0  0  0  0  0  0  0  0  0
  -88.4192   27.8343    2.5550 C   0  0  0  0  0  0  0  0  0  0  0  0
 14 15  2  0  0  0
 15 17  1  0  0  0
 17 18  1  0  0  0
 18 19  1  0  0  0
 19 20  2  0  0  0
 20 21  1  0  0  0
 21 22  2  0  0  0
 22 23  1  0  0  0
 23 24  2  0  0  0
 15  1  1  0  0  0
  1  2  2  0  0  0
  2  3  1  0  0  0
  3  4  2  0  0  0
  4  5  1  0  0  0
  5  6  2  0  0  0
  6  7  1  0  0  0
  7  8  2  0  0  0
  8  9  1  0  0  0
  9 10  2  0  0  0
 10 25  1  0  0  0
 25 27  1  0  0  0
 27 28  2  0  0  0
 28 29  1  0  0  0
 29 30  2  0  0  0
 30 31  1  0  0  0
 31 32  1  0  0  0
 32 33  1  0  0  0
 33 34  1  0  0  0
 34 35  2  0  0  0
 10 11  1  0  0  0
 11 12  2  0  0  0
 12 13  1  0  0  0
 24 19  1  0  0  0
 13  1  1  0  0  0
 12  3  1  0  0  0
 11  6  1  0  0  0
 35 27  1  0  0  0
 34 30  1  0  0  0
 14 16  1  0  0  0
 25 26  1  0  0  0
M  END
> <minimizedAffinity>
-9.69566

> <CNNscore>
0.5466866493

> <CNNaffinity>
7.2134184837

> <CNN_VS>
3.9434795380

> <CNNaffinity_variance>
0.1831575930

$$$$
[H]N=C(OC([H])([H])c1c([H])c([H])c([H])c([H])c1[H])c1nc2c([H])c([H])c3nc([H])nc(N([H])c4c([H])c([H])c5c(c4[H])OC([H])([H])O5)c3c2s1


 35 40  0  0  0  0  0  0  0  0999 V2000
  -86.8161   33.0755   -1.3962 C   0  0  0  0  0  0  0  0  0  0  0  0
  -85.5111   33.1950   -1.3077 N   0  0  0  0  0  0  0  0  0  0  0  0
  -84.8243   32.3583   -0.5895 C   0  0  0  0  0  0  0  0  0  0  0  0
  -83.4301   32.3812   -0.4095 C   0  0  0  0  0  0  0  0  0  0  0  0
  -82.8047   31.4594    0.3706 C   0  0  0  0  0  0  0  0  0  0  0  0
  -83.4860   30.4726    1.0145 C   0  0  0  0  0  0  0  0  0  0  0  0
  -82.8838   29.5741    1.7827 N   0  0  0  0  0  0  0  0  0  0  0  0
  -83.6086   28.6026    2.4174 C   0  0  0  0  0  0  0  0  0  0  0  0
  -84.9203   28.5753    2.2507 N   0  0  0  0  0  0  0  0  0  0  0  0
  -85.6243   29.4541    1.4825 C   0  0  0  0  0  0  0  0  0  0  0  0
  -84.8716   30.4186    0.8583 C   0  0  0  0  0  0  0  0  0  0  0  0
  -85.5096   31.3604    0.0620 C   0  0  0  0  0  0  0  0  0  0  0  0
  -87.1074   31.7145   -0.4196 S   0  0  0  0  0  0  0  0  0  0  0  0
  -88.9205   33.3999   -2.3878 N   0  0  0  0  0  0  0  0  0  0  0  0
  -87.7818   33.9056   -2.1495 C   0  0  0  0  0  0  0  0  0  0  0  0
  -89.6264   33.9539   -2.9150 H   0  0  0  0  0  0  0  0  0  0  0  0
  -87.4711   35.1674   -2.5761 O   0  0  0  0  0  0  0  0  0  0  0  0
  -88.2436   35.8804   -3.5297 C   0  0  0  0  0  0  0  0  0  0  0  0
  -87.6999   37.2205   -3.7923 C   0  0  0  0  0  0  0  0  0  0  0  0
  -86.8293   37.4071   -4.8381 C   0  0  0  0  0  0  0  0  0  0  0  0
  -86.2903   38.6581   -5.1223 C   0  0  0  0  0  0  0  0  0  0  0  0
  -86.6558   39.7222   -4.3180 C   0  0  0  0  0  0  0  0  0  0  0  0
  -87.5250   39.5687   -3.2637 C   0  0  0  0  0  0  0  0  0  0  0  0
  -88.0430   38.2964   -3.0129 C   0  0  0  0  0  0  0  0  0  0  0  0
  -87.0099   29.3148    1.3136 N   0  0  0  0  0  0  0  0  0  0  0  0
  -87.6909   30.0223    1.5147 H   0  0  0  0  0  0  0  0  0  0  0  0
  -87.5500   28.1012    0.8009 C   0  0  0  0  0  0  0  0  0  0  0  0
  -87.2162   27.6654   -0.4475 C   0  0  0  0  0  0  0  0  0  0  0  0
  -87.7687   26.4904   -0.9670 C   0  0  0  0  0  0  0  0  0  0  0  0
  -88.6507   25.7456   -0.2506 C   0  0  0  0  0  0  0  0  0  0  0  0
  -89.3060   24.5724   -0.5654 O   0  0  0  0  0  0  0  0  0  0  0  0
  -90.0198   24.1715    0.5830 C   0  0  0  0  0  0  0  0  0  0  0  0
  -89.8936   25.2391    1.5024 O   0  0  0  0  0  0  0  0  0  0  0  0
  -88.9949   26.1799    1.0196 C   0  0  0  0  0  0  0  0  0  0  0  0
  -88.4490   27.3415    1.5318 C   0  0  0  0  0  0  0  0  0  0  0  0
 14 15  2  0  0  0
 15 17  1  0  0  0
 17 18  1  0  0  0
 18 19  1  0  0  0
 19 20  2  0  0  0
 20 21  1  0  0  0
 21 22  2  0  0  0
 22 23  1  0  0  0
 23 24  2  0  0  0
 15  1  1  0  0  0
  1  2  2  0  0  0
  2  3  1  0  0  0
  3  4  2  0  0  0
  4  5  1  0  0  0
  5  6  2  0  0  0
  6  7  1  0  0  0
  7  8  2  0  0  0
  8  9  1  0  0  0
  9 10  2  0  0  0
 10 25  1  0  0  0
 25 27  1  0  0  0
 27 28  2  0  0  0
 28 29  1  0  0  0
 29 30  2  0  0  0
 30 31  1  0  0  0
 31 32  1  0  0  0
 32 33  1  0  0  0
 33 34  1  0  0  0
 34 35  2  0  0  0
 10 11  1  0  0  0
 11 12  2  0  0  0
 12 13  1  0  0  0
 24 19  1  0  0  0
 13  1  1  0  0  0
 12  3  1  0  0  0
 11  6  1  0  0  0
 35 27  1  0  0  0
 34 30  1  0  0  0
 14 16  1  0  0  0
 25 26  1  0  0  0
M  END
> <minimizedAffinity>
-9.03808

> <CNNscore>
0.4130978584

> <CNNaffinity>
7.1630592346

> <CNN_VS>
2.9590444565

> <CNNaffinity_variance>
0.1445049644

$$$$
[H]N=C(OC([H])([H])c1c([H])c([H])c([H])c([H])c1[H])c1nc2c([H])c([H])c3nc([H])nc(N([H])c4c([H])c([H])c5c(c4[H])OC([H])([H])O5)c3c2s1


 35 40  0  0  0  0  0  0  0  0999 V2000
  -90.3275   29.6005   -1.2898 C   0  0  0  0  0  0  0  0  0  0  0  0
  -90.5472   29.8406   -2.5623 N   0  0  0  0  0  0  0  0  0  0  0  0
  -89.9597   30.8384   -3.1512 C   0  0  0  0  0  0  0  0  0  0  0  0
  -90.1142   31.2033   -4.5002 C   0  0  0  0  0  0  0  0  0  0  0  0
  -89.4560   32.2733   -5.0210 C   0  0  0  0  0  0  0  0  0  0  0  0
  -88.6188   33.0434   -4.2736 C   0  0  0  0  0  0  0  0  0  0  0  0
  -87.9787   34.0927   -4.7728 N   0  0  0  0  0  0  0  0  0  0  0  0
  -87.1513   34.8440   -3.9835 C   0  0  0  0  0  0  0  0  0  0  0  0
  -87.0009   34.5048   -2.7141 N   0  0  0  0  0  0  0  0  0  0  0  0
  -87.6156   33.4459   -2.1149 C   0  0  0  0  0  0  0  0  0  0  0  0
  -88.4407   32.7104   -2.9303 C   0  0  0  0  0  0  0  0  0  0  0  0
  -89.1134   31.6181   -2.3990 C   0  0  0  0  0  0  0  0  0  0  0  0
  -89.2357   30.8397   -0.8859 S   0  0  0  0  0  0  0  0  0  0  0  0
  -92.1398   28.3654   -0.4488 N   0  0  0  0  0  0  0  0  0  0  0  0
  -90.8823   28.5311   -0.4310 C   0  0  0  0  0  0  0  0  0  0  0  0
  -92.5666   27.6225    0.1420 H   0  0  0  0  0  0  0  0  0  0  0  0
  -90.0822   27.7469    0.3537 O   0  0  0  0  0  0  0  0  0  0  0  0
  -90.5569   26.6141    1.0649 C   0  0  0  0  0  0  0  0  0  0  0  0
  -90.3776   26.7566    2.5167 C   0  0  0  0  0  0  0  0  0  0  0  0
  -90.1849   25.6381    3.2902 C   0  0  0  0  0  0  0  0  0  0  0  0
  -90.0114   25.7267    4.6680 C   0  0  0  0  0  0  0  0  0  0  0  0
  -90.0378   26.9822    5.2478 C   0  0  0  0  0  0  0  0  0  0  0  0
  -90.2285   28.1211    4.5016 C   0  0  0  0  0  0  0  0  0  0  0  0
  -90.3985   27.9879    3.1221 C   0  0  0  0  0  0  0  0  0  0  0  0
  -87.3518   33.1225   -0.7756 N   0  0  0  0  0  0  0  0  0  0  0  0
  -88.0134   33.1833   -0.0250 H   0  0  0  0  0  0  0  0  0  0  0  0
  -86.0653   32.6460   -0.3944 C   0  0  0  0  0  0  0  0  0  0  0  0
  -84.9389   33.3269   -0.7513 C   0  0  0  0  0  0  0  0  0  0  0  0
  -83.6721   32.8458   -0.4060 C   0  0  0  0  0  0  0  0  0  0  0  0
  -83.5196   31.6912    0.2937 C   0  0  0  0  0  0  0  0  0  0  0  0
  -82.3816   31.0451    0.7323 O   0  0  0  0  0  0  0  0  0  0  0  0
  -82.7991   29.9429    1.5068 C   0  0  0  0  0  0  0  0  0  0  0  0
  -84.2037   29.8782    1.3519 O   0  0  0  0  0  0  0  0  0  0  0  0
  -84.6587   30.9929    0.6619 C   0  0  0  0  0  0  0  0  0  0  0  0
  -85.9101   31.4689    0.3196 C   0  0  0  0  0  0  0  0  0  0  0  0
 14 15  2  0  0  0
 15 17  1  0  0  0
 17 18  1  0  0  0
 18 19  1  0  0  0
 19 20  2  0  0  0
 20 21  1  0  0  0
 21 22  2  0  0  0
 22 23  1  0  0  0
 23 24  2  0  0  0
 15  1  1  0  0  0
  1  2  2  0  0  0
  2  3  1  0  0  0
  3  4  2  0  0  0
  4  5  1  0  0  0
  5  6  2  0  0  0
  6  7  1  0  0  0
  7  8  2  0  0  0
  8  9  1  0  0  0
  9 10  2  0  0  0
 10 25  1  0  0  0
 25 27  1  0  0  0
 27 28  2  0  0  0
 28 29  1  0  0  0
 29 30  2  0  0  0
 30 31  1  0  0  0
 31 32  1  0  0  0
 32 33  1  0  0  0
 33 34  1  0  0  0
 34 35  2  0  0  0
 10 11  1  0  0  0
 11 12  2  0  0  0
 12 13  1  0  0  0
 24 19  1  0  0  0
 13  1  1  0  0  0
 12  3  1  0  0  0
 11  6  1  0  0  0
 35 27  1  0  0  0
 34 30  1  0  0  0
 14 16  1  0  0  0
 25 26  1  0  0  0
M  END
> <minimizedAffinity>
-9.36163

> <CNNscore>
0.3575643301

> <CNNaffinity>
6.6983017921

> <CNN_VS>
2.3950738907

> <CNNaffinity_variance>
0.3508290946

$$$$
[H]N=C(OC([H])([H])c1c([H])c([H])c([H])c([H])c1[H])c1nc2c([H])c([H])c3nc([H])nc(N([H])c4c([H])c([H])c5c(c4[H])OC([H])([H])O5)c3c2s1


 35 40  0  0  0  0  0  0  0  0999 V2000
  -87.3595   32.0723   -0.8609 C   0  0  0  0  0  0  0  0  0  0  0  0
  -86.1629   32.4124   -0.4396 N   0  0  0  0  0  0  0  0  0  0  0  0
  -85.4443   31.5701    0.2400 C   0  0  0  0  0  0  0  0  0  0  0  0
  -84.1568   31.8126    0.7503 C   0  0  0  0  0  0  0  0  0  0  0  0
  -83.4880   30.8625    1.4569 C   0  0  0  0  0  0  0  0  0  0  0  0
  -84.0215   29.6356    1.7073 C   0  0  0  0  0  0  0  0  0  0  0  0
  -83.3780   28.7062    2.4017 N   0  0  0  0  0  0  0  0  0  0  0  0
  -83.9549   27.4879    2.6361 C   0  0  0  0  0  0  0  0  0  0  0  0
  -85.1652   27.2535    2.1574 N   0  0  0  0  0  0  0  0  0  0  0  0
  -85.9008   28.1449    1.4346 C   0  0  0  0  0  0  0  0  0  0  0  0
  -85.2977   29.3593    1.2155 C   0  0  0  0  0  0  0  0  0  0  0  0
  -85.9803   30.3300    0.4945 C   0  0  0  0  0  0  0  0  0  0  0  0
  -87.4950   30.4817   -0.2757 S   0  0  0  0  0  0  0  0  0  0  0  0
  -89.5579   32.7605   -1.3199 N   0  0  0  0  0  0  0  0  0  0  0  0
  -88.3354   32.8638   -1.6421 C   0  0  0  0  0  0  0  0  0  0  0  0
  -90.2737   33.3024   -1.8464 H   0  0  0  0  0  0  0  0  0  0  0  0
  -87.9472   33.6771   -2.6711 O   0  0  0  0  0  0  0  0  0  0  0  0
  -87.7649   33.2180   -4.0016 C   0  0  0  0  0  0  0  0  0  0  0  0
  -88.4613   34.0653   -4.9801 C   0  0  0  0  0  0  0  0  0  0  0  0
  -89.6772   33.6672   -5.4795 C   0  0  0  0  0  0  0  0  0  0  0  0
  -90.3708   34.4380   -6.4075 C   0  0  0  0  0  0  0  0  0  0  0  0
  -89.8008   35.6285   -6.8205 C   0  0  0  0  0  0  0  0  0  0  0  0
  -88.5854   36.0552   -6.3398 C   0  0  0  0  0  0  0  0  0  0  0  0
  -87.9225   35.2519   -5.4098 C   0  0  0  0  0  0  0  0  0  0  0  0
  -87.1542   27.7906    0.9135 N   0  0  0  0  0  0  0  0  0  0  0  0
  -87.4407   27.9157   -0.0389 H   0  0  0  0  0  0  0  0  0  0  0  0
  -88.1320   27.1835    1.7517 C   0  0  0  0  0  0  0  0  0  0  0  0
  -88.5596   27.8091    2.8855 C   0  0  0  0  0  0  0  0  0  0  0  0
  -89.4966   27.2024    3.7279 C   0  0  0  0  0  0  0  0  0  0  0  0
  -90.0116   25.9767    3.4478 C   0  0  0  0  0  0  0  0  0  0  0  0
  -90.9318   25.2069    4.1301 O   0  0  0  0  0  0  0  0  0  0  0  0
  -91.1930   24.0690    3.3390 C   0  0  0  0  0  0  0  0  0  0  0  0
  -90.2666   24.1258    2.2715 O   0  0  0  0  0  0  0  0  0  0  0  0
  -89.5840   25.3338    2.2970 C   0  0  0  0  0  0  0  0  0  0  0  0
  -88.6575   25.9339    1.4656 C   0  0  0  0  0  0  0  0  0  0  0  0
 14 15  2  0  0  0
 15 17  1  0  0  0
 17 18  1  0  0  0
 18 19  1  0  0  0
 19 20  2  0  0  0
 20 21  1  0  0  0
 21 22  2  0  0  0
 22 23  1  0  0  0
 23 24  2  0  0  0
 15  1  1  0  0  0
  1  2  2  0  0  0
  2  3  1  0  0  0
  3  4  2  0  0  0
  4  5  1  0  0  0
  5  6  2  0  0  0
  6  7  1  0  0  0
  7  8  2  0  0  0
  8  9  1  0  0  0
  9 10  2  0  0  0
 10 25  1  0  0  0
 25 27  1  0  0  0
 27 28  2  0  0  0
 28 29  1  0  0  0
 29 30  2  0  0  0
 30 31  1  0  0  0
 31 32  1  0  0  0
 32 33  1  0  0  0
 33 34  1  0  0  0
 34 35  2  0  0  0
 10 11  1  0  0  0
 11 12  2  0  0  0
 12 13  1  0  0  0
 24 19  1  0  0  0
 13  1  1  0  0  0
 12  3  1  0  0  0
 11  6  1  0  0  0
 35 27  1  0  0  0
 34 30  1  0  0  0
 14 16  1  0  0  0
 25 26  1  0  0  0
M  END
> <minimizedAffinity>
-9.65185

> <CNNscore>
0.3085848987

> <CNNaffinity>
6.9452238083

> <CNN_VS>
2.1431910992

> <CNNaffinity_variance>
0.1903535724

$$$$
[H]c1c([H])c(Cl)c([H])c(C([H])(N([H])C(=O)c2c([H])c([H])c(Cl)c(N([H])C(=O)c3c([H])c4c([H])nc(OC([H])([H])[H])nc4n([H])c3=O)c2[H])C([H])([H])C([H])([H])N([H])[H])c1[H]


 42 45  0  0  0  0  0  0  0  0999 V2000
  -86.0087   31.3450   -0.4450 C   0  0  0  0  0  0  0  0  0  0  0  0
  -86.6459   30.1774   -0.1081 C   0  0  0  0  0  0  0  0  0  0  0  0
  -86.2314   29.3323    0.9006 C   0  0  0  0  0  0  0  0  0  0  0  0
  -85.1176   29.6599    1.6185 C   0  0  0  0  0  0  0  0  0  0  0  0
  -84.4277   30.8180    1.3384 C   0  0  0  0  0  0  0  0  0  0  0  0
  -84.8570   31.6390    0.3373 C   0  0  0  0  0  0  0  0  0  0  0  0
  -83.9984   33.1308   -0.0463 Cl  0  0  0  0  0  0  0  0  0  0  0  0
  -87.5923   32.9686   -1.5685 C   0  0  0  0  0  0  0  0  0  0  0  0
  -88.5344   32.8510   -0.7930 O   0  0  0  0  0  0  0  0  0  0  0  0
  -86.3674   32.2624   -1.4338 N   0  0  0  0  0  0  0  0  0  0  0  0
  -85.6579   32.4855   -2.1963 H   0  0  0  0  0  0  0  0  0  0  0  0
  -88.5179   37.4920   -6.0129 C   0  0  0  0  0  0  0  0  0  0  0  0
  -88.3965   38.0803   -4.8291 N   0  0  0  0  0  0  0  0  0  0  0  0
  -88.1530   37.4007   -3.6646 C   0  0  0  0  0  0  0  0  0  0  0  0
  -88.0318   36.0388   -3.7514 C   0  0  0  0  0  0  0  0  0  0  0  0
  -87.8061   35.2524   -2.6126 C   0  0  0  0  0  0  0  0  0  0  0  0
  -87.7160   33.8894   -2.7381 C   0  0  0  0  0  0  0  0  0  0  0  0
  -87.8424   33.3127   -3.9692 C   0  0  0  0  0  0  0  0  0  0  0  0
  -87.7543   32.0535   -4.0968 O   0  0  0  0  0  0  0  0  0  0  0  0
  -88.0585   34.0613   -5.0650 N   0  0  0  0  0  0  0  0  0  0  0  0
  -88.1558   35.4186   -4.9726 C   0  0  0  0  0  0  0  0  0  0  0  0
  -88.3959   36.1515   -6.0819 N   0  0  0  0  0  0  0  0  0  0  0  0
  -88.1524   33.6462   -6.0032 H   0  0  0  0  0  0  0  0  0  0  0  0
  -89.2237   39.5605   -7.0198 C   0  0  0  0  0  0  0  0  0  0  0  0
  -88.7682   38.2292   -7.1702 O   0  0  0  0  0  0  0  0  0  0  0  0
  -87.0173   28.1096    1.2133 C   0  0  0  0  0  0  0  0  0  0  0  0
  -86.4180   27.1493    1.7165 O   0  0  0  0  0  0  0  0  0  0  0  0
  -88.4013   28.0589    0.9323 N   0  0  0  0  0  0  0  0  0  0  0  0
  -88.8517   28.9079    0.5270 H   0  0  0  0  0  0  0  0  0  0  0  0
  -89.2763   26.9444    1.1633 C   0  0  0  0  0  0  0  0  0  0  0  0
  -89.4602   26.7309    2.6477 C   0  0  0  0  0  0  0  0  0  0  0  0
  -90.1026   27.6740    3.4125 C   0  0  0  0  0  0  0  0  0  0  0  0
  -90.2740   27.5230    4.7794 C   0  0  0  0  0  0  0  0  0  0  0  0
  -89.7993   26.4090    5.4164 C   0  0  0  0  0  0  0  0  0  0  0  0
  -89.1498   25.4585    4.6402 C   0  0  0  0  0  0  0  0  0  0  0  0
  -88.5390   24.0305    5.4535 Cl  0  0  0  0  0  0  0  0  0  0  0  0
  -88.9833   25.6136    3.2922 C   0  0  0  0  0  0  0  0  0  0  0  0
  -88.7884   25.6639    0.5488 C   0  0  0  0  0  0  0  0  0  0  0  0
  -89.5752   25.2882   -0.6786 C   0  0  0  0  0  0  0  0  0  0  0  0
  -88.6672   25.4077   -1.8133 N   0  0  0  0  0  0  0  0  0  0  0  0
  -89.2745   25.5512   -2.6702 H   0  0  0  0  0  0  0  0  0  0  0  0
  -88.0586   26.2509   -1.6790 H   0  0  0  0  0  0  0  0  0  0  0  0
 24 25  1  0  0  0
 25 12  1  0  0  0
 12 13  2  0  0  0
 13 14  1  0  0  0
 14 15  2  0  0  0
 15 16  1  0  0  0
 16 17  2  0  0  0
 17  8  1  0  0  0
  8  9  2  0  0  0
  8 10  1  0  0  0
 10  1  1  0  0  0
  1  2  2  0  0  0
  2  3  1  0  0  0
  3  4  2  0  0  0
  4  5  1  0  0  0
  5  6  2  0  0  0
  6  7  1  0  0  0
  3 26  1  0  0  0
 26 27  2  0  0  0
 26 28  1  0  0  0
 28 30  1  0  0  0
 30 38  1  0  0  0
 38 39  1  0  0  0
 39 40  1  0  0  0
 30 31  1  0  0  0
 31 32  2  0  0  0
 32 33  1  0  0  0
 33 34  2  0  0  0
 34 35  1  0  0  0
 35 36  1  0  0  0
 35 37  2  0  0  0
 17 18  1  0  0  0
 18 19  2  0  0  0
 18 20  1  0  0  0
 20 21  1  0  0  0
 21 22  2  0  0  0
 22 12  1  0  0  0
 21 15  1  0  0  0
  6  1  1  0  0  0
 37 31  1  0  0  0
 10 11  1  0  0  0
 28 29  1  0  0  0
 40 41  1  0  0  0
 40 42  1  0  0  0
 20 23  1  0  0  0
M  END
> <minimizedAffinity>
-8.86369

> <CNNscore>
0.3347104490

> <CNNaffinity>
7.1314024925

> <CNN_VS>
2.3869550228

> <CNNaffinity_variance>
0.1452617347

$$$$
[H]c1c([H])c(Cl)c([H])c(C([H])(N([H])C(=O)c2c([H])c([H])c(Cl)c(N([H])C(=O)c3c([H])c4c([H])nc(OC([H])([H])[H])nc4n([H])c3=O)c2[H])C([H])([H])C([H])([H])N([H])[H])c1[H]


 42 45  0  0  0  0  0  0  0  0999 V2000
  -87.1090   28.8614   -0.1270 C   0  0  0  0  0  0  0  0  0  0  0  0
  -87.9711   27.7979   -0.2195 C   0  0  0  0  0  0  0  0  0  0  0  0
  -87.8917   26.6663    0.5658 C   0  0  0  0  0  0  0  0  0  0  0  0
  -86.8979   26.5794    1.4976 C   0  0  0  0  0  0  0  0  0  0  0  0
  -85.9971   27.6094    1.6490 C   0  0  0  0  0  0  0  0  0  0  0  0
  -86.0960   28.7193    0.8621 C   0  0  0  0  0  0  0  0  0  0  0  0
  -84.9603   30.0578    1.0311 Cl  0  0  0  0  0  0  0  0  0  0  0  0
  -88.1144   31.0666   -0.8569 C   0  0  0  0  0  0  0  0  0  0  0  0
  -89.1256   31.0294   -0.1650 O   0  0  0  0  0  0  0  0  0  0  0  0
  -87.1270   30.0457   -0.8654 N   0  0  0  0  0  0  0  0  0  0  0  0
  -86.3141   30.2410   -1.5256 H   0  0  0  0  0  0  0  0  0  0  0  0
  -87.6028   35.5999   -5.3578 C   0  0  0  0  0  0  0  0  0  0  0  0
  -88.7197   34.9151   -5.5718 N   0  0  0  0  0  0  0  0  0  0  0  0
  -89.1501   33.8932   -4.7670 C   0  0  0  0  0  0  0  0  0  0  0  0
  -88.3680   33.5786   -3.6871 C   0  0  0  0  0  0  0  0  0  0  0  0
  -88.7109   32.5330   -2.8178 C   0  0  0  0  0  0  0  0  0  0  0  0
  -87.8879   32.2329   -1.7623 C   0  0  0  0  0  0  0  0  0  0  0  0
  -86.7469   32.9565   -1.5658 C   0  0  0  0  0  0  0  0  0  0  0  0
  -85.9823   32.6909   -0.5888 O   0  0  0  0  0  0  0  0  0  0  0  0
  -86.4129   33.9604   -2.3955 N   0  0  0  0  0  0  0  0  0  0  0  0
  -87.2088   34.2813   -3.4556 C   0  0  0  0  0  0  0  0  0  0  0  0
  -86.8442   35.2786   -4.2911 N   0  0  0  0  0  0  0  0  0  0  0  0
  -85.5589   34.5211   -2.2622 H   0  0  0  0  0  0  0  0  0  0  0  0
  -86.3405   37.6219   -5.6881 C   0  0  0  0  0  0  0  0  0  0  0  0
  -87.2066   36.6314   -6.2090 O   0  0  0  0  0  0  0  0  0  0  0  0
  -88.9018   25.5860    0.4140 C   0  0  0  0  0  0  0  0  0  0  0  0
  -89.7433   25.4500    1.3128 O   0  0  0  0  0  0  0  0  0  0  0  0
  -88.8836   24.7457   -0.7220 N   0  0  0  0  0  0  0  0  0  0  0  0
  -88.1618   24.9242   -1.4535 H   0  0  0  0  0  0  0  0  0  0  0  0
  -89.7807   23.6575   -0.9901 C   0  0  0  0  0  0  0  0  0  0  0  0
  -90.8573   24.1006   -1.9530 C   0  0  0  0  0  0  0  0  0  0  0  0
  -90.9282   25.4095   -2.3639 C   0  0  0  0  0  0  0  0  0  0  0  0
  -91.9118   25.8581   -3.2310 C   0  0  0  0  0  0  0  0  0  0  0  0
  -92.8569   24.9929   -3.7109 C   0  0  0  0  0  0  0  0  0  0  0  0
  -92.7825   23.6710   -3.2926 C   0  0  0  0  0  0  0  0  0  0  0  0
  -93.9929   22.5599   -3.9044 Cl  0  0  0  0  0  0  0  0  0  0  0  0
  -91.8100   23.2348   -2.4365 C   0  0  0  0  0  0  0  0  0  0  0  0
  -90.4350   23.1044    0.2433 C   0  0  0  0  0  0  0  0  0  0  0  0
  -89.9784   21.7022    0.5470 C   0  0  0  0  0  0  0  0  0  0  0  0
  -88.6415   21.5633   -0.0184 N   0  0  0  0  0  0  0  0  0  0  0  0
  -88.4885   20.5263   -0.1767 H   0  0  0  0  0  0  0  0  0  0  0  0
  -88.6053   22.0603   -0.9409 H   0  0  0  0  0  0  0  0  0  0  0  0
 24 25  1  0  0  0
 25 12  1  0  0  0
 12 13  2  0  0  0
 13 14  1  0  0  0
 14 15  2  0  0  0
 15 16  1  0  0  0
 16 17  2  0  0  0
 17  8  1  0  0  0
  8  9  2  0  0  0
  8 10  1  0  0  0
 10  1  1  0  0  0
  1  2  2  0  0  0
  2  3  1  0  0  0
  3  4  2  0  0  0
  4  5  1  0  0  0
  5  6  2  0  0  0
  6  7  1  0  0  0
  3 26  1  0  0  0
 26 27  2  0  0  0
 26 28  1  0  0  0
 28 30  1  0  0  0
 30 38  1  0  0  0
 38 39  1  0  0  0
 39 40  1  0  0  0
 30 31  1  0  0  0
 31 32  2  0  0  0
 32 33  1  0  0  0
 33 34  2  0  0  0
 34 35  1  0  0  0
 35 36  1  0  0  0
 35 37  2  0  0  0
 17 18  1  0  0  0
 18 19  2  0  0  0
 18 20  1  0  0  0
 20 21  1  0  0  0
 21 22  2  0  0  0
 22 12  1  0  0  0
 21 15  1  0  0  0
  6  1  1  0  0  0
 37 31  1  0  0  0
 10 11  1  0  0  0
 28 29  1  0  0  0
 40 41  1  0  0  0
 40 42  1  0  0  0
 20 23  1  0  0  0
M  END
> <minimizedAffinity>
-9.07151

> <CNNscore>
0.1725006253

> <CNNaffinity>
6.4453611374

> <CNN_VS>
1.1118288040

> <CNNaffinity_variance>
0.2030737847

$$$$
[H]c1c([H])c(Cl)c([H])c(C([H])(N([H])C(=O)c2c([H])c([H])c(Cl)c(N([H])C(=O)c3c([H])c4c([H])nc(OC([H])([H])[H])nc4n([H])c3=O)c2[H])C([H])([H])C([H])([H])N([H])[H])c1[H]


 42 45  0  0  0  0  0  0  0  0999 V2000
  -87.1101   31.3861   -0.7460 C   0  0  0  0  0  0  0  0  0  0  0  0
  -87.6430   30.1321   -0.5836 C   0  0  0  0  0  0  0  0  0  0  0  0
  -87.0120   29.1034    0.0849 C   0  0  0  0  0  0  0  0  0  0  0  0
  -85.7778   29.3268    0.6237 C   0  0  0  0  0  0  0  0  0  0  0  0
  -85.1813   30.5617    0.5024 C   0  0  0  0  0  0  0  0  0  0  0  0
  -85.8249   31.5644   -0.1619 C   0  0  0  0  0  0  0  0  0  0  0  0
  -85.0907   33.1586   -0.3338 Cl  0  0  0  0  0  0  0  0  0  0  0  0
  -87.6721   32.7892   -2.7762 C   0  0  0  0  0  0  0  0  0  0  0  0
  -87.1269   32.0895   -3.6223 O   0  0  0  0  0  0  0  0  0  0  0  0
  -87.6835   32.4841   -1.3891 N   0  0  0  0  0  0  0  0  0  0  0  0
  -88.2033   33.2008   -0.7968 H   0  0  0  0  0  0  0  0  0  0  0  0
  -90.0358   38.6099   -4.0424 C   0  0  0  0  0  0  0  0  0  0  0  0
  -88.7489   38.7321   -3.7401 N   0  0  0  0  0  0  0  0  0  0  0  0
  -87.9323   37.6705   -3.4515 C   0  0  0  0  0  0  0  0  0  0  0  0
  -88.4974   36.4229   -3.4828 C   0  0  0  0  0  0  0  0  0  0  0  0
  -87.7504   35.2757   -3.1790 C   0  0  0  0  0  0  0  0  0  0  0  0
  -88.3595   34.0469   -3.1969 C   0  0  0  0  0  0  0  0  0  0  0  0
  -89.6841   33.9519   -3.5139 C   0  0  0  0  0  0  0  0  0  0  0  0
  -90.2553   32.8194   -3.5395 O   0  0  0  0  0  0  0  0  0  0  0  0
  -90.4057   35.0480   -3.8066 N   0  0  0  0  0  0  0  0  0  0  0  0
  -89.8296   36.2843   -3.7946 C   0  0  0  0  0  0  0  0  0  0  0  0
  -90.5770   37.3758   -4.0692 N   0  0  0  0  0  0  0  0  0  0  0  0
  -91.4049   34.9975   -4.0526 H   0  0  0  0  0  0  0  0  0  0  0  0
  -92.0788   39.5035   -4.9469 C   0  0  0  0  0  0  0  0  0  0  0  0
  -90.8260   39.7235   -4.3267 O   0  0  0  0  0  0  0  0  0  0  0  0
  -87.6944   27.7916    0.2407 C   0  0  0  0  0  0  0  0  0  0  0  0
  -87.0103   26.8219    0.5960 O   0  0  0  0  0  0  0  0  0  0  0  0
  -89.0781   27.6711   -0.0196 N   0  0  0  0  0  0  0  0  0  0  0  0
  -89.6025   28.5293   -0.2960 H   0  0  0  0  0  0  0  0  0  0  0  0
  -89.8597   26.4704    0.0717 C   0  0  0  0  0  0  0  0  0  0  0  0
  -90.1102   26.1259    1.5213 C   0  0  0  0  0  0  0  0  0  0  0  0
  -90.4848   24.8538    1.8800 C   0  0  0  0  0  0  0  0  0  0  0  0
  -90.7416   24.5041    3.1961 C   0  0  0  0  0  0  0  0  0  0  0  0
  -90.6265   25.4340    4.1932 C   0  0  0  0  0  0  0  0  0  0  0  0
  -90.2486   26.7188    3.8267 C   0  0  0  0  0  0  0  0  0  0  0  0
  -90.1016   27.9132    5.1016 Cl  0  0  0  0  0  0  0  0  0  0  0  0
  -89.9973   27.0576    2.5263 C   0  0  0  0  0  0  0  0  0  0  0  0
  -89.2218   25.2892   -0.6013 C   0  0  0  0  0  0  0  0  0  0  0  0
  -89.7124   25.1078   -2.0132 C   0  0  0  0  0  0  0  0  0  0  0  0
  -90.7400   26.1185   -2.2346 N   0  0  0  0  0  0  0  0  0  0  0  0
  -91.3526   25.7569   -3.0205 H   0  0  0  0  0  0  0  0  0  0  0  0
  -91.3187   26.2162   -1.3657 H   0  0  0  0  0  0  0  0  0  0  0  0
 24 25  1  0  0  0
 25 12  1  0  0  0
 12 13  2  0  0  0
 13 14  1  0  0  0
 14 15  2  0  0  0
 15 16  1  0  0  0
 16 17  2  0  0  0
 17  8  1  0  0  0
  8  9  2  0  0  0
  8 10  1  0  0  0
 10  1  1  0  0  0
  1  2  2  0  0  0
  2  3  1  0  0  0
  3  4  2  0  0  0
  4  5  1  0  0  0
  5  6  2  0  0  0
  6  7  1  0  0  0
  3 26  1  0  0  0
 26 27  2  0  0  0
 26 28  1  0  0  0
 28 30  1  0  0  0
 30 38  1  0  0  0
 38 39  1  0  0  0
 39 40  1  0  0  0
 30 31  1  0  0  0
 31 32  2  0  0  0
 32 33  1  0  0  0
 33 34  2  0  0  0
 34 35  1  0  0  0
 35 36  1  0  0  0
 35 37  2  0  0  0
 17 18  1  0  0  0
 18 19  2  0  0  0
 18 20  1  0  0  0
 20 21  1  0  0  0
 21 22  2  0  0  0
 22 12  1  0  0  0
 21 15  1  0  0  0
  6  1  1  0  0  0
 37 31  1  0  0  0
 10 11  1  0  0  0
 28 29  1  0  0  0
 40 41  1  0  0  0
 40 42  1  0  0  0
 20 23  1  0  0  0
M  END
> <minimizedAffinity>
-8.44518

> <CNNscore>
0.0969594717

> <CNNaffinity>
6.4861097336

> <CNN_VS>
0.6288897991

> <CNNaffinity_variance>
0.0988712907

$$$$
[H]c1c([H])c(Cl)c([H])c(C([H])(N([H])C(=O)c2c([H])c([H])c(Cl)c(N([H])C(=O)c3c([H])c4c([H])nc(OC([H])([H])[H])nc4n([H])c3=O)c2[H])C([H])([H])C([H])([H])N([H])[H])c1[H]


 42 45  0  0  0  0  0  0  0  0999 V2000
  -89.1870   33.0362   -3.4250 C   0  0  0  0  0  0  0  0  0  0  0  0
  -90.5095   32.8637   -3.7476 C   0  0  0  0  0  0  0  0  0  0  0  0
  -91.2159   33.6970   -4.5902 C   0  0  0  0  0  0  0  0  0  0  0  0
  -90.5770   34.7677   -5.1459 C   0  0  0  0  0  0  0  0  0  0  0  0
  -89.2489   35.0027   -4.8697 C   0  0  0  0  0  0  0  0  0  0  0  0
  -88.5702   34.1644   -4.0346 C   0  0  0  0  0  0  0  0  0  0  0  0
  -86.8681   34.4349   -3.6612 Cl  0  0  0  0  0  0  0  0  0  0  0  0
  -88.5024   32.0528   -1.1955 C   0  0  0  0  0  0  0  0  0  0  0  0
  -89.3472   32.6050   -0.4998 O   0  0  0  0  0  0  0  0  0  0  0  0
  -88.3950   32.2364   -2.5999 N   0  0  0  0  0  0  0  0  0  0  0  0
  -87.6039   31.6794   -3.0457 H   0  0  0  0  0  0  0  0  0  0  0  0
  -84.9450   27.7460    1.9457 C   0  0  0  0  0  0  0  0  0  0  0  0
  -86.1447   27.2231    1.7238 N   0  0  0  0  0  0  0  0  0  0  0  0
  -87.1406   27.8697    1.0403 C   0  0  0  0  0  0  0  0  0  0  0  0
  -86.8595   29.1250    0.5689 C   0  0  0  0  0  0  0  0  0  0  0  0
  -87.8205   29.8772   -0.1218 C   0  0  0  0  0  0  0  0  0  0  0  0
  -87.5078   31.1403   -0.5556 C   0  0  0  0  0  0  0  0  0  0  0  0
  -86.2647   31.6509   -0.3149 C   0  0  0  0  0  0  0  0  0  0  0  0
  -85.9635   32.8157   -0.7175 O   0  0  0  0  0  0  0  0  0  0  0  0
  -85.3387   30.9345    0.3464 N   0  0  0  0  0  0  0  0  0  0  0  0
  -85.6199   29.6768    0.7929 C   0  0  0  0  0  0  0  0  0  0  0  0
  -84.6836   28.9819    1.4754 N   0  0  0  0  0  0  0  0  0  0  0  0
  -84.3938   31.2996    0.5343 H   0  0  0  0  0  0  0  0  0  0  0  0
  -82.6786   27.6293    2.7463 C   0  0  0  0  0  0  0  0  0  0  0  0
  -83.9648   27.0470    2.6499 O   0  0  0  0  0  0  0  0  0  0  0  0
  -92.6374   33.3984   -4.9079 C   0  0  0  0  0  0  0  0  0  0  0  0
  -93.1205   33.9041   -5.9303 O   0  0  0  0  0  0  0  0  0  0  0  0
  -93.4004   32.5682   -4.0560 N   0  0  0  0  0  0  0  0  0  0  0  0
  -92.9300   32.1565   -3.2211 H   0  0  0  0  0  0  0  0  0  0  0  0
  -94.7802   32.2113   -4.2281 C   0  0  0  0  0  0  0  0  0  0  0  0
  -95.5252   32.3852   -2.9252 C   0  0  0  0  0  0  0  0  0  0  0  0
  -96.2734   31.3557   -2.4081 C   0  0  0  0  0  0  0  0  0  0  0  0
  -96.9856   31.4829   -1.2261 C   0  0  0  0  0  0  0  0  0  0  0  0
  -96.9621   32.6597   -0.5285 C   0  0  0  0  0  0  0  0  0  0  0  0
  -96.2056   33.6982   -1.0547 C   0  0  0  0  0  0  0  0  0  0  0  0
  -96.1744   35.2081   -0.1641 Cl  0  0  0  0  0  0  0  0  0  0  0  0
  -95.5057   33.5667   -2.2217 C   0  0  0  0  0  0  0  0  0  0  0  0
  -94.9777   30.8035   -4.7121 C   0  0  0  0  0  0  0  0  0  0  0  0
  -95.3024   30.7493   -6.1813 C   0  0  0  0  0  0  0  0  0  0  0  0
  -94.0555   30.9936   -6.8970 N   0  0  0  0  0  0  0  0  0  0  0  0
  -94.3256   31.3578   -7.8552 H   0  0  0  0  0  0  0  0  0  0  0  0
  -93.5080   31.7311   -6.3914 H   0  0  0  0  0  0  0  0  0  0  0  0
 24 25  1  0  0  0
 25 12  1  0  0  0
 12 13  2  0  0  0
 13 14  1  0  0  0
 14 15  2  0  0  0
 15 16  1  0  0  0
 16 17  2  0  0  0
 17  8  1  0  0  0
  8  9  2  0  0  0
  8 10  1  0  0  0
 10  1  1  0  0  0
  1  2  2  0  0  0
  2  3  1  0  0  0
  3  4  2  0  0  0
  4  5  1  0  0  0
  5  6  2  0  0  0
  6  7  1  0  0  0
  3 26  1  0  0  0
 26 27  2  0  0  0
 26 28  1  0  0  0
 28 30  1  0  0  0
 30 38  1  0  0  0
 38 39  1  0  0  0
 39 40  1  0  0  0
 30 31  1  0  0  0
 31 32  2  0  0  0
 32 33  1  0  0  0
 33 34  2  0  0  0
 34 35  1  0  0  0
 35 36  1  0  0  0
 35 37  2  0  0  0
 17 18  1  0  0  0
 18 19  2  0  0  0
 18 20  1  0  0  0
 20 21  1  0  0  0
 21 22  2  0  0  0
 22 12  1  0  0  0
 21 15  1  0  0  0
  6  1  1  0  0  0
 37 31  1  0  0  0
 10 11  1  0  0  0
 28 29  1  0  0  0
 40 41  1  0  0  0
 40 42  1  0  0  0
 20 23  1  0  0  0
M  END
> <minimizedAffinity>
-7.68814

> <CNNscore>
0.0955520347

> <CNNaffinity>
6.2554373741

> <CNN_VS>
0.5977197886

> <CNNaffinity_variance>
0.1548063457

$$$$
[H]c1c([H])c(Cl)c([H])c(C([H])(N([H])C(=O)c2c([H])c([H])c(Cl)c(N([H])C(=O)c3c([H])c4c([H])nc(OC([H])([H])[H])nc4n([H])c3=O)c2[H])C([H])([H])C([H])([H])N([H])[H])c1[H]


 42 45  0  0  0  0  0  0  0  0999 V2000
  -89.9120   31.3842   -2.0684 C   0  0  0  0  0  0  0  0  0  0  0  0
  -89.3414   30.6655   -1.0483 C   0  0  0  0  0  0  0  0  0  0  0  0
  -89.9169   29.5539   -0.4682 C   0  0  0  0  0  0  0  0  0  0  0  0
  -91.1318   29.1281   -0.9222 C   0  0  0  0  0  0  0  0  0  0  0  0
  -91.7636   29.7984   -1.9454 C   0  0  0  0  0  0  0  0  0  0  0  0
  -91.1748   30.8944   -2.5047 C   0  0  0  0  0  0  0  0  0  0  0  0
  -91.9553   31.7751   -3.8182 Cl  0  0  0  0  0  0  0  0  0  0  0  0
  -88.5985   32.5405   -3.8971 C   0  0  0  0  0  0  0  0  0  0  0  0
  -88.2486   31.5402   -4.5132 O   0  0  0  0  0  0  0  0  0  0  0  0
  -89.3947   32.5040   -2.7214 N   0  0  0  0  0  0  0  0  0  0  0  0
  -89.6050   33.4664   -2.3161 H   0  0  0  0  0  0  0  0  0  0  0  0
  -87.0618   38.0595   -6.7692 C   0  0  0  0  0  0  0  0  0  0  0  0
  -88.1085   37.5342   -7.3942 N   0  0  0  0  0  0  0  0  0  0  0  0
  -88.7155   36.3674   -7.0104 C   0  0  0  0  0  0  0  0  0  0  0  0
  -88.1958   35.7247   -5.9177 C   0  0  0  0  0  0  0  0  0  0  0  0
  -88.7318   34.5120   -5.4613 C   0  0  0  0  0  0  0  0  0  0  0  0
  -88.1668   33.8869   -4.3789 C   0  0  0  0  0  0  0  0  0  0  0  0
  -87.0924   34.4525   -3.7547 C   0  0  0  0  0  0  0  0  0  0  0  0
  -86.5665   33.8854   -2.7489 O   0  0  0  0  0  0  0  0  0  0  0  0
  -86.5741   35.6152   -4.1872 N   0  0  0  0  0  0  0  0  0  0  0  0
  -87.1115   36.2597   -5.2625 C   0  0  0  0  0  0  0  0  0  0  0  0
  -86.5621   37.4155   -5.6958 N   0  0  0  0  0  0  0  0  0  0  0  0
  -85.7667   36.0606   -3.7277 H   0  0  0  0  0  0  0  0  0  0  0  0
  -85.0720   39.2767   -7.3610 C   0  0  0  0  0  0  0  0  0  0  0  0
  -86.4778   39.2502   -7.2013 O   0  0  0  0  0  0  0  0  0  0  0  0
  -89.1959   28.8207    0.6056 C   0  0  0  0  0  0  0  0  0  0  0  0
  -89.8667   28.3415    1.5303 O   0  0  0  0  0  0  0  0  0  0  0  0
  -87.7894   28.6903    0.5611 N   0  0  0  0  0  0  0  0  0  0  0  0
  -87.2839   29.0989   -0.2547 H   0  0  0  0  0  0  0  0  0  0  0  0
  -86.9649   28.0288    1.5324 C   0  0  0  0  0  0  0  0  0  0  0  0
  -85.5833   28.6404    1.5397 C   0  0  0  0  0  0  0  0  0  0  0  0
  -84.5930   28.1140    2.3330 C   0  0  0  0  0  0  0  0  0  0  0  0
  -83.3194   28.6581    2.3812 C   0  0  0  0  0  0  0  0  0  0  0  0
  -83.0075   29.7551    1.6252 C   0  0  0  0  0  0  0  0  0  0  0  0
  -84.0113   30.2848    0.8254 C   0  0  0  0  0  0  0  0  0  0  0  0
  -83.6156   31.6914   -0.1434 Cl  0  0  0  0  0  0  0  0  0  0  0  0
  -85.2660   29.7438    0.7827 C   0  0  0  0  0  0  0  0  0  0  0  0
  -86.8366   26.5507    1.3004 C   0  0  0  0  0  0  0  0  0  0  0  0
  -87.4259   26.1307   -0.0199 C   0  0  0  0  0  0  0  0  0  0  0  0
  -88.2841   24.9827    0.2486 N   0  0  0  0  0  0  0  0  0  0  0  0
  -88.3645   24.4480   -0.6632 H   0  0  0  0  0  0  0  0  0  0  0  0
  -87.8252   24.3709    0.9659 H   0  0  0  0  0  0  0  0  0  0  0  0
 24 25  1  0  0  0
 25 12  1  0  0  0
 12 13  2  0  0  0
 13 14  1  0  0  0
 14 15  2  0  0  0
 15 16  1  0  0  0
 16 17  2  0  0  0
 17  8  1  0  0  0
  8  9  2  0  0  0
  8 10  1  0  0  0
 10  1  1  0  0  0
  1  2  2  0  0  0
  2  3  1  0  0  0
  3  4  2  0  0  0
  4  5  1  0  0  0
  5  6  2  0  0  0
  6  7  1  0  0  0
  3 26  1  0  0  0
 26 27  2  0  0  0
 26 28  1  0  0  0
 28 30  1  0  0  0
 30 38  1  0  0  0
 38 39  1  0  0  0
 39 40  1  0  0  0
 30 31  1  0  0  0
 31 32  2  0  0  0
 32 33  1  0  0  0
 33 34  2  0  0  0
 34 35  1  0  0  0
 35 36  1  0  0  0
 35 37  2  0  0  0
 17 18  1  0  0  0
 18 19  2  0  0  0
 18 20  1  0  0  0
 20 21  1  0  0  0
 21 22  2  0  0  0
 22 12  1  0  0  0
 21 15  1  0  0  0
  6  1  1  0  0  0
 37 31  1  0  0  0
 10 11  1  0  0  0
 28 29  1  0  0  0
 40 41  1  0  0  0
 40 42  1  0  0  0
 20 23  1  0  0  0
M  END
> <minimizedAffinity>
-9.58670

> <CNNscore>
0.0661370084

> <CNNaffinity>
6.2784605026

> <CNN_VS>
0.4152385890

> <CNNaffinity_variance>
0.5269632936

$$$$
[H]c1c([H])c(Cl)c([H])c(C([H])(N([H])C(=O)c2c([H])c([H])c(Cl)c(N([H])C(=O)c3c([H])c4c([H])nc(OC([H])([H])[H])nc4n([H])c3=O)c2[H])C([H])([H])C([H])([H])N([H])[H])c1[H]


 42 45  0  0  0  0  0  0  0  0999 V2000
  -89.6392   32.0429   -3.7032 C   0  0  0  0  0  0  0  0  0  0  0  0
  -90.8653   31.5121   -4.0156 C   0  0  0  0  0  0  0  0  0  0  0  0
  -91.7086   32.0256   -4.9792 C   0  0  0  0  0  0  0  0  0  0  0  0
  -91.3173   33.1331   -5.6748 C   0  0  0  0  0  0  0  0  0  0  0  0
  -90.0984   33.7191   -5.4172 C   0  0  0  0  0  0  0  0  0  0  0  0
  -89.2805   33.1929   -4.4607 C   0  0  0  0  0  0  0  0  0  0  0  0
  -87.7119   33.9171   -4.1070 Cl  0  0  0  0  0  0  0  0  0  0  0  0
  -88.6014   31.9570   -1.3962 C   0  0  0  0  0  0  0  0  0  0  0  0
  -89.3291   32.7797   -0.8520 O   0  0  0  0  0  0  0  0  0  0  0  0
  -88.7200   31.5799   -2.7605 N   0  0  0  0  0  0  0  0  0  0  0  0
  -88.0057   30.8518   -3.0677 H   0  0  0  0  0  0  0  0  0  0  0  0
  -83.3721   29.7706    1.5945 C   0  0  0  0  0  0  0  0  0  0  0  0
  -83.2018   31.0608    1.3329 N   0  0  0  0  0  0  0  0  0  0  0  0
  -84.1493   31.8450    0.7292 C   0  0  0  0  0  0  0  0  0  0  0  0
  -85.3306   31.2421    0.3855 C   0  0  0  0  0  0  0  0  0  0  0  0
  -86.3529   31.9541   -0.2580 C   0  0  0  0  0  0  0  0  0  0  0  0
  -87.5109   31.3078   -0.6084 C   0  0  0  0  0  0  0  0  0  0  0  0
  -87.6586   29.9806   -0.3240 C   0  0  0  0  0  0  0  0  0  0  0  0
  -88.7284   29.3752   -0.6383 O   0  0  0  0  0  0  0  0  0  0  0  0
  -86.6823   29.2925    0.2931 N   0  0  0  0  0  0  0  0  0  0  0  0
  -85.5181   29.9060    0.6517 C   0  0  0  0  0  0  0  0  0  0  0  0
  -84.5398   29.1919    1.2505 N   0  0  0  0  0  0  0  0  0  0  0  0
  -86.7756   28.2920    0.5205 H   0  0  0  0  0  0  0  0  0  0  0  0
  -82.6933   27.6916    2.5986 C   0  0  0  0  0  0  0  0  0  0  0  0
  -82.3745   29.0144    2.2097 O   0  0  0  0  0  0  0  0  0  0  0  0
  -93.0008   31.3502   -5.2700 C   0  0  0  0  0  0  0  0  0  0  0  0
  -93.5226   31.5504   -6.3755 O   0  0  0  0  0  0  0  0  0  0  0  0
  -93.6042   30.5158   -4.3021 N   0  0  0  0  0  0  0  0  0  0  0  0
  -93.1046   30.3715   -3.3980 H   0  0  0  0  0  0  0  0  0  0  0  0
  -94.8516   29.8186   -4.4384 C   0  0  0  0  0  0  0  0  0  0  0  0
  -94.6439   28.5328   -5.2042 C   0  0  0  0  0  0  0  0  0  0  0  0
  -93.4666   27.8348   -5.0868 C   0  0  0  0  0  0  0  0  0  0  0  0
  -93.2313   26.6623   -5.7870 C   0  0  0  0  0  0  0  0  0  0  0  0
  -94.1837   26.1581   -6.6302 C   0  0  0  0  0  0  0  0  0  0  0  0
  -95.3719   26.8668   -6.7470 C   0  0  0  0  0  0  0  0  0  0  0  0
  -96.5938   26.2244   -7.8276 Cl  0  0  0  0  0  0  0  0  0  0  0  0
  -95.5976   28.0234   -6.0539 C   0  0  0  0  0  0  0  0  0  0  0  0
  -95.9146   30.6243   -5.1284 C   0  0  0  0  0  0  0  0  0  0  0  0
  -96.5948   31.5864   -4.1911 C   0  0  0  0  0  0  0  0  0  0  0  0
  -95.7261   32.7525   -4.0818 N   0  0  0  0  0  0  0  0  0  0  0  0
  -95.9653   33.2202   -3.1611 H   0  0  0  0  0  0  0  0  0  0  0  0
  -94.7269   32.4354   -4.0562 H   0  0  0  0  0  0  0  0  0  0  0  0
 24 25  1  0  0  0
 25 12  1  0  0  0
 12 13  2  0  0  0
 13 14  1  0  0  0
 14 15  2  0  0  0
 15 16  1  0  0  0
 16 17  2  0  0  0
 17  8  1  0  0  0
  8  9  2  0  0  0
  8 10  1  0  0  0
 10  1  1  0  0  0
  1  2  2  0  0  0
  2  3  1  0  0  0
  3  4  2  0  0  0
  4  5  1  0  0  0
  5  6  2  0  0  0
  6  7  1  0  0  0
  3 26  1  0  0  0
 26 27  2  0  0  0
 26 28  1  0  0  0
 28 30  1  0  0  0
 30 38  1  0  0  0
 38 39  1  0  0  0
 39 40  1  0  0  0
 30 31  1  0  0  0
 31 32  2  0  0  0
 32 33  1  0  0  0
 33 34  2  0  0  0
 34 35  1  0  0  0
 35 36  1  0  0  0
 35 37  2  0  0  0
 17 18  1  0  0  0
 18 19  2  0  0  0
 18 20  1  0  0  0
 20 21  1  0  0  0
 21 22  2  0  0  0
 22 12  1  0  0  0
 21 15  1  0  0  0
  6  1  1  0  0  0
 37 31  1  0  0  0
 10 11  1  0  0  0
 28 29  1  0  0  0
 40 41  1  0  0  0
 40 42  1  0  0  0
 20 23  1  0  0  0
M  END
> <minimizedAffinity>
-7.56248

> <CNNscore>
0.0632526726

> <CNNaffinity>
5.8495187759

> <CNN_VS>
0.3699977100

> <CNNaffinity_variance>
0.4290599823

$$$$
[H]c1c([H])c(Cl)c([H])c(C([H])(N([H])C(=O)c2c([H])c([H])c(Cl)c(N([H])C(=O)c3c([H])c4c([H])nc(OC([H])([H])[H])nc4n([H])c3=O)c2[H])C([H])([H])C([H])([H])N([H])[H])c1[H]


 42 45  0  0  0  0  0  0  0  0999 V2000
  -89.2749   33.2608   -4.2225 C   0  0  0  0  0  0  0  0  0  0  0  0
  -90.4934   32.7230   -4.5522 C   0  0  0  0  0  0  0  0  0  0  0  0
  -91.3763   33.2951   -5.4447 C   0  0  0  0  0  0  0  0  0  0  0  0
  -91.0352   34.4720   -6.0463 C   0  0  0  0  0  0  0  0  0  0  0  0
  -89.8269   35.0694   -5.7660 C   0  0  0  0  0  0  0  0  0  0  0  0
  -88.9692   34.4846   -4.8811 C   0  0  0  0  0  0  0  0  0  0  0  0
  -87.4128   35.2216   -4.5010 Cl  0  0  0  0  0  0  0  0  0  0  0  0
  -88.4004   32.6195   -1.9355 C   0  0  0  0  0  0  0  0  0  0  0  0
  -89.3722   32.9726   -1.2771 O   0  0  0  0  0  0  0  0  0  0  0  0
  -88.3181   32.7432   -3.3481 N   0  0  0  0  0  0  0  0  0  0  0  0
  -87.4017   32.3860   -3.7570 H   0  0  0  0  0  0  0  0  0  0  0  0
  -83.9082   29.5766    1.4750 C   0  0  0  0  0  0  0  0  0  0  0  0
  -84.9297   28.7499    1.2874 N   0  0  0  0  0  0  0  0  0  0  0  0
  -86.0469   29.0748    0.5640 C   0  0  0  0  0  0  0  0  0  0  0  0
  -86.0899   30.3284    0.0129 C   0  0  0  0  0  0  0  0  0  0  0  0
  -87.2004   30.7635   -0.7245 C   0  0  0  0  0  0  0  0  0  0  0  0
  -87.2155   32.0352   -1.2385 C   0  0  0  0  0  0  0  0  0  0  0  0
  -86.1492   32.8623   -1.0314 C   0  0  0  0  0  0  0  0  0  0  0  0
  -86.1507   34.0380   -1.5080 O   0  0  0  0  0  0  0  0  0  0  0  0
  -85.0813   32.4508   -0.3257 N   0  0  0  0  0  0  0  0  0  0  0  0
  -85.0374   31.1933    0.2008 C   0  0  0  0  0  0  0  0  0  0  0  0
  -83.9653   30.8064    0.9263 N   0  0  0  0  0  0  0  0  0  0  0  0
  -84.2650   33.0576   -0.1618 H   0  0  0  0  0  0  0  0  0  0  0  0
  -82.6791   27.8386    2.5973 C   0  0  0  0  0  0  0  0  0  0  0  0
  -82.7930   29.1984    2.2225 O   0  0  0  0  0  0  0  0  0  0  0  0
  -92.6563   32.6094   -5.7643 C   0  0  0  0  0  0  0  0  0  0  0  0
  -93.0260   32.5957   -6.9465 O   0  0  0  0  0  0  0  0  0  0  0  0
  -93.4177   32.0043   -4.7391 N   0  0  0  0  0  0  0  0  0  0  0  0
  -93.0421   32.0326   -3.7664 H   0  0  0  0  0  0  0  0  0  0  0  0
  -94.6735   31.3273   -4.8984 C   0  0  0  0  0  0  0  0  0  0  0  0
  -94.4555   29.9793   -5.5451 C   0  0  0  0  0  0  0  0  0  0  0  0
  -95.1110   29.6500   -6.7065 C   0  0  0  0  0  0  0  0  0  0  0  0
  -94.9517   28.4172   -7.3193 C   0  0  0  0  0  0  0  0  0  0  0  0
  -94.1209   27.4768   -6.7739 C   0  0  0  0  0  0  0  0  0  0  0  0
  -93.4608   27.8129   -5.5995 C   0  0  0  0  0  0  0  0  0  0  0  0
  -92.3966   26.6097   -4.8971 Cl  0  0  0  0  0  0  0  0  0  0  0  0
  -93.6227   29.0306   -4.9996 C   0  0  0  0  0  0  0  0  0  0  0  0
  -95.6692   32.0989   -5.7161 C   0  0  0  0  0  0  0  0  0  0  0  0
  -96.4511   33.0780   -4.8814 C   0  0  0  0  0  0  0  0  0  0  0  0
  -96.0702   32.8456   -3.4931 N   0  0  0  0  0  0  0  0  0  0  0  0
  -96.8694   33.2071   -2.8978 H   0  0  0  0  0  0  0  0  0  0  0  0
  -95.9631   31.8147   -3.3342 H   0  0  0  0  0  0  0  0  0  0  0  0
 24 25  1  0  0  0
 25 12  1  0  0  0
 12 13  2  0  0  0
 13 14  1  0  0  0
 14 15  2  0  0  0
 15 16  1  0  0  0
 16 17  2  0  0  0
 17  8  1  0  0  0
  8  9  2  0  0  0
  8 10  1  0  0  0
 10  1  1  0  0  0
  1  2  2  0  0  0
  2  3  1  0  0  0
  3  4  2  0  0  0
  4  5  1  0  0  0
  5  6  2  0  0  0
  6  7  1  0  0  0
  3 26  1  0  0  0
 26 27  2  0  0  0
 26 28  1  0  0  0
 28 30  1  0  0  0
 30 38  1  0  0  0
 38 39  1  0  0  0
 39 40  1  0  0  0
 30 31  1  0  0  0
 31 32  2  0  0  0
 32 33  1  0  0  0
 33 34  2  0  0  0
 34 35  1  0  0  0
 35 36  1  0  0  0
 35 37  2  0  0  0
 17 18  1  0  0  0
 18 19  2  0  0  0
 18 20  1  0  0  0
 20 21  1  0  0  0
 21 22  2  0  0  0
 22 12  1  0  0  0
 21 15  1  0  0  0
  6  1  1  0  0  0
 37 31  1  0  0  0
 10 11  1  0  0  0
 28 29  1  0  0  0
 40 41  1  0  0  0
 40 42  1  0  0  0
 20 23  1  0  0  0
M  END
> <minimizedAffinity>
-7.34683

> <CNNscore>
0.0629967451

> <CNNaffinity>
5.9898376465

> <CNN_VS>
0.3773402870

> <CNNaffinity_variance>
0.3479129374

$$$$
[H]c1c([H])c(Cl)c([H])c(C([H])(N([H])C(=O)c2c([H])c([H])c(Cl)c(N([H])C(=O)c3c([H])c4c([H])nc(OC([H])([H])[H])nc4n([H])c3=O)c2[H])C([H])([H])C([H])([H])N([H])[H])c1[H]


 42 45  0  0  0  0  0  0  0  0999 V2000
  -87.3403   31.6032   -1.3425 C   0  0  0  0  0  0  0  0  0  0  0  0
  -87.7645   30.3660   -0.9275 C   0  0  0  0  0  0  0  0  0  0  0  0
  -87.1521   29.6308    0.0664 C   0  0  0  0  0  0  0  0  0  0  0  0
  -86.0519   30.1488    0.6864 C   0  0  0  0  0  0  0  0  0  0  0  0
  -85.5702   31.3867    0.3243 C   0  0  0  0  0  0  0  0  0  0  0  0
  -86.1929   32.0962   -0.6604 C   0  0  0  0  0  0  0  0  0  0  0  0
  -85.6037   33.6855   -1.1473 Cl  0  0  0  0  0  0  0  0  0  0  0  0
  -87.9838   32.1818   -3.7210 C   0  0  0  0  0  0  0  0  0  0  0  0
  -87.5362   31.1795   -4.2665 O   0  0  0  0  0  0  0  0  0  0  0  0
  -87.9072   32.4192   -2.3227 N   0  0  0  0  0  0  0  0  0  0  0  0
  -88.3475   33.3405   -2.0195 H   0  0  0  0  0  0  0  0  0  0  0  0
  -91.1630   36.0259   -7.7443 C   0  0  0  0  0  0  0  0  0  0  0  0
  -91.8315   34.8845   -7.6323 N   0  0  0  0  0  0  0  0  0  0  0  0
  -91.4429   33.8534   -6.8182 C   0  0  0  0  0  0  0  0  0  0  0  0
  -90.2974   34.0331   -6.0884 C   0  0  0  0  0  0  0  0  0  0  0  0
  -89.8045   33.0274   -5.2446 C   0  0  0  0  0  0  0  0  0  0  0  0
  -88.6403   33.2367   -4.5501 C   0  0  0  0  0  0  0  0  0  0  0  0
  -87.9759   34.4220   -4.6834 C   0  0  0  0  0  0  0  0  0  0  0  0
  -86.9017   34.6279   -4.0405 O   0  0  0  0  0  0  0  0  0  0  0  0
  -88.4435   35.3903   -5.4904 N   0  0  0  0  0  0  0  0  0  0  0  0
  -89.5967   35.2115   -6.1965 C   0  0  0  0  0  0  0  0  0  0  0  0
  -90.0380   36.1876   -7.0197 N   0  0  0  0  0  0  0  0  0  0  0  0
  -87.9597   36.2931   -5.6015 H   0  0  0  0  0  0  0  0  0  0  0  0
  -91.4807   38.3795   -8.1325 C   0  0  0  0  0  0  0  0  0  0  0  0
  -91.5995   37.0456   -8.5899 O   0  0  0  0  0  0  0  0  0  0  0  0
  -87.7161   28.3157    0.4703 C   0  0  0  0  0  0  0  0  0  0  0  0
  -86.9548   27.5002    1.0088 O   0  0  0  0  0  0  0  0  0  0  0  0
  -89.0774   28.0193    0.2333 N   0  0  0  0  0  0  0  0  0  0  0  0
  -89.6713   28.7558   -0.2056 H   0  0  0  0  0  0  0  0  0  0  0  0
  -89.7489   26.7911    0.5521 C   0  0  0  0  0  0  0  0  0  0  0  0
  -89.8710   26.6430    2.0507 C   0  0  0  0  0  0  0  0  0  0  0  0
  -90.5783   27.5628    2.7860 C   0  0  0  0  0  0  0  0  0  0  0  0
  -90.6972   27.4716    4.1638 C   0  0  0  0  0  0  0  0  0  0  0  0
  -90.1022   26.4429    4.8420 C   0  0  0  0  0  0  0  0  0  0  0  0
  -89.3874   25.5157    4.0955 C   0  0  0  0  0  0  0  0  0  0  0  0
  -88.6225   24.1972    4.9615 Cl  0  0  0  0  0  0  0  0  0  0  0  0
  -89.2733   25.6117    2.7366 C   0  0  0  0  0  0  0  0  0  0  0  0
  -89.0624   25.5741    0.0017 C   0  0  0  0  0  0  0  0  0  0  0  0
  -89.6100   25.1735   -1.3423 C   0  0  0  0  0  0  0  0  0  0  0  0
  -89.1943   26.2013   -2.2895 N   0  0  0  0  0  0  0  0  0  0  0  0
  -89.8811   26.1622   -3.0959 H   0  0  0  0  0  0  0  0  0  0  0  0
  -89.2600   27.1406   -1.8280 H   0  0  0  0  0  0  0  0  0  0  0  0
 24 25  1  0  0  0
 25 12  1  0  0  0
 12 13  2  0  0  0
 13 14  1  0  0  0
 14 15  2  0  0  0
 15 16  1  0  0  0
 16 17  2  0  0  0
 17  8  1  0  0  0
  8  9  2  0  0  0
  8 10  1  0  0  0
 10  1  1  0  0  0
  1  2  2  0  0  0
  2  3  1  0  0  0
  3  4  2  0  0  0
  4  5  1  0  0  0
  5  6  2  0  0  0
  6  7  1  0  0  0
  3 26  1  0  0  0
 26 27  2  0  0  0
 26 28  1  0  0  0
 28 30  1  0  0  0
 30 38  1  0  0  0
 38 39  1  0  0  0
 39 40  1  0  0  0
 30 31  1  0  0  0
 31 32  2  0  0  0
 32 33  1  0  0  0
 33 34  2  0  0  0
 34 35  1  0  0  0
 35 36  1  0  0  0
 35 37  2  0  0  0
 17 18  1  0  0  0
 18 19  2  0  0  0
 18 20  1  0  0  0
 20 21  1  0  0  0
 21 22  2  0  0  0
 22 12  1  0  0  0
 21 15  1  0  0  0
  6  1  1  0  0  0
 37 31  1  0  0  0
 10 11  1  0  0  0
 28 29  1  0  0  0
 40 41  1  0  0  0
 40 42  1  0  0  0
 20 23  1  0  0  0
M  END
> <minimizedAffinity>
-8.53921

> <CNNscore>
0.0601523295

> <CNNaffinity>
6.3598504066

> <CNN_VS>
0.3825598061

> <CNNaffinity_variance>
0.0747902617

$$$$
[H]c1c([H])c(Cl)c([H])c(C([H])(N([H])C(=O)c2c([H])c([H])c(Cl)c(N([H])C(=O)c3c([H])c4c([H])nc(OC([H])([H])[H])nc4n([H])c3=O)c2[H])C([H])([H])C([H])([H])N([H])[H])c1[H]


 42 45  0  0  0  0  0  0  0  0999 V2000
  -88.4541   32.5041   -1.3870 C   0  0  0  0  0  0  0  0  0  0  0  0
  -89.1785   33.2509   -2.2815 C   0  0  0  0  0  0  0  0  0  0  0  0
  -88.6680   34.3178   -2.9918 C   0  0  0  0  0  0  0  0  0  0  0  0
  -87.3624   34.6697   -2.8047 C   0  0  0  0  0  0  0  0  0  0  0  0
  -86.5733   33.9642   -1.9243 C   0  0  0  0  0  0  0  0  0  0  0  0
  -87.0995   32.9119   -1.2339 C   0  0  0  0  0  0  0  0  0  0  0  0
  -86.1163   31.9854   -0.1003 Cl  0  0  0  0  0  0  0  0  0  0  0  0
  -88.8439   30.0321   -1.0076 C   0  0  0  0  0  0  0  0  0  0  0  0
  -88.4057   29.6250   -2.0776 O   0  0  0  0  0  0  0  0  0  0  0  0
  -88.8838   31.4042   -0.6428 N   0  0  0  0  0  0  0  0  0  0  0  0
  -89.2964   31.5790    0.3236 H   0  0  0  0  0  0  0  0  0  0  0  0
  -90.3740   25.4141    3.1641 C   0  0  0  0  0  0  0  0  0  0  0  0
  -89.0584   25.5896    3.1906 N   0  0  0  0  0  0  0  0  0  0  0  0
  -88.4023   26.5304    2.4412 C   0  0  0  0  0  0  0  0  0  0  0  0
  -89.1675   27.3227    1.6265 C   0  0  0  0  0  0  0  0  0  0  0  0
  -88.5871   28.2981    0.8031 C   0  0  0  0  0  0  0  0  0  0  0  0
  -89.3855   29.0539   -0.0172 C   0  0  0  0  0  0  0  0  0  0  0  0
  -90.7359   28.8525   -0.0211 C   0  0  0  0  0  0  0  0  0  0  0  0
  -91.4837   29.5506   -0.7715 O   0  0  0  0  0  0  0  0  0  0  0  0
  -91.2985   27.9191    0.7663 N   0  0  0  0  0  0  0  0  0  0  0  0
  -90.5314   27.1497    1.5908 C   0  0  0  0  0  0  0  0  0  0  0  0
  -91.1131   26.2015    2.3576 N   0  0  0  0  0  0  0  0  0  0  0  0
  -92.3154   27.7545    0.7815 H   0  0  0  0  0  0  0  0  0  0  0  0
  -90.6686   23.0855    3.6950 C   0  0  0  0  0  0  0  0  0  0  0  0
  -90.9946   24.4396    3.9456 O   0  0  0  0  0  0  0  0  0  0  0  0
  -89.5271   35.0372   -3.9690 C   0  0  0  0  0  0  0  0  0  0  0  0
  -88.9722   35.7797   -4.7908 O   0  0  0  0  0  0  0  0  0  0  0  0
  -90.9305   34.8735   -3.9423 N   0  0  0  0  0  0  0  0  0  0  0  0
  -91.3353   34.2184   -3.2388 H   0  0  0  0  0  0  0  0  0  0  0  0
  -91.8787   35.5153   -4.8082 C   0  0  0  0  0  0  0  0  0  0  0  0
  -92.5720   36.6385   -4.0730 C   0  0  0  0  0  0  0  0  0  0  0  0
  -91.9591   37.8595   -3.9294 C   0  0  0  0  0  0  0  0  0  0  0  0
  -92.5545   38.9078   -3.2459 C   0  0  0  0  0  0  0  0  0  0  0  0
  -93.7928   38.7523   -2.6851 C   0  0  0  0  0  0  0  0  0  0  0  0
  -94.4087   37.5165   -2.8315 C   0  0  0  0  0  0  0  0  0  0  0  0
  -95.9949   37.3133   -2.1129 Cl  0  0  0  0  0  0  0  0  0  0  0  0
  -93.8158   36.4861   -3.5064 C   0  0  0  0  0  0  0  0  0  0  0  0
  -92.9202   34.5800   -5.3521 C   0  0  0  0  0  0  0  0  0  0  0  0
  -92.6595   33.1504   -4.9585 C   0  0  0  0  0  0  0  0  0  0  0  0
  -91.7290   32.6065   -5.9408 N   0  0  0  0  0  0  0  0  0  0  0  0
  -91.8586   31.5545   -5.9270 H   0  0  0  0  0  0  0  0  0  0  0  0
  -91.9811   32.9708   -6.8912 H   0  0  0  0  0  0  0  0  0  0  0  0
 24 25  1  0  0  0
 25 12  1  0  0  0
 12 13  2  0  0  0
 13 14  1  0  0  0
 14 15  2  0  0  0
 15 16  1  0  0  0
 16 17  2  0  0  0
 17  8  1  0  0  0
  8  9  2  0  0  0
  8 10  1  0  0  0
 10  1  1  0  0  0
  1  2  2  0  0  0
  2  3  1  0  0  0
  3  4  2  0  0  0
  4  5  1  0  0  0
  5  6  2  0  0  0
  6  7  1  0  0  0
  3 26  1  0  0  0
 26 27  2  0  0  0
 26 28  1  0  0  0
 28 30  1  0  0  0
 30 38  1  0  0  0
 38 39  1  0  0  0
 39 40  1  0  0  0
 30 31  1  0  0  0
 31 32  2  0  0  0
 32 33  1  0  0  0
 33 34  2  0  0  0
 34 35  1  0  0  0
 35 36  1  0  0  0
 35 37  2  0  0  0
 17 18  1  0  0  0
 18 19  2  0  0  0
 18 20  1  0  0  0
 20 21  1  0  0  0
 21 22  2  0  0  0
 22 12  1  0  0  0
 21 15  1  0  0  0
  6  1  1  0  0  0
 37 31  1  0  0  0
 10 11  1  0  0  0
 28 29  1  0  0  0
 40 41  1  0  0  0
 40 42  1  0  0  0
 20 23  1  0  0  0
M  END
> <minimizedAffinity>
-7.70748

> <CNNscore>
0.0600824654

> <CNNaffinity>
5.7657051086

> <CNN_VS>
0.3464177847

> <CNNaffinity_variance>
0.2856459916

$$$$
[H]c1nc(N([H])c2c([H])c([H])c(Cl)c([H])c2Cl)c2c(n1)c([H])c([H])c1nc(C(=O)N([H])[H])sc12


 28 31  0  0  0  0  0  0  0  0999 V2000
  -86.2845   33.1518   -1.6053 C   0  0  0  0  0  0  0  0  0  0  0  0
  -85.0050   33.2480   -1.3222 N   0  0  0  0  0  0  0  0  0  0  0  0
  -84.4287   32.3792   -0.5465 C   0  0  0  0  0  0  0  0  0  0  0  0
  -83.0765   32.3895   -0.1587 C   0  0  0  0  0  0  0  0  0  0  0  0
  -82.6178   31.4124    0.6833 C   0  0  0  0  0  0  0  0  0  0  0  0
  -83.3852   30.3916    1.1977 C   0  0  0  0  0  0  0  0  0  0  0  0
  -82.8798   29.4762    2.0347 N   0  0  0  0  0  0  0  0  0  0  0  0
  -83.7084   28.5105    2.5167 C   0  0  0  0  0  0  0  0  0  0  0  0
  -84.9725   28.5203    2.1351 N   0  0  0  0  0  0  0  0  0  0  0  0
  -85.5568   29.4054    1.2960 C   0  0  0  0  0  0  0  0  0  0  0  0
  -84.7320   30.3837    0.8074 C   0  0  0  0  0  0  0  0  0  0  0  0
  -85.2071   31.3644   -0.0402 C   0  0  0  0  0  0  0  0  0  0  0  0
  -86.7153   31.7596   -0.7344 S   0  0  0  0  0  0  0  0  0  0  0  0
  -86.6005   34.7216   -3.5434 N   0  0  0  0  0  0  0  0  0  0  0  0
  -87.1267   34.0176   -2.4534 C   0  0  0  0  0  0  0  0  0  0  0  0
  -88.3335   34.1065   -2.1701 O   0  0  0  0  0  0  0  0  0  0  0  0
  -87.1204   35.5316   -3.9454 H   0  0  0  0  0  0  0  0  0  0  0  0
  -85.6695   34.4329   -3.9645 H   0  0  0  0  0  0  0  0  0  0  0  0
  -86.8813   29.2643    0.8542 N   0  0  0  0  0  0  0  0  0  0  0  0
  -87.4260   30.0560    0.5335 H   0  0  0  0  0  0  0  0  0  0  0  0
  -87.5379   28.0046    0.7894 C   0  0  0  0  0  0  0  0  0  0  0  0
  -88.0829   27.3479    1.8445 C   0  0  0  0  0  0  0  0  0  0  0  0
  -88.7467   26.1425    1.6043 C   0  0  0  0  0  0  0  0  0  0  0  0
  -88.8711   25.6002    0.3590 C   0  0  0  0  0  0  0  0  0  0  0  0
  -89.7202   24.0873    0.1600 Cl  0  0  0  0  0  0  0  0  0  0  0  0
  -88.3317   26.2421   -0.7249 C   0  0  0  0  0  0  0  0  0  0  0  0
  -87.6753   27.4301   -0.4961 C   0  0  0  0  0  0  0  0  0  0  0  0
  -86.9756   28.2315   -1.9030 Cl  0  0  0  0  0  0  0  0  0  0  0  0
 14 15  1  0  0  0
 15 16  2  0  0  0
 15  1  1  0  0  0
  1  2  2  0  0  0
  2  3  1  0  0  0
  3  4  2  0  0  0
  4  5  1  0  0  0
  5  6  2  0  0  0
  6  7  1  0  0  0
  7  8  2  0  0  0
  8  9  1  0  0  0
  9 10  2  0  0  0
 10 19  1  0  0  0
 19 21  1  0  0  0
 21 22  2  0  0  0
 22 23  1  0  0  0
 23 24  2  0  0  0
 24 25  1  0  0  0
 24 26  1  0  0  0
 26 27  2  0  0  0
 27 28  1  0  0  0
 10 11  1  0  0  0
 11 12  2  0  0  0
 12 13  1  0  0  0
 13  1  1  0  0  0
 12  3  1  0  0  0
 11  6  1  0  0  0
 27 21  1  0  0  0
 14 17  1  0  0  0
 14 18  1  0  0  0
 19 20  1  0  0  0
M  END
> <minimizedAffinity>
-9.23032

> <CNNscore>
0.5073398352

> <CNNaffinity>
7.0754294395

> <CNN_VS>
3.5896472931

> <CNNaffinity_variance>
0.2064292431

$$$$
[H]c1nc(N([H])c2c([H])c([H])c(Cl)c([H])c2Cl)c2c(n1)c([H])c([H])c1nc(C(=O)N([H])[H])sc12


 28 31  0  0  0  0  0  0  0  0999 V2000
  -84.8292   32.0247   -0.2958 C   0  0  0  0  0  0  0  0  0  0  0  0
  -84.0257   31.3051    0.4546 N   0  0  0  0  0  0  0  0  0  0  0  0
  -84.4230   30.1767    0.9620 C   0  0  0  0  0  0  0  0  0  0  0  0
  -83.6627   29.3328    1.7916 C   0  0  0  0  0  0  0  0  0  0  0  0
  -84.2284   28.1801    2.2665 C   0  0  0  0  0  0  0  0  0  0  0  0
  -85.5119   27.7625    1.9952 C   0  0  0  0  0  0  0  0  0  0  0  0
  -86.0138   26.6317    2.5085 N   0  0  0  0  0  0  0  0  0  0  0  0
  -87.2988   26.2983    2.2099 C   0  0  0  0  0  0  0  0  0  0  0  0
  -87.9906   27.1051    1.4263 N   0  0  0  0  0  0  0  0  0  0  0  0
  -87.5576   28.2591    0.8696 C   0  0  0  0  0  0  0  0  0  0  0  0
  -86.2661   28.6055    1.1664 C   0  0  0  0  0  0  0  0  0  0  0  0
  -85.7075   29.7715    0.6822 C   0  0  0  0  0  0  0  0  0  0  0  0
  -86.2317   31.0680   -0.2959 S   0  0  0  0  0  0  0  0  0  0  0  0
  -85.4550   33.8250   -1.9351 N   0  0  0  0  0  0  0  0  0  0  0  0
  -84.5838   33.3179   -0.9634 C   0  0  0  0  0  0  0  0  0  0  0  0
  -83.5681   33.9543   -0.6351 O   0  0  0  0  0  0  0  0  0  0  0  0
  -85.1339   34.5704   -2.5903 H   0  0  0  0  0  0  0  0  0  0  0  0
  -86.4465   33.4519   -2.0083 H   0  0  0  0  0  0  0  0  0  0  0  0
  -88.3282   28.9893   -0.0481 N   0  0  0  0  0  0  0  0  0  0  0  0
  -88.2436   29.9948   -0.1377 H   0  0  0  0  0  0  0  0  0  0  0  0
  -89.2494   28.3720   -0.9383 C   0  0  0  0  0  0  0  0  0  0  0  0
  -88.9227   27.7476   -2.0980 C   0  0  0  0  0  0  0  0  0  0  0  0
  -89.9423   27.1382   -2.8330 C   0  0  0  0  0  0  0  0  0  0  0  0
  -91.2470   27.1427   -2.4357 C   0  0  0  0  0  0  0  0  0  0  0  0
  -92.4504   26.3524   -3.4239 Cl  0  0  0  0  0  0  0  0  0  0  0  0
  -91.6056   27.7646   -1.2685 C   0  0  0  0  0  0  0  0  0  0  0  0
  -90.6066   28.3682   -0.5390 C   0  0  0  0  0  0  0  0  0  0  0  0
  -91.0928   29.1758    0.9520 Cl  0  0  0  0  0  0  0  0  0  0  0  0
 14 15  1  0  0  0
 15 16  2  0  0  0
 15  1  1  0  0  0
  1  2  2  0  0  0
  2  3  1  0  0  0
  3  4  2  0  0  0
  4  5  1  0  0  0
  5  6  2  0  0  0
  6  7  1  0  0  0
  7  8  2  0  0  0
  8  9  1  0  0  0
  9 10  2  0  0  0
 10 19  1  0  0  0
 19 21  1  0  0  0
 21 22  2  0  0  0
 22 23  1  0  0  0
 23 24  2  0  0  0
 24 25  1  0  0  0
 24 26  1  0  0  0
 26 27  2  0  0  0
 27 28  1  0  0  0
 10 11  1  0  0  0
 11 12  2  0  0  0
 12 13  1  0  0  0
 13  1  1  0  0  0
 12  3  1  0  0  0
 11  6  1  0  0  0
 27 21  1  0  0  0
 14 17  1  0  0  0
 14 18  1  0  0  0
 19 20  1  0  0  0
M  END
> <minimizedAffinity>
-8.15944

> <CNNscore>
0.4948946238

> <CNNaffinity>
6.9847784042

> <CNN_VS>
3.4567291737

> <CNNaffinity_variance>
0.1341998428

$$$$
[H]c1nc(N([H])c2c([H])c([H])c(Cl)c([H])c2Cl)c2c(n1)c([H])c([H])c1nc(C(=O)N([H])[H])sc12


 28 31  0  0  0  0  0  0  0  0999 V2000
  -87.0380   27.1648    1.8051 C   0  0  0  0  0  0  0  0  0  0  0  0
  -85.8065   27.1353    2.2624 N   0  0  0  0  0  0  0  0  0  0  0  0
  -84.9779   28.1022    2.0033 C   0  0  0  0  0  0  0  0  0  0  0  0
  -83.6363   28.1719    2.4202 C   0  0  0  0  0  0  0  0  0  0  0  0
  -82.8793   29.2510    2.0504 C   0  0  0  0  0  0  0  0  0  0  0  0
  -83.3287   30.3036    1.2853 C   0  0  0  0  0  0  0  0  0  0  0  0
  -82.5302   31.3220    0.9401 N   0  0  0  0  0  0  0  0  0  0  0  0
  -83.0437   32.3146    0.1638 C   0  0  0  0  0  0  0  0  0  0  0  0
  -84.3067   32.2279   -0.2117 N   0  0  0  0  0  0  0  0  0  0  0  0
  -85.1750   31.2373    0.0945 C   0  0  0  0  0  0  0  0  0  0  0  0
  -84.6671   30.2313    0.8731 C   0  0  0  0  0  0  0  0  0  0  0  0
  -85.4405   29.1476    1.2383 C   0  0  0  0  0  0  0  0  0  0  0  0
  -87.0443   28.6360    0.9579 S   0  0  0  0  0  0  0  0  0  0  0  0
  -88.5827   25.3894    0.9206 N   0  0  0  0  0  0  0  0  0  0  0  0
  -88.1284   26.1855    1.9791 C   0  0  0  0  0  0  0  0  0  0  0  0
  -88.6401   26.0846    3.1071 O   0  0  0  0  0  0  0  0  0  0  0  0
  -89.5160   24.9268    0.9748 H   0  0  0  0  0  0  0  0  0  0  0  0
  -87.9780   25.2541    0.0583 H   0  0  0  0  0  0  0  0  0  0  0  0
  -86.5338   31.2919   -0.2516 N   0  0  0  0  0  0  0  0  0  0  0  0
  -87.2418   30.7981    0.2787 H   0  0  0  0  0  0  0  0  0  0  0  0
  -87.0171   32.0682   -1.3407 C   0  0  0  0  0  0  0  0  0  0  0  0
  -86.9700   33.4220   -1.4220 C   0  0  0  0  0  0  0  0  0  0  0  0
  -87.4354   34.0328   -2.5888 C   0  0  0  0  0  0  0  0  0  0  0  0
  -87.9320   33.3292   -3.6465 C   0  0  0  0  0  0  0  0  0  0  0  0
  -88.4899   34.1841   -5.0632 Cl  0  0  0  0  0  0  0  0  0  0  0  0
  -87.9904   31.9612   -3.5925 C   0  0  0  0  0  0  0  0  0  0  0  0
  -87.5345   31.3520   -2.4456 C   0  0  0  0  0  0  0  0  0  0  0  0
  -87.6331   29.5917   -2.3915 Cl  0  0  0  0  0  0  0  0  0  0  0  0
 14 15  1  0  0  0
 15 16  2  0  0  0
 15  1  1  0  0  0
  1  2  2  0  0  0
  2  3  1  0  0  0
  3  4  2  0  0  0
  4  5  1  0  0  0
  5  6  2  0  0  0
  6  7  1  0  0  0
  7  8  2  0  0  0
  8  9  1  0  0  0
  9 10  2  0  0  0
 10 19  1  0  0  0
 19 21  1  0  0  0
 21 22  2  0  0  0
 22 23  1  0  0  0
 23 24  2  0  0  0
 24 25  1  0  0  0
 24 26  1  0  0  0
 26 27  2  0  0  0
 27 28  1  0  0  0
 10 11  1  0  0  0
 11 12  2  0  0  0
 12 13  1  0  0  0
 13  1  1  0  0  0
 12  3  1  0  0  0
 11  6  1  0  0  0
 27 21  1  0  0  0
 14 17  1  0  0  0
 14 18  1  0  0  0
 19 20  1  0  0  0
M  END
> <minimizedAffinity>
-9.50613

> <CNNscore>
0.4582787454

> <CNNaffinity>
7.0122728348

> <CNN_VS>
3.2135756016

> <CNNaffinity_variance>
0.1588097513

$$$$
[H]c1nc(N([H])c2c([H])c([H])c(Cl)c([H])c2Cl)c2c(n1)c([H])c([H])c1nc(C(=O)N([H])[H])sc12


 28 31  0  0  0  0  0  0  0  0999 V2000
  -84.2035   29.6431    1.4845 C   0  0  0  0  0  0  0  0  0  0  0  0
  -83.6428   30.7197    0.9816 N   0  0  0  0  0  0  0  0  0  0  0  0
  -84.3328   31.5554    0.2646 C   0  0  0  0  0  0  0  0  0  0  0  0
  -83.8398   32.7264   -0.3391 C   0  0  0  0  0  0  0  0  0  0  0  0
  -84.6888   33.4995   -1.0845 C   0  0  0  0  0  0  0  0  0  0  0  0
  -86.0203   33.2241   -1.3006 C   0  0  0  0  0  0  0  0  0  0  0  0
  -86.7942   34.0120   -2.0584 N   0  0  0  0  0  0  0  0  0  0  0  0
  -88.0958   33.6602   -2.2413 C   0  0  0  0  0  0  0  0  0  0  0  0
  -88.5355   32.5583   -1.6614 N   0  0  0  0  0  0  0  0  0  0  0  0
  -87.8211   31.7135   -0.8838 C   0  0  0  0  0  0  0  0  0  0  0  0
  -86.5085   32.0570   -0.6957 C   0  0  0  0  0  0  0  0  0  0  0  0
  -85.6620   31.2680    0.0573 C   0  0  0  0  0  0  0  0  0  0  0  0
  -85.7975   29.8034    0.9226 S   0  0  0  0  0  0  0  0  0  0  0  0
  -82.2375   28.3100    2.3081 N   0  0  0  0  0  0  0  0  0  0  0  0
  -83.6120   28.5773    2.3166 C   0  0  0  0  0  0  0  0  0  0  0  0
  -84.3777   27.9135    3.0359 O   0  0  0  0  0  0  0  0  0  0  0  0
  -81.8783   27.3970    2.6620 H   0  0  0  0  0  0  0  0  0  0  0  0
  -81.5559   29.0366    1.9409 H   0  0  0  0  0  0  0  0  0  0  0  0
  -88.4066   30.6296   -0.2119 N   0  0  0  0  0  0  0  0  0  0  0  0
  -88.5252   30.6239    0.7942 H   0  0  0  0  0  0  0  0  0  0  0  0
  -88.9066   29.4852   -0.8923 C   0  0  0  0  0  0  0  0  0  0  0  0
  -88.3752   28.9470   -2.0190 C   0  0  0  0  0  0  0  0  0  0  0  0
  -88.9510   27.7828   -2.5331 C   0  0  0  0  0  0  0  0  0  0  0  0
  -90.0197   27.1655   -1.9524 C   0  0  0  0  0  0  0  0  0  0  0  0
  -90.6693   25.7125   -2.6708 Cl  0  0  0  0  0  0  0  0  0  0  0  0
  -90.5759   27.6861   -0.8134 C   0  0  0  0  0  0  0  0  0  0  0  0
  -90.0145   28.8337   -0.3012 C   0  0  0  0  0  0  0  0  0  0  0  0
  -90.7557   29.4950    1.1565 Cl  0  0  0  0  0  0  0  0  0  0  0  0
 14 15  1  0  0  0
 15 16  2  0  0  0
 15  1  1  0  0  0
  1  2  2  0  0  0
  2  3  1  0  0  0
  3  4  2  0  0  0
  4  5  1  0  0  0
  5  6  2  0  0  0
  6  7  1  0  0  0
  7  8  2  0  0  0
  8  9  1  0  0  0
  9 10  2  0  0  0
 10 19  1  0  0  0
 19 21  1  0  0  0
 21 22  2  0  0  0
 22 23  1  0  0  0
 23 24  2  0  0  0
 24 25  1  0  0  0
 24 26  1  0  0  0
 26 27  2  0  0  0
 27 28  1  0  0  0
 10 11  1  0  0  0
 11 12  2  0  0  0
 12 13  1  0  0  0
 13  1  1  0  0  0
 12  3  1  0  0  0
 11  6  1  0  0  0
 27 21  1  0  0  0
 14 17  1  0  0  0
 14 18  1  0  0  0
 19 20  1  0  0  0
M  END
> <minimizedAffinity>
-8.22103

> <CNNscore>
0.4248202145

> <CNNaffinity>
6.9046182632

> <CNN_VS>
2.9332213402

> <CNNaffinity_variance>
0.1525363475

$$$$
[H]c1nc(N([H])c2c([H])c([H])c(Cl)c([H])c2Cl)c2c(n1)c([H])c([H])c1nc(C(=O)N([H])[H])sc12


 28 31  0  0  0  0  0  0  0  0999 V2000
  -84.5746   31.8902   -0.0565 C   0  0  0  0  0  0  0  0  0  0  0  0
  -84.7743   30.6899    0.4393 N   0  0  0  0  0  0  0  0  0  0  0  0
  -85.9453   30.1303    0.3744 C   0  0  0  0  0  0  0  0  0  0  0  0
  -86.2828   28.8635    0.8842 C   0  0  0  0  0  0  0  0  0  0  0  0
  -87.5700   28.4154    0.7558 C   0  0  0  0  0  0  0  0  0  0  0  0
  -88.5916   29.1152    0.1540 C   0  0  0  0  0  0  0  0  0  0  0  0
  -89.8370   28.6284    0.0783 N   0  0  0  0  0  0  0  0  0  0  0  0
  -90.7965   29.3905   -0.5136 C   0  0  0  0  0  0  0  0  0  0  0  0
  -90.4538   30.5745   -0.9873 N   0  0  0  0  0  0  0  0  0  0  0  0
  -89.2234   31.1346   -0.9512 C   0  0  0  0  0  0  0  0  0  0  0  0
  -88.2508   30.3768   -0.3545 C   0  0  0  0  0  0  0  0  0  0  0  0
  -86.9564   30.8406   -0.2300 C   0  0  0  0  0  0  0  0  0  0  0  0
  -86.1190   32.2662   -0.6531 S   0  0  0  0  0  0  0  0  0  0  0  0
  -82.1423   32.2434    0.4721 N   0  0  0  0  0  0  0  0  0  0  0  0
  -83.3408   32.6994   -0.0902 C   0  0  0  0  0  0  0  0  0  0  0  0
  -83.3947   33.8130   -0.6393 O   0  0  0  0  0  0  0  0  0  0  0  0
  -81.3783   32.9170    0.6969 H   0  0  0  0  0  0  0  0  0  0  0  0
  -82.0072   31.2093    0.6717 H   0  0  0  0  0  0  0  0  0  0  0  0
  -88.9289   32.3496   -1.5884 N   0  0  0  0  0  0  0  0  0  0  0  0
  -88.3453   33.0546   -1.1539 H   0  0  0  0  0  0  0  0  0  0  0  0
  -89.3934   32.6622   -2.8956 C   0  0  0  0  0  0  0  0  0  0  0  0
  -90.3253   31.9586   -3.5871 C   0  0  0  0  0  0  0  0  0  0  0  0
  -90.7173   32.4316   -4.8416 C   0  0  0  0  0  0  0  0  0  0  0  0
  -90.2063   33.5669   -5.3986 C   0  0  0  0  0  0  0  0  0  0  0  0
  -90.7604   34.0776   -6.9738 Cl  0  0  0  0  0  0  0  0  0  0  0  0
  -89.2648   34.2979   -4.7226 C   0  0  0  0  0  0  0  0  0  0  0  0
  -88.8728   33.8377   -3.4860 C   0  0  0  0  0  0  0  0  0  0  0  0
  -87.6489   34.7855   -2.6402 Cl  0  0  0  0  0  0  0  0  0  0  0  0
 14 15  1  0  0  0
 15 16  2  0  0  0
 15  1  1  0  0  0
  1  2  2  0  0  0
  2  3  1  0  0  0
  3  4  2  0  0  0
  4  5  1  0  0  0
  5  6  2  0  0  0
  6  7  1  0  0  0
  7  8  2  0  0  0
  8  9  1  0  0  0
  9 10  2  0  0  0
 10 19  1  0  0  0
 19 21  1  0  0  0
 21 22  2  0  0  0
 22 23  1  0  0  0
 23 24  2  0  0  0
 24 25  1  0  0  0
 24 26  1  0  0  0
 26 27  2  0  0  0
 27 28  1  0  0  0
 10 11  1  0  0  0
 11 12  2  0  0  0
 12 13  1  0  0  0
 13  1  1  0  0  0
 12  3  1  0  0  0
 11  6  1  0  0  0
 27 21  1  0  0  0
 14 17  1  0  0  0
 14 18  1  0  0  0
 19 20  1  0  0  0
M  END
> <minimizedAffinity>
-7.64188

> <CNNscore>
0.3373126388

> <CNNaffinity>
6.6810479164

> <CNN_VS>
2.2536017895

> <CNNaffinity_variance>
0.0751557648

$$$$
[H]c1nc(N([H])c2c([H])c([H])c(Cl)c([H])c2Cl)c2c(n1)c([H])c([H])c1nc(C(=O)N([H])[H])sc12


 28 31  0  0  0  0  0  0  0  0999 V2000
  -86.8797   32.6814   -1.0926 C   0  0  0  0  0  0  0  0  0  0  0  0
  -85.6297   32.9051   -0.7549 N   0  0  0  0  0  0  0  0  0  0  0  0
  -84.9591   32.0280   -0.0696 C   0  0  0  0  0  0  0  0  0  0  0  0
  -83.6279   32.1635    0.3641 C   0  0  0  0  0  0  0  0  0  0  0  0
  -83.0609   31.1564    1.0980 C   0  0  0  0  0  0  0  0  0  0  0  0
  -83.6970   29.9898    1.4583 C   0  0  0  0  0  0  0  0  0  0  0  0
  -83.0917   29.0502    2.1963 N   0  0  0  0  0  0  0  0  0  0  0  0
  -83.7951   27.9339    2.5290 C   0  0  0  0  0  0  0  0  0  0  0  0
  -85.0419   27.8288    2.1070 N   0  0  0  0  0  0  0  0  0  0  0  0
  -85.7214   28.7287    1.3604 C   0  0  0  0  0  0  0  0  0  0  0  0
  -85.0233   29.8577    1.0226 C   0  0  0  0  0  0  0  0  0  0  0  0
  -85.6069   30.8668    0.2830 C   0  0  0  0  0  0  0  0  0  0  0  0
  -87.1402   31.1483   -0.4114 S   0  0  0  0  0  0  0  0  0  0  0  0
  -89.1972   33.3307   -1.8190 N   0  0  0  0  0  0  0  0  0  0  0  0
  -87.8119   33.5305   -1.8595 C   0  0  0  0  0  0  0  0  0  0  0  0
  -87.3275   34.4413   -2.5524 O   0  0  0  0  0  0  0  0  0  0  0  0
  -89.8071   33.7308   -2.5646 H   0  0  0  0  0  0  0  0  0  0  0  0
  -89.6316   32.7705   -1.0285 H   0  0  0  0  0  0  0  0  0  0  0  0
  -87.0070   28.4748    0.8583 N   0  0  0  0  0  0  0  0  0  0  0  0
  -87.3509   28.9212    0.0165 H   0  0  0  0  0  0  0  0  0  0  0  0
  -87.8999   27.5515    1.4685 C   0  0  0  0  0  0  0  0  0  0  0  0
  -88.3915   27.6507    2.7295 C   0  0  0  0  0  0  0  0  0  0  0  0
  -89.3081   26.6892    3.1615 C   0  0  0  0  0  0  0  0  0  0  0  0
  -89.7296   25.6596    2.3725 C   0  0  0  0  0  0  0  0  0  0  0  0
  -90.8795   24.5067    3.0033 Cl  0  0  0  0  0  0  0  0  0  0  0  0
  -89.2508   25.5353    1.0946 C   0  0  0  0  0  0  0  0  0  0  0  0
  -88.3465   26.4785    0.6619 C   0  0  0  0  0  0  0  0  0  0  0  0
  -87.7317   26.2906   -0.9807 Cl  0  0  0  0  0  0  0  0  0  0  0  0
 14 15  1  0  0  0
 15 16  2  0  0  0
 15  1  1  0  0  0
  1  2  2  0  0  0
  2  3  1  0  0  0
  3  4  2  0  0  0
  4  5  1  0  0  0
  5  6  2  0  0  0
  6  7  1  0  0  0
  7  8  2  0  0  0
  8  9  1  0  0  0
  9 10  2  0  0  0
 10 19  1  0  0  0
 19 21  1  0  0  0
 21 22  2  0  0  0
 22 23  1  0  0  0
 23 24  2  0  0  0
 24 25  1  0  0  0
 24 26  1  0  0  0
 26 27  2  0  0  0
 27 28  1  0  0  0
 10 11  1  0  0  0
 11 12  2  0  0  0
 12 13  1  0  0  0
 13  1  1  0  0  0
 12  3  1  0  0  0
 11  6  1  0  0  0
 27 21  1  0  0  0
 14 17  1  0  0  0
 14 18  1  0  0  0
 19 20  1  0  0  0
M  END
> <minimizedAffinity>
-9.02891

> <CNNscore>
0.2176327705

> <CNNaffinity>
6.8435158730

> <CNN_VS>
1.4893733263

> <CNNaffinity_variance>
0.2144924104

$$$$
[H]c1nc(N([H])c2c([H])c([H])c(Cl)c([H])c2Cl)c2c(n1)c([H])c([H])c1nc(C(=O)N([H])[H])sc12


 28 31  0  0  0  0  0  0  0  0999 V2000
  -87.9182   26.4371    1.1113 C   0  0  0  0  0  0  0  0  0  0  0  0
  -86.8095   26.6322    1.7889 N   0  0  0  0  0  0  0  0  0  0  0  0
  -86.1227   27.7251    1.6394 C   0  0  0  0  0  0  0  0  0  0  0  0
  -84.9165   28.0365    2.2928 C   0  0  0  0  0  0  0  0  0  0  0  0
  -84.2968   29.2254    2.0158 C   0  0  0  0  0  0  0  0  0  0  0  0
  -84.7640   30.1696    1.1294 C   0  0  0  0  0  0  0  0  0  0  0  0
  -84.0985   31.3065    0.8874 N   0  0  0  0  0  0  0  0  0  0  0  0
  -84.6153   32.1802   -0.0188 C   0  0  0  0  0  0  0  0  0  0  0  0
  -85.7504   31.8665   -0.6162 N   0  0  0  0  0  0  0  0  0  0  0  0
  -86.4806   30.7441   -0.4267 C   0  0  0  0  0  0  0  0  0  0  0  0
  -85.9674   29.8564    0.4814 C   0  0  0  0  0  0  0  0  0  0  0  0
  -86.6013   28.6600    0.7511 C   0  0  0  0  0  0  0  0  0  0  0  0
  -88.0121   27.8698    0.2052 S   0  0  0  0  0  0  0  0  0  0  0  0
  -88.8199   24.3063    0.1279 N   0  0  0  0  0  0  0  0  0  0  0  0
  -88.8399   25.2845    1.1295 C   0  0  0  0  0  0  0  0  0  0  0  0
  -89.6462   25.2041    2.0717 O   0  0  0  0  0  0  0  0  0  0  0  0
  -89.6398   23.6756   -0.0062 H   0  0  0  0  0  0  0  0  0  0  0  0
  -87.9691   24.2033   -0.4990 H   0  0  0  0  0  0  0  0  0  0  0  0
  -87.7379   30.5533   -1.0200 N   0  0  0  0  0  0  0  0  0  0  0  0
  -88.4411   29.9545   -0.6038 H   0  0  0  0  0  0  0  0  0  0  0  0
  -88.1275   31.2105   -2.2194 C   0  0  0  0  0  0  0  0  0  0  0  0
  -87.7890   30.8204   -3.4743 C   0  0  0  0  0  0  0  0  0  0  0  0
  -88.3026   31.5422   -4.5543 C   0  0  0  0  0  0  0  0  0  0  0  0
  -89.1278   32.6174   -4.4020 C   0  0  0  0  0  0  0  0  0  0  0  0
  -89.7191   33.4555   -5.8152 Cl  0  0  0  0  0  0  0  0  0  0  0  0
  -89.4872   33.0329   -3.1466 C   0  0  0  0  0  0  0  0  0  0  0  0
  -88.9844   32.3272   -2.0772 C   0  0  0  0  0  0  0  0  0  0  0  0
  -89.4474   32.8885   -0.4703 Cl  0  0  0  0  0  0  0  0  0  0  0  0
 14 15  1  0  0  0
 15 16  2  0  0  0
 15  1  1  0  0  0
  1  2  2  0  0  0
  2  3  1  0  0  0
  3  4  2  0  0  0
  4  5  1  0  0  0
  5  6  2  0  0  0
  6  7  1  0  0  0
  7  8  2  0  0  0
  8  9  1  0  0  0
  9 10  2  0  0  0
 10 19  1  0  0  0
 19 21  1  0  0  0
 21 22  2  0  0  0
 22 23  1  0  0  0
 23 24  2  0  0  0
 24 25  1  0  0  0
 24 26  1  0  0  0
 26 27  2  0  0  0
 27 28  1  0  0  0
 10 11  1  0  0  0
 11 12  2  0  0  0
 12 13  1  0  0  0
 13  1  1  0  0  0
 12  3  1  0  0  0
 11  6  1  0  0  0
 27 21  1  0  0  0
 14 17  1  0  0  0
 14 18  1  0  0  0
 19 20  1  0  0  0
M  END
> <minimizedAffinity>
-8.03547

> <CNNscore>
0.1776182950

> <CNNaffinity>
6.5462388992

> <CNN_VS>
1.1627317667

> <CNNaffinity_variance>
0.3477535844

$$$$
[H]c1nc(N([H])c2c([H])c([H])c(Cl)c([H])c2Cl)c2c(n1)c([H])c([H])c1nc(C(=O)N([H])[H])sc12


 28 31  0  0  0  0  0  0  0  0999 V2000
  -84.7926   32.0459    0.1415 C   0  0  0  0  0  0  0  0  0  0  0  0
  -85.1492   32.9659   -0.7261 N   0  0  0  0  0  0  0  0  0  0  0  0
  -86.3128   32.9203   -1.3028 C   0  0  0  0  0  0  0  0  0  0  0  0
  -86.7961   33.8336   -2.2573 C   0  0  0  0  0  0  0  0  0  0  0  0
  -88.0417   33.6416   -2.7918 C   0  0  0  0  0  0  0  0  0  0  0  0
  -88.8868   32.6042   -2.4675 C   0  0  0  0  0  0  0  0  0  0  0  0
  -90.0879   32.4609   -3.0427 N   0  0  0  0  0  0  0  0  0  0  0  0
  -90.8562   31.3967   -2.6836 C   0  0  0  0  0  0  0  0  0  0  0  0
  -90.3816   30.5555   -1.7831 N   0  0  0  0  0  0  0  0  0  0  0  0
  -89.1849   30.6309   -1.1577 C   0  0  0  0  0  0  0  0  0  0  0  0
  -88.4023   31.6969   -1.5143 C   0  0  0  0  0  0  0  0  0  0  0  0
  -87.1471   31.8789   -0.9689 C   0  0  0  0  0  0  0  0  0  0  0  0
  -86.1678   31.0504    0.1567 S   0  0  0  0  0  0  0  0  0  0  0  0
  -82.3225   32.4186    0.4241 N   0  0  0  0  0  0  0  0  0  0  0  0
  -83.5358   31.9097    0.9031 C   0  0  0  0  0  0  0  0  0  0  0  0
  -83.5837   31.3225    1.9974 O   0  0  0  0  0  0  0  0  0  0  0  0
  -81.4184   32.0741    0.8140 H   0  0  0  0  0  0  0  0  0  0  0  0
  -82.3188   33.1574   -0.3385 H   0  0  0  0  0  0  0  0  0  0  0  0
  -88.8171   29.7546   -0.1252 N   0  0  0  0  0  0  0  0  0  0  0  0
  -88.4585   30.0911    0.7604 H   0  0  0  0  0  0  0  0  0  0  0  0
  -88.9550   28.3432   -0.2317 C   0  0  0  0  0  0  0  0  0  0  0  0
  -88.1330   27.5247   -0.9358 C   0  0  0  0  0  0  0  0  0  0  0  0
  -88.3708   26.1490   -0.8922 C   0  0  0  0  0  0  0  0  0  0  0  0
  -89.3893   25.5952   -0.1736 C   0  0  0  0  0  0  0  0  0  0  0  0
  -89.6053   23.8624   -0.1816 Cl  0  0  0  0  0  0  0  0  0  0  0  0
  -90.2341   26.3974    0.5477 C   0  0  0  0  0  0  0  0  0  0  0  0
  -90.0067   27.7544    0.5089 C   0  0  0  0  0  0  0  0  0  0  0  0
  -91.1153   28.7694    1.4322 Cl  0  0  0  0  0  0  0  0  0  0  0  0
 14 15  1  0  0  0
 15 16  2  0  0  0
 15  1  1  0  0  0
  1  2  2  0  0  0
  2  3  1  0  0  0
  3  4  2  0  0  0
  4  5  1  0  0  0
  5  6  2  0  0  0
  6  7  1  0  0  0
  7  8  2  0  0  0
  8  9  1  0  0  0
  9 10  2  0  0  0
 10 19  1  0  0  0
 19 21  1  0  0  0
 21 22  2  0  0  0
 22 23  1  0  0  0
 23 24  2  0  0  0
 24 25  1  0  0  0
 24 26  1  0  0  0
 26 27  2  0  0  0
 27 28  1  0  0  0
 10 11  1  0  0  0
 11 12  2  0  0  0
 12 13  1  0  0  0
 13  1  1  0  0  0
 12  3  1  0  0  0
 11  6  1  0  0  0
 27 21  1  0  0  0
 14 17  1  0  0  0
 14 18  1  0  0  0
 19 20  1  0  0  0
M  END
> <minimizedAffinity>
-7.68508

> <CNNscore>
0.1574597359

> <CNNaffinity>
6.6435303688

> <CNN_VS>
1.0460885763

> <CNNaffinity_variance>
0.0888868719

$$$$
[H]c1nc(N([H])c2c([H])c([H])c(Cl)c([H])c2Cl)c2c(n1)c([H])c([H])c1nc(C(=O)N([H])[H])sc12


 28 31  0  0  0  0  0  0  0  0999 V2000
  -84.3490   31.0847    0.4506 C   0  0  0  0  0  0  0  0  0  0  0  0
  -84.0394   29.9517    1.0396 N   0  0  0  0  0  0  0  0  0  0  0  0
  -84.9422   29.0392    1.2416 C   0  0  0  0  0  0  0  0  0  0  0  0
  -84.7349   27.8007    1.8756 C   0  0  0  0  0  0  0  0  0  0  0  0
  -85.7940   26.9476    2.0329 C   0  0  0  0  0  0  0  0  0  0  0  0
  -87.0801   27.2024    1.6126 C   0  0  0  0  0  0  0  0  0  0  0  0
  -88.0783   26.3328    1.8151 N   0  0  0  0  0  0  0  0  0  0  0  0
  -89.3265   26.6673    1.3886 C   0  0  0  0  0  0  0  0  0  0  0  0
  -89.4946   27.8339    0.7933 N   0  0  0  0  0  0  0  0  0  0  0  0
  -88.5419   28.7628    0.5513 C   0  0  0  0  0  0  0  0  0  0  0  0
  -87.2823   28.4372    0.9794 C   0  0  0  0  0  0  0  0  0  0  0  0
  -86.2226   29.3068    0.8161 C   0  0  0  0  0  0  0  0  0  0  0  0
  -86.0070   30.8666    0.1578 S   0  0  0  0  0  0  0  0  0  0  0  0
  -82.1336   32.2730    0.4720 N   0  0  0  0  0  0  0  0  0  0  0  0
  -83.4900   32.2403    0.1263 C   0  0  0  0  0  0  0  0  0  0  0  0
  -84.0106   33.1978   -0.4709 O   0  0  0  0  0  0  0  0  0  0  0  0
  -81.6211   33.1810    0.5008 H   0  0  0  0  0  0  0  0  0  0  0  0
  -81.6218   31.3726    0.7063 H   0  0  0  0  0  0  0  0  0  0  0  0
  -88.7932   29.9237   -0.1960 N   0  0  0  0  0  0  0  0  0  0  0  0
  -88.3750   30.8151    0.0425 H   0  0  0  0  0  0  0  0  0  0  0  0
  -89.6168   29.9261   -1.3553 C   0  0  0  0  0  0  0  0  0  0  0  0
  -90.1048   28.8215   -1.9742 C   0  0  0  0  0  0  0  0  0  0  0  0
  -90.9506   28.9956   -3.0722 C   0  0  0  0  0  0  0  0  0  0  0  0
  -91.3067   30.2240   -3.5461 C   0  0  0  0  0  0  0  0  0  0  0  0
  -92.3708   30.3390   -4.9259 Cl  0  0  0  0  0  0  0  0  0  0  0  0
  -90.8298   31.3568   -2.9400 C   0  0  0  0  0  0  0  0  0  0  0  0
  -89.9951   31.1933   -1.8580 C   0  0  0  0  0  0  0  0  0  0  0  0
  -89.3809   32.6643   -1.1027 Cl  0  0  0  0  0  0  0  0  0  0  0  0
 14 15  1  0  0  0
 15 16  2  0  0  0
 15  1  1  0  0  0
  1  2  2  0  0  0
  2  3  1  0  0  0
  3  4  2  0  0  0
  4  5  1  0  0  0
  5  6  2  0  0  0
  6  7  1  0  0  0
  7  8  2  0  0  0
  8  9  1  0  0  0
  9 10  2  0  0  0
 10 19  1  0  0  0
 19 21  1  0  0  0
 21 22  2  0  0  0
 22 23  1  0  0  0
 23 24  2  0  0  0
 24 25  1  0  0  0
 24 26  1  0  0  0
 26 27  2  0  0  0
 27 28  1  0  0  0
 10 11  1  0  0  0
 11 12  2  0  0  0
 12 13  1  0  0  0
 13  1  1  0  0  0
 12  3  1  0  0  0
 11  6  1  0  0  0
 27 21  1  0  0  0
 14 17  1  0  0  0
 14 18  1  0  0  0
 19 20  1  0  0  0
M  END
> <minimizedAffinity>
-7.67734

> <CNNscore>
0.1559350044

> <CNNaffinity>
6.5893373489

> <CNN_VS>
1.0275083780

> <CNNaffinity_variance>
0.1338730603

$$$$
[H]N=C(OC([H])([H])[H])c1nc2c([H])c([H])c3nc([H])nc(N([H])c4c([H])c([H])c(Cl)c([H])c4F)c3c2s1


 28 31  0  0  0  0  0  0  0  0999 V2000
  -86.2055   33.1592   -1.6556 C   0  0  0  0  0  0  0  0  0  0  0  0
  -84.9275   33.2915   -1.3687 N   0  0  0  0  0  0  0  0  0  0  0  0
  -84.3422   32.4300   -0.5837 C   0  0  0  0  0  0  0  0  0  0  0  0
  -82.9886   32.4734   -0.1861 C   0  0  0  0  0  0  0  0  0  0  0  0
  -82.5211   31.5234    0.6494 C   0  0  0  0  0  0  0  0  0  0  0  0
  -83.2677   30.4852    1.1629 C   0  0  0  0  0  0  0  0  0  0  0  0
  -82.7954   29.5780    1.9993 N   0  0  0  0  0  0  0  0  0  0  0  0
  -83.6344   28.6106    2.4607 C   0  0  0  0  0  0  0  0  0  0  0  0
  -84.9106   28.5598    2.0879 N   0  0  0  0  0  0  0  0  0  0  0  0
  -85.4609   29.4530    1.2351 C   0  0  0  0  0  0  0  0  0  0  0  0
  -84.6017   30.4231    0.7823 C   0  0  0  0  0  0  0  0  0  0  0  0
  -85.1016   31.4024   -0.0827 C   0  0  0  0  0  0  0  0  0  0  0  0
  -86.6150   31.7646   -0.7891 S   0  0  0  0  0  0  0  0  0  0  0  0
  -87.0642   34.0087   -2.5141 C   0  0  0  0  0  0  0  0  0  0  0  0
  -86.5439   34.6250   -3.5072 N   0  0  0  0  0  0  0  0  0  0  0  0
  -87.0734   35.2319   -4.1479 H   0  0  0  0  0  0  0  0  0  0  0  0
  -89.3998   33.3849   -2.9486 C   0  0  0  0  0  0  0  0  0  0  0  0
  -88.4096   34.1441   -2.2598 O   0  0  0  0  0  0  0  0  0  0  0  0
  -86.7883   29.2708    0.7864 N   0  0  0  0  0  0  0  0  0  0  0  0
  -87.3018   30.1473    0.5582 H   0  0  0  0  0  0  0  0  0  0  0  0
  -87.4623   28.0408    0.5702 C   0  0  0  0  0  0  0  0  0  0  0  0
  -88.1678   27.3984    1.5211 C   0  0  0  0  0  0  0  0  0  0  0  0
  -88.8469   26.1958    1.2157 C   0  0  0  0  0  0  0  0  0  0  0  0
  -88.7959   25.6714   -0.0501 C   0  0  0  0  0  0  0  0  0  0  0  0
  -89.6537   24.1822   -0.3735 Cl  0  0  0  0  0  0  0  0  0  0  0  0
  -88.0751   26.3184   -1.0455 C   0  0  0  0  0  0  0  0  0  0  0  0
  -87.4278   27.4861   -0.7072 C   0  0  0  0  0  0  0  0  0  0  0  0
  -86.7073   28.1544   -1.6478 F   0  0  0  0  0  0  0  0  0  0  0  0
 17 18  1  0  0  0
 18 14  1  0  0  0
 14 15  2  0  0  0
 14  1  1  0  0  0
  1  2  2  0  0  0
  2  3  1  0  0  0
  3  4  2  0  0  0
  4  5  1  0  0  0
  5  6  2  0  0  0
  6  7  1  0  0  0
  7  8  2  0  0  0
  8  9  1  0  0  0
  9 10  2  0  0  0
 10 19  1  0  0  0
 19 21  1  0  0  0
 21 22  2  0  0  0
 22 23  1  0  0  0
 23 24  2  0  0  0
 24 25  1  0  0  0
 24 26  1  0  0  0
 26 27  2  0  0  0
 27 28  1  0  0  0
 10 11  1  0  0  0
 11 12  2  0  0  0
 12 13  1  0  0  0
 13  1  1  0  0  0
 12  3  1  0  0  0
 11  6  1  0  0  0
 27 21  1  0  0  0
 15 16  1  0  0  0
 19 20  1  0  0  0
M  END
> <minimizedAffinity>
-8.94844

> <CNNscore>
0.6545564532

> <CNNaffinity>
7.2304763794

> <CNN_VS>
4.7327551842

> <CNNaffinity_variance>
0.1443097889

$$$$
[H]N=C(OC([H])([H])[H])c1nc2c([H])c([H])c3nc([H])nc(N([H])c4c([H])c([H])c(Cl)c([H])c4F)c3c2s1


 28 31  0  0  0  0  0  0  0  0999 V2000
  -84.7833   31.5918    0.2709 C   0  0  0  0  0  0  0  0  0  0  0  0
  -85.2344   32.6471   -0.3741 N   0  0  0  0  0  0  0  0  0  0  0  0
  -86.4033   32.6090   -0.9513 C   0  0  0  0  0  0  0  0  0  0  0  0
  -86.9873   33.6627   -1.6868 C   0  0  0  0  0  0  0  0  0  0  0  0
  -88.1990   33.4757   -2.2485 C   0  0  0  0  0  0  0  0  0  0  0  0
  -88.9385   32.3157   -2.1654 C   0  0  0  0  0  0  0  0  0  0  0  0
  -90.1142   32.1456   -2.7437 N   0  0  0  0  0  0  0  0  0  0  0  0
  -90.7426   30.9453   -2.6124 C   0  0  0  0  0  0  0  0  0  0  0  0
  -90.2013   29.9482   -1.9176 N   0  0  0  0  0  0  0  0  0  0  0  0
  -89.0036   30.0517   -1.2990 C   0  0  0  0  0  0  0  0  0  0  0  0
  -88.3826   31.2673   -1.4443 C   0  0  0  0  0  0  0  0  0  0  0  0
  -87.1255   31.4457   -0.8570 C   0  0  0  0  0  0  0  0  0  0  0  0
  -86.0501   30.4891    0.0644 S   0  0  0  0  0  0  0  0  0  0  0  0
  -83.5009   31.4136    0.9916 C   0  0  0  0  0  0  0  0  0  0  0  0
  -82.4684   32.0622    0.6043 N   0  0  0  0  0  0  0  0  0  0  0  0
  -81.5446   31.9922    1.0524 H   0  0  0  0  0  0  0  0  0  0  0  0
  -82.8620   29.2495    1.9617 C   0  0  0  0  0  0  0  0  0  0  0  0
  -83.4041   30.5631    2.0689 O   0  0  0  0  0  0  0  0  0  0  0  0
  -88.5430   28.9981   -0.4779 N   0  0  0  0  0  0  0  0  0  0  0  0
  -87.6462   28.5632   -0.7788 H   0  0  0  0  0  0  0  0  0  0  0  0
  -89.1370   28.5160    0.7174 C   0  0  0  0  0  0  0  0  0  0  0  0
  -90.4092   28.7754    1.0766 C   0  0  0  0  0  0  0  0  0  0  0  0
  -90.9417   28.2233    2.2650 C   0  0  0  0  0  0  0  0  0  0  0  0
  -90.1708   27.4181    3.0633 C   0  0  0  0  0  0  0  0  0  0  0  0
  -90.8788   26.7617    4.5212 Cl  0  0  0  0  0  0  0  0  0  0  0  0
  -88.8571   27.1373    2.7106 C   0  0  0  0  0  0  0  0  0  0  0  0
  -88.3765   27.6947    1.5465 C   0  0  0  0  0  0  0  0  0  0  0  0
  -87.0950   27.4501    1.1608 F   0  0  0  0  0  0  0  0  0  0  0  0
 17 18  1  0  0  0
 18 14  1  0  0  0
 14 15  2  0  0  0
 14  1  1  0  0  0
  1  2  2  0  0  0
  2  3  1  0  0  0
  3  4  2  0  0  0
  4  5  1  0  0  0
  5  6  2  0  0  0
  6  7  1  0  0  0
  7  8  2  0  0  0
  8  9  1  0  0  0
  9 10  2  0  0  0
 10 19  1  0  0  0
 19 21  1  0  0  0
 21 22  2  0  0  0
 22 23  1  0  0  0
 23 24  2  0  0  0
 24 25  1  0  0  0
 24 26  1  0  0  0
 26 27  2  0  0  0
 27 28  1  0  0  0
 10 11  1  0  0  0
 11 12  2  0  0  0
 12 13  1  0  0  0
 13  1  1  0  0  0
 12  3  1  0  0  0
 11  6  1  0  0  0
 27 21  1  0  0  0
 15 16  1  0  0  0
 19 20  1  0  0  0
M  END
> <minimizedAffinity>
-8.07587

> <CNNscore>
0.5561680794

> <CNNaffinity>
7.0554380417

> <CNN_VS>
3.9240093231

> <CNNaffinity_variance>
0.0728442371

$$$$
[H]N=C(OC([H])([H])[H])c1nc2c([H])c([H])c3nc([H])nc(N([H])c4c([H])c([H])c(Cl)c([H])c4F)c3c2s1


 28 31  0  0  0  0  0  0  0  0999 V2000
  -87.0085   27.1515    1.7847 C   0  0  0  0  0  0  0  0  0  0  0  0
  -85.7638   27.1172    2.2123 N   0  0  0  0  0  0  0  0  0  0  0  0
  -84.9595   28.1126    1.9608 C   0  0  0  0  0  0  0  0  0  0  0  0
  -83.6035   28.1861    2.3458 C   0  0  0  0  0  0  0  0  0  0  0  0
  -82.8826   29.2718    1.9987 C   0  0  0  0  0  0  0  0  0  0  0  0
  -83.3655   30.3456    1.2825 C   0  0  0  0  0  0  0  0  0  0  0  0
  -82.6350   31.3894    0.9326 N   0  0  0  0  0  0  0  0  0  0  0  0
  -83.2150   32.3815    0.2031 C   0  0  0  0  0  0  0  0  0  0  0  0
  -84.4934   32.3222   -0.1605 N   0  0  0  0  0  0  0  0  0  0  0  0
  -85.3000   31.2866    0.1631 C   0  0  0  0  0  0  0  0  0  0  0  0
  -84.6982   30.2940    0.8959 C   0  0  0  0  0  0  0  0  0  0  0  0
  -85.4585   29.1735    1.2472 C   0  0  0  0  0  0  0  0  0  0  0  0
  -87.0636   28.6454    0.9916 S   0  0  0  0  0  0  0  0  0  0  0  0
  -88.0834   26.1456    1.9531 C   0  0  0  0  0  0  0  0  0  0  0  0
  -88.3523   25.3478    0.9897 N   0  0  0  0  0  0  0  0  0  0  0  0
  -89.0827   24.6240    1.0303 H   0  0  0  0  0  0  0  0  0  0  0  0
  -89.6044   27.1234    3.6154 C   0  0  0  0  0  0  0  0  0  0  0  0
  -88.7950   26.0568    3.1274 O   0  0  0  0  0  0  0  0  0  0  0  0
  -86.6767   31.3433   -0.1499 N   0  0  0  0  0  0  0  0  0  0  0  0
  -87.3115   30.9534    0.5775 H   0  0  0  0  0  0  0  0  0  0  0  0
  -87.2738   31.9110   -1.3053 C   0  0  0  0  0  0  0  0  0  0  0  0
  -87.5339   33.2257   -1.4424 C   0  0  0  0  0  0  0  0  0  0  0  0
  -88.0935   33.7208   -2.6433 C   0  0  0  0  0  0  0  0  0  0  0  0
  -88.3762   32.8700   -3.6806 C   0  0  0  0  0  0  0  0  0  0  0  0
  -89.0673   33.5349   -5.1430 Cl  0  0  0  0  0  0  0  0  0  0  0  0
  -88.1148   31.5113   -3.5604 C   0  0  0  0  0  0  0  0  0  0  0  0
  -87.5704   31.0694   -2.3749 C   0  0  0  0  0  0  0  0  0  0  0  0
  -87.2990   29.7466   -2.2094 F   0  0  0  0  0  0  0  0  0  0  0  0
 17 18  1  0  0  0
 18 14  1  0  0  0
 14 15  2  0  0  0
 14  1  1  0  0  0
  1  2  2  0  0  0
  2  3  1  0  0  0
  3  4  2  0  0  0
  4  5  1  0  0  0
  5  6  2  0  0  0
  6  7  1  0  0  0
  7  8  2  0  0  0
  8  9  1  0  0  0
  9 10  2  0  0  0
 10 19  1  0  0  0
 19 21  1  0  0  0
 21 22  2  0  0  0
 22 23  1  0  0  0
 23 24  2  0  0  0
 24 25  1  0  0  0
 24 26  1  0  0  0
 26 27  2  0  0  0
 27 28  1  0  0  0
 10 11  1  0  0  0
 11 12  2  0  0  0
 12 13  1  0  0  0
 13  1  1  0  0  0
 12  3  1  0  0  0
 11  6  1  0  0  0
 27 21  1  0  0  0
 15 16  1  0  0  0
 19 20  1  0  0  0
M  END
> <minimizedAffinity>
-9.24112

> <CNNscore>
0.4000951350

> <CNNaffinity>
6.9531340599

> <CNN_VS>
2.7819151878

> <CNNaffinity_variance>
0.1283116043

$$$$
[H]N=C(OC([H])([H])[H])c1nc2c([H])c([H])c3nc([H])nc(N([H])c4c([H])c([H])c(Cl)c([H])c4F)c3c2s1


 28 31  0  0  0  0  0  0  0  0999 V2000
  -86.7714   32.9152   -1.9398 C   0  0  0  0  0  0  0  0  0  0  0  0
  -85.9159   33.1297   -0.9624 N   0  0  0  0  0  0  0  0  0  0  0  0
  -85.6304   32.1730   -0.1232 C   0  0  0  0  0  0  0  0  0  0  0  0
  -84.7487   32.2829    0.9735 C   0  0  0  0  0  0  0  0  0  0  0  0
  -84.5628   31.2132    1.7735 C   0  0  0  0  0  0  0  0  0  0  0  0
  -85.1734   29.9885    1.6107 C   0  0  0  0  0  0  0  0  0  0  0  0
  -84.9950   28.9601    2.4207 N   0  0  0  0  0  0  0  0  0  0  0  0
  -85.6716   27.8051    2.1737 C   0  0  0  0  0  0  0  0  0  0  0  0
  -86.5015   27.6915    1.1401 N   0  0  0  0  0  0  0  0  0  0  0  0
  -86.7311   28.7009    0.2704 C   0  0  0  0  0  0  0  0  0  0  0  0
  -86.0434   29.8588    0.5362 C   0  0  0  0  0  0  0  0  0  0  0  0
  -86.2476   30.9602   -0.3018 C   0  0  0  0  0  0  0  0  0  0  0  0
  -87.2014   31.2995   -1.6787 S   0  0  0  0  0  0  0  0  0  0  0  0
  -87.2377   33.8447   -2.9955 C   0  0  0  0  0  0  0  0  0  0  0  0
  -86.3919   34.6087   -3.5767 N   0  0  0  0  0  0  0  0  0  0  0  0
  -86.6380   35.2793   -4.3175 H   0  0  0  0  0  0  0  0  0  0  0  0
  -89.0383   33.3872   -4.6022 C   0  0  0  0  0  0  0  0  0  0  0  0
  -88.5636   33.8981   -3.3594 O   0  0  0  0  0  0  0  0  0  0  0  0
  -87.5294   28.4754   -0.8734 N   0  0  0  0  0  0  0  0  0  0  0  0
  -87.0213   28.0952   -1.6988 H   0  0  0  0  0  0  0  0  0  0  0  0
  -88.9311   28.6612   -0.9947 C   0  0  0  0  0  0  0  0  0  0  0  0
  -89.7371   28.9629    0.0416 C   0  0  0  0  0  0  0  0  0  0  0  0
  -91.1199   29.1737   -0.1678 C   0  0  0  0  0  0  0  0  0  0  0  0
  -91.6551   29.0746   -1.4262 C   0  0  0  0  0  0  0  0  0  0  0  0
  -93.3708   29.3450   -1.6291 Cl  0  0  0  0  0  0  0  0  0  0  0  0
  -90.8415   28.7656   -2.5086 C   0  0  0  0  0  0  0  0  0  0  0  0
  -89.5010   28.5673   -2.2623 C   0  0  0  0  0  0  0  0  0  0  0  0
  -88.6648   28.2602   -3.2906 F   0  0  0  0  0  0  0  0  0  0  0  0
 17 18  1  0  0  0
 18 14  1  0  0  0
 14 15  2  0  0  0
 14  1  1  0  0  0
  1  2  2  0  0  0
  2  3  1  0  0  0
  3  4  2  0  0  0
  4  5  1  0  0  0
  5  6  2  0  0  0
  6  7  1  0  0  0
  7  8  2  0  0  0
  8  9  1  0  0  0
  9 10  2  0  0  0
 10 19  1  0  0  0
 19 21  1  0  0  0
 21 22  2  0  0  0
 22 23  1  0  0  0
 23 24  2  0  0  0
 24 25  1  0  0  0
 24 26  1  0  0  0
 26 27  2  0  0  0
 27 28  1  0  0  0
 10 11  1  0  0  0
 11 12  2  0  0  0
 12 13  1  0  0  0
 13  1  1  0  0  0
 12  3  1  0  0  0
 11  6  1  0  0  0
 27 21  1  0  0  0
 15 16  1  0  0  0
 19 20  1  0  0  0
M  END
> <minimizedAffinity>
-7.09817

> <CNNscore>
0.3549496830

> <CNNaffinity>
6.8544297218

> <CNN_VS>
2.4329776764

> <CNNaffinity_variance>
0.3181370497

$$$$
[H]N=C(OC([H])([H])[H])c1nc2c([H])c([H])c3nc([H])nc(N([H])c4c([H])c([H])c(Cl)c([H])c4F)c3c2s1


 28 31  0  0  0  0  0  0  0  0999 V2000
  -84.7559   31.9879    0.1391 C   0  0  0  0  0  0  0  0  0  0  0  0
  -85.0888   32.9528   -0.6924 N   0  0  0  0  0  0  0  0  0  0  0  0
  -86.2581   32.9423   -1.2700 C   0  0  0  0  0  0  0  0  0  0  0  0
  -86.7237   33.9042   -2.1921 C   0  0  0  0  0  0  0  0  0  0  0  0
  -87.9524   33.7558   -2.7282 C   0  0  0  0  0  0  0  0  0  0  0  0
  -88.8176   32.7205   -2.4476 C   0  0  0  0  0  0  0  0  0  0  0  0
  -90.0086   32.5815   -3.0025 N   0  0  0  0  0  0  0  0  0  0  0  0
  -90.7677   31.5031   -2.6657 C   0  0  0  0  0  0  0  0  0  0  0  0
  -90.3383   30.5939   -1.7945 N   0  0  0  0  0  0  0  0  0  0  0  0
  -89.1328   30.6726   -1.1876 C   0  0  0  0  0  0  0  0  0  0  0  0
  -88.3793   31.7643   -1.5411 C   0  0  0  0  0  0  0  0  0  0  0  0
  -87.1065   31.9038   -0.9776 C   0  0  0  0  0  0  0  0  0  0  0  0
  -86.1404   31.0153    0.1168 S   0  0  0  0  0  0  0  0  0  0  0  0
  -83.4974   31.8004    0.8985 C   0  0  0  0  0  0  0  0  0  0  0  0
  -82.4641   32.4836    0.5787 N   0  0  0  0  0  0  0  0  0  0  0  0
  -81.5560   32.4099    1.0573 H   0  0  0  0  0  0  0  0  0  0  0  0
  -82.9052   29.5865    1.7822 C   0  0  0  0  0  0  0  0  0  0  0  0
  -83.4236   30.9045    1.9403 O   0  0  0  0  0  0  0  0  0  0  0  0
  -88.7891   29.7402   -0.1831 N   0  0  0  0  0  0  0  0  0  0  0  0
  -88.4082   30.1547    0.6928 H   0  0  0  0  0  0  0  0  0  0  0  0
  -88.9539   28.3312   -0.2242 C   0  0  0  0  0  0  0  0  0  0  0  0
  -88.1445   27.5043   -0.9139 C   0  0  0  0  0  0  0  0  0  0  0  0
  -88.3498   26.1056   -0.8715 C   0  0  0  0  0  0  0  0  0  0  0  0
  -89.3729   25.5758   -0.1281 C   0  0  0  0  0  0  0  0  0  0  0  0
  -89.5820   23.8398   -0.1105 Cl  0  0  0  0  0  0  0  0  0  0  0  0
  -90.2183   26.4107    0.5913 C   0  0  0  0  0  0  0  0  0  0  0  0
  -89.9849   27.7663    0.5230 C   0  0  0  0  0  0  0  0  0  0  0  0
  -90.7879   28.6240    1.2087 F   0  0  0  0  0  0  0  0  0  0  0  0
 17 18  1  0  0  0
 18 14  1  0  0  0
 14 15  2  0  0  0
 14  1  1  0  0  0
  1  2  2  0  0  0
  2  3  1  0  0  0
  3  4  2  0  0  0
  4  5  1  0  0  0
  5  6  2  0  0  0
  6  7  1  0  0  0
  7  8  2  0  0  0
  8  9  1  0  0  0
  9 10  2  0  0  0
 10 19  1  0  0  0
 19 21  1  0  0  0
 21 22  2  0  0  0
 22 23  1  0  0  0
 23 24  2  0  0  0
 24 25  1  0  0  0
 24 26  1  0  0  0
 26 27  2  0  0  0
 27 28  1  0  0  0
 10 11  1  0  0  0
 11 12  2  0  0  0
 12 13  1  0  0  0
 13  1  1  0  0  0
 12  3  1  0  0  0
 11  6  1  0  0  0
 27 21  1  0  0  0
 15 16  1  0  0  0
 19 20  1  0  0  0
M  END
> <minimizedAffinity>
-7.62067

> <CNNscore>
0.2244419307

> <CNNaffinity>
6.7292909622

> <CNN_VS>
1.5103350878

> <CNNaffinity_variance>
0.0615031905

$$$$
[H]N=C(OC([H])([H])[H])c1nc2c([H])c([H])c3nc([H])nc(N([H])c4c([H])c([H])c(Cl)c([H])c4F)c3c2s1


 28 31  0  0  0  0  0  0  0  0999 V2000
  -87.3783   31.8258   -1.1790 C   0  0  0  0  0  0  0  0  0  0  0  0
  -86.2233   32.2671   -0.7269 N   0  0  0  0  0  0  0  0  0  0  0  0
  -85.4730   31.4958    0.0101 C   0  0  0  0  0  0  0  0  0  0  0  0
  -84.2285   31.8573    0.5693 C   0  0  0  0  0  0  0  0  0  0  0  0
  -83.5682   30.9613    1.3309 C   0  0  0  0  0  0  0  0  0  0  0  0
  -84.0123   29.6889    1.6191 C   0  0  0  0  0  0  0  0  0  0  0  0
  -83.3601   28.8347    2.3875 N   0  0  0  0  0  0  0  0  0  0  0  0
  -83.9090   27.6114    2.6219 C   0  0  0  0  0  0  0  0  0  0  0  0
  -85.0795   27.2609    2.0956 N   0  0  0  0  0  0  0  0  0  0  0  0
  -85.8006   28.0824    1.2999 C   0  0  0  0  0  0  0  0  0  0  0  0
  -85.2339   29.3127    1.0767 C   0  0  0  0  0  0  0  0  0  0  0  0
  -85.9315   30.2318    0.2857 C   0  0  0  0  0  0  0  0  0  0  0  0
  -87.4237   30.2568   -0.5468 S   0  0  0  0  0  0  0  0  0  0  0  0
  -88.3794   32.5199   -2.0226 C   0  0  0  0  0  0  0  0  0  0  0  0
  -89.3332   33.1633   -1.4629 N   0  0  0  0  0  0  0  0  0  0  0  0
  -90.0652   33.6697   -1.9796 H   0  0  0  0  0  0  0  0  0  0  0  0
  -89.0848   31.5952   -4.1860 C   0  0  0  0  0  0  0  0  0  0  0  0
  -88.2987   32.4832   -3.3957 O   0  0  0  0  0  0  0  0  0  0  0  0
  -86.9750   27.6046    0.6763 N   0  0  0  0  0  0  0  0  0  0  0  0
  -87.0698   27.8468   -0.3318 H   0  0  0  0  0  0  0  0  0  0  0  0
  -87.9920   26.8025    1.2564 C   0  0  0  0  0  0  0  0  0  0  0  0
  -88.5176   25.7154    0.6592 C   0  0  0  0  0  0  0  0  0  0  0  0
  -89.5002   24.9428    1.3211 C   0  0  0  0  0  0  0  0  0  0  0  0
  -89.9276   25.2902    2.5767 C   0  0  0  0  0  0  0  0  0  0  0  0
  -91.1444   24.3002    3.3496 Cl  0  0  0  0  0  0  0  0  0  0  0  0
  -89.3979   26.4067    3.2106 C   0  0  0  0  0  0  0  0  0  0  0  0
  -88.4440   27.1323    2.5321 C   0  0  0  0  0  0  0  0  0  0  0  0
  -87.8975   28.2352    3.1114 F   0  0  0  0  0  0  0  0  0  0  0  0
 17 18  1  0  0  0
 18 14  1  0  0  0
 14 15  2  0  0  0
 14  1  1  0  0  0
  1  2  2  0  0  0
  2  3  1  0  0  0
  3  4  2  0  0  0
  4  5  1  0  0  0
  5  6  2  0  0  0
  6  7  1  0  0  0
  7  8  2  0  0  0
  8  9  1  0  0  0
  9 10  2  0  0  0
 10 19  1  0  0  0
 19 21  1  0  0  0
 21 22  2  0  0  0
 22 23  1  0  0  0
 23 24  2  0  0  0
 24 25  1  0  0  0
 24 26  1  0  0  0
 26 27  2  0  0  0
 27 28  1  0  0  0
 10 11  1  0  0  0
 11 12  2  0  0  0
 12 13  1  0  0  0
 13  1  1  0  0  0
 12  3  1  0  0  0
 11  6  1  0  0  0
 27 21  1  0  0  0
 15 16  1  0  0  0
 19 20  1  0  0  0
M  END
> <minimizedAffinity>
-8.20927

> <CNNscore>
0.1753503680

> <CNNaffinity>
6.7734460831

> <CNN_VS>
1.1877262592

> <CNNaffinity_variance>
0.2018734962

$$$$
[H]N=C(OC([H])([H])[H])c1nc2c([H])c([H])c3nc([H])nc(N([H])c4c([H])c([H])c(Cl)c([H])c4F)c3c2s1


 28 31  0  0  0  0  0  0  0  0999 V2000
  -85.1878   29.0470    1.4130 C   0  0  0  0  0  0  0  0  0  0  0  0
  -84.4034   30.0288    1.0208 N   0  0  0  0  0  0  0  0  0  0  0  0
  -84.8947   31.0214    0.3321 C   0  0  0  0  0  0  0  0  0  0  0  0
  -84.1571   32.1189   -0.1616 C   0  0  0  0  0  0  0  0  0  0  0  0
  -84.7948   33.0665   -0.8788 C   0  0  0  0  0  0  0  0  0  0  0  0
  -86.1395   33.0588   -1.1802 C   0  0  0  0  0  0  0  0  0  0  0  0
  -86.7400   33.9860   -1.9049 N   0  0  0  0  0  0  0  0  0  0  0  0
  -88.0713   33.8607   -2.1588 C   0  0  0  0  0  0  0  0  0  0  0  0
  -88.7750   32.8317   -1.6940 N   0  0  0  0  0  0  0  0  0  0  0  0
  -88.2274   31.8479   -0.9455 C   0  0  0  0  0  0  0  0  0  0  0  0
  -86.8838   31.9885   -0.7019 C   0  0  0  0  0  0  0  0  0  0  0  0
  -86.2361   30.9968    0.0424 C   0  0  0  0  0  0  0  0  0  0  0  0
  -86.6865   29.5287    0.7922 S   0  0  0  0  0  0  0  0  0  0  0  0
  -84.8492   27.8348    2.1952 C   0  0  0  0  0  0  0  0  0  0  0  0
  -85.5680   26.7843    2.0665 N   0  0  0  0  0  0  0  0  0  0  0  0
  -85.3969   25.9055    2.5741 H   0  0  0  0  0  0  0  0  0  0  0  0
  -82.4300   27.7082    2.6004 C   0  0  0  0  0  0  0  0  0  0  0  0
  -83.7756   27.8220    3.0557 O   0  0  0  0  0  0  0  0  0  0  0  0
  -89.0541   30.8497   -0.3828 N   0  0  0  0  0  0  0  0  0  0  0  0
  -89.3528   31.0252    0.5991 H   0  0  0  0  0  0  0  0  0  0  0  0
  -89.5506   29.6833   -1.0207 C   0  0  0  0  0  0  0  0  0  0  0  0
  -89.0459   29.1863   -2.1665 C   0  0  0  0  0  0  0  0  0  0  0  0
  -89.5693   27.9940   -2.7188 C   0  0  0  0  0  0  0  0  0  0  0  0
  -90.5942   27.3307   -2.0947 C   0  0  0  0  0  0  0  0  0  0  0  0
  -91.2038   25.8612   -2.8204 Cl  0  0  0  0  0  0  0  0  0  0  0  0
  -91.1283   27.8255   -0.9119 C   0  0  0  0  0  0  0  0  0  0  0  0
  -90.5910   28.9891   -0.4076 C   0  0  0  0  0  0  0  0  0  0  0  0
  -91.0828   29.5135    0.7474 F   0  0  0  0  0  0  0  0  0  0  0  0
 17 18  1  0  0  0
 18 14  1  0  0  0
 14 15  2  0  0  0
 14  1  1  0  0  0
  1  2  2  0  0  0
  2  3  1  0  0  0
  3  4  2  0  0  0
  4  5  1  0  0  0
  5  6  2  0  0  0
  6  7  1  0  0  0
  7  8  2  0  0  0
  8  9  1  0  0  0
  9 10  2  0  0  0
 10 19  1  0  0  0
 19 21  1  0  0  0
 21 22  2  0  0  0
 22 23  1  0  0  0
 23 24  2  0  0  0
 24 25  1  0  0  0
 24 26  1  0  0  0
 26 27  2  0  0  0
 27 28  1  0  0  0
 10 11  1  0  0  0
 11 12  2  0  0  0
 12 13  1  0  0  0
 13  1  1  0  0  0
 12  3  1  0  0  0
 11  6  1  0  0  0
 27 21  1  0  0  0
 15 16  1  0  0  0
 19 20  1  0  0  0
M  END
> <minimizedAffinity>
-7.70720

> <CNNscore>
0.1510677487

> <CNNaffinity>
6.4416265488

> <CNN_VS>
0.9731220007

> <CNNaffinity_variance>
0.2591101527

$$$$
[H]N=C(OC([H])([H])[H])c1nc2c([H])c([H])c3nc([H])nc(N([H])c4c([H])c([H])c(Cl)c([H])c4F)c3c2s1


 28 31  0  0  0  0  0  0  0  0999 V2000
  -87.7725   26.6308    1.3178 C   0  0  0  0  0  0  0  0  0  0  0  0
  -86.5835   26.6373    1.8830 N   0  0  0  0  0  0  0  0  0  0  0  0
  -85.8124   27.6829    1.7692 C   0  0  0  0  0  0  0  0  0  0  0  0
  -84.5141   27.8046    2.3095 C   0  0  0  0  0  0  0  0  0  0  0  0
  -83.8200   28.9410    2.0952 C   0  0  0  0  0  0  0  0  0  0  0  0
  -84.2784   30.0238    1.3765 C   0  0  0  0  0  0  0  0  0  0  0  0
  -83.5722   31.1190    1.1586 N   0  0  0  0  0  0  0  0  0  0  0  0
  -84.1208   32.1161    0.4121 C   0  0  0  0  0  0  0  0  0  0  0  0
  -85.3454   32.0114   -0.0975 N   0  0  0  0  0  0  0  0  0  0  0  0
  -86.1246   30.9219    0.0858 C   0  0  0  0  0  0  0  0  0  0  0  0
  -85.5546   29.9251    0.8381 C   0  0  0  0  0  0  0  0  0  0  0  0
  -86.2864   28.7519    1.0506 C   0  0  0  0  0  0  0  0  0  0  0  0
  -87.8211   28.1578    0.5902 S   0  0  0  0  0  0  0  0  0  0  0  0
  -88.8024   25.5653    1.3178 C   0  0  0  0  0  0  0  0  0  0  0  0
  -89.2438   25.1197    2.4329 N   0  0  0  0  0  0  0  0  0  0  0  0
  -89.9572   24.3826    2.5149 H   0  0  0  0  0  0  0  0  0  0  0  0
  -90.2868   24.0313    0.1028 C   0  0  0  0  0  0  0  0  0  0  0  0
  -89.2900   25.0492    0.1392 O   0  0  0  0  0  0  0  0  0  0  0  0
  -87.4587   30.9253   -0.3796 N   0  0  0  0  0  0  0  0  0  0  0  0
  -88.1625   30.5577    0.2938 H   0  0  0  0  0  0  0  0  0  0  0  0
  -87.9348   31.4152   -1.6235 C   0  0  0  0  0  0  0  0  0  0  0  0
  -87.6983   30.8110   -2.8041 C   0  0  0  0  0  0  0  0  0  0  0  0
  -88.2432   31.3393   -3.9977 C   0  0  0  0  0  0  0  0  0  0  0  0
  -89.0179   32.4701   -3.9669 C   0  0  0  0  0  0  0  0  0  0  0  0
  -89.6667   33.0807   -5.4716 Cl  0  0  0  0  0  0  0  0  0  0  0  0
  -89.2748   33.1078   -2.7600 C   0  0  0  0  0  0  0  0  0  0  0  0
  -88.7255   32.5620   -1.6211 C   0  0  0  0  0  0  0  0  0  0  0  0
  -88.9474   33.1526   -0.4158 F   0  0  0  0  0  0  0  0  0  0  0  0
 17 18  1  0  0  0
 18 14  1  0  0  0
 14 15  2  0  0  0
 14  1  1  0  0  0
  1  2  2  0  0  0
  2  3  1  0  0  0
  3  4  2  0  0  0
  4  5  1  0  0  0
  5  6  2  0  0  0
  6  7  1  0  0  0
  7  8  2  0  0  0
  8  9  1  0  0  0
  9 10  2  0  0  0
 10 19  1  0  0  0
 19 21  1  0  0  0
 21 22  2  0  0  0
 22 23  1  0  0  0
 23 24  2  0  0  0
 24 25  1  0  0  0
 24 26  1  0  0  0
 26 27  2  0  0  0
 27 28  1  0  0  0
 10 11  1  0  0  0
 11 12  2  0  0  0
 12 13  1  0  0  0
 13  1  1  0  0  0
 12  3  1  0  0  0
 11  6  1  0  0  0
 27 21  1  0  0  0
 15 16  1  0  0  0
 19 20  1  0  0  0
M  END
> <minimizedAffinity>
-8.38097

> <CNNscore>
0.1412780732

> <CNNaffinity>
6.5126662254

> <CNN_VS>
0.9200969338

> <CNNaffinity_variance>
0.2951453328

$$$$
[H]N=C(OC([H])([H])[H])c1nc2c([H])c([H])c3nc([H])nc(N([H])c4c([H])c([H])c(Cl)c([H])c4F)c3c2s1


 28 31  0  0  0  0  0  0  0  0999 V2000
  -89.8636   28.4390   -0.3412 C   0  0  0  0  0  0  0  0  0  0  0  0
  -88.8393   27.8530    0.2425 N   0  0  0  0  0  0  0  0  0  0  0  0
  -87.7263   28.5091    0.4203 C   0  0  0  0  0  0  0  0  0  0  0  0
  -86.5555   27.9886    1.0123 C   0  0  0  0  0  0  0  0  0  0  0  0
  -85.4668   28.7782    1.1137 C   0  0  0  0  0  0  0  0  0  0  0  0
  -85.3939   30.0840    0.6793 C   0  0  0  0  0  0  0  0  0  0  0  0
  -84.3090   30.8328    0.7670 N   0  0  0  0  0  0  0  0  0  0  0  0
  -84.3476   32.1037    0.2813 C   0  0  0  0  0  0  0  0  0  0  0  0
  -85.4481   32.6037   -0.2746 N   0  0  0  0  0  0  0  0  0  0  0  0
  -86.5938   31.8962   -0.3965 C   0  0  0  0  0  0  0  0  0  0  0  0
  -86.5361   30.6159    0.0955 C   0  0  0  0  0  0  0  0  0  0  0  0
  -87.6730   29.8086   -0.0180 C   0  0  0  0  0  0  0  0  0  0  0  0
  -89.2473   29.9825   -0.6595 S   0  0  0  0  0  0  0  0  0  0  0  0
  -91.2075   27.8919   -0.6418 C   0  0  0  0  0  0  0  0  0  0  0  0
  -91.7753   27.1214    0.2072 N   0  0  0  0  0  0  0  0  0  0  0  0
  -92.7057   26.7031    0.0709 H   0  0  0  0  0  0  0  0  0  0  0  0
  -92.7930   29.2655   -1.9194 C   0  0  0  0  0  0  0  0  0  0  0  0
  -91.8526   28.1996   -1.8176 O   0  0  0  0  0  0  0  0  0  0  0  0
  -87.7602   32.5259   -0.8856 N   0  0  0  0  0  0  0  0  0  0  0  0
  -88.5993   32.4364   -0.2758 H   0  0  0  0  0  0  0  0  0  0  0  0
  -87.8904   33.2946   -2.0714 C   0  0  0  0  0  0  0  0  0  0  0  0
  -86.8835   34.0055   -2.6150 C   0  0  0  0  0  0  0  0  0  0  0  0
  -87.0813   34.7137   -3.8232 C   0  0  0  0  0  0  0  0  0  0  0  0
  -88.2979   34.6841   -4.4548 C   0  0  0  0  0  0  0  0  0  0  0  0
  -88.4881   35.5775   -5.9459 Cl  0  0  0  0  0  0  0  0  0  0  0  0
  -89.3490   33.9564   -3.9117 C   0  0  0  0  0  0  0  0  0  0  0  0
  -89.1155   33.2815   -2.7341 C   0  0  0  0  0  0  0  0  0  0  0  0
  -90.1152   32.5568   -2.1629 F   0  0  0  0  0  0  0  0  0  0  0  0
 17 18  1  0  0  0
 18 14  1  0  0  0
 14 15  2  0  0  0
 14  1  1  0  0  0
  1  2  2  0  0  0
  2  3  1  0  0  0
  3  4  2  0  0  0
  4  5  1  0  0  0
  5  6  2  0  0  0
  6  7  1  0  0  0
  7  8  2  0  0  0
  8  9  1  0  0  0
  9 10  2  0  0  0
 10 19  1  0  0  0
 19 21  1  0  0  0
 21 22  2  0  0  0
 22 23  1  0  0  0
 23 24  2  0  0  0
 24 25  1  0  0  0
 24 26  1  0  0  0
 26 27  2  0  0  0
 27 28  1  0  0  0
 10 11  1  0  0  0
 11 12  2  0  0  0
 12 13  1  0  0  0
 13  1  1  0  0  0
 12  3  1  0  0  0
 11  6  1  0  0  0
 27 21  1  0  0  0
 15 16  1  0  0  0
 19 20  1  0  0  0
M  END
> <minimizedAffinity>
-7.33583

> <CNNscore>
0.1302539408

> <CNNaffinity>
6.3829445839

> <CNN_VS>
0.8314036727

> <CNNaffinity_variance>
0.2030578405

$$$$
[H]N=C(OC([H])([H])[H])c1nc2c([H])c([H])c3nc([H])nc(N([H])c4c([H])c([H])c([H])c(C#N)c4[H])c3c2s1


 28 31  0  0  0  0  0  0  0  0999 V2000
  -86.2277   32.7721   -1.3360 C   0  0  0  0  0  0  0  0  0  0  0  0
  -84.9811   32.8890   -0.9518 N   0  0  0  0  0  0  0  0  0  0  0  0
  -84.4447   31.9866   -0.1837 C   0  0  0  0  0  0  0  0  0  0  0  0
  -83.1212   31.9943    0.3073 C   0  0  0  0  0  0  0  0  0  0  0  0
  -82.7018   30.9790    1.1119 C   0  0  0  0  0  0  0  0  0  0  0  0
  -83.4747   29.9090    1.5048 C   0  0  0  0  0  0  0  0  0  0  0  0
  -83.0428   28.9289    2.3016 N   0  0  0  0  0  0  0  0  0  0  0  0
  -83.8474   27.9021    2.6643 C   0  0  0  0  0  0  0  0  0  0  0  0
  -85.0909   27.9026    2.1964 N   0  0  0  0  0  0  0  0  0  0  0  0
  -85.6113   28.8798    1.3676 C   0  0  0  0  0  0  0  0  0  0  0  0
  -84.7816   29.9061    1.0162 C   0  0  0  0  0  0  0  0  0  0  0  0
  -85.2237   30.9262    0.2005 C   0  0  0  0  0  0  0  0  0  0  0  0
  -86.6965   31.3183   -0.5886 S   0  0  0  0  0  0  0  0  0  0  0  0
  -87.0315   33.6677   -2.1999 C   0  0  0  0  0  0  0  0  0  0  0  0
  -86.4308   34.2905   -3.1348 N   0  0  0  0  0  0  0  0  0  0  0  0
  -85.4232   34.2368   -3.3595 H   0  0  0  0  0  0  0  0  0  0  0  0
  -89.2492   34.3558   -2.9952 C   0  0  0  0  0  0  0  0  0  0  0  0
  -88.3743   33.8291   -2.0105 O   0  0  0  0  0  0  0  0  0  0  0  0
  -86.9159   28.7560    0.8771 N   0  0  0  0  0  0  0  0  0  0  0  0
  -87.3361   29.3712    0.1977 H   0  0  0  0  0  0  0  0  0  0  0  0
  -87.7763   27.6841    1.3130 C   0  0  0  0  0  0  0  0  0  0  0  0
  -87.9939   26.6050    0.4474 C   0  0  0  0  0  0  0  0  0  0  0  0
  -88.8288   25.5554    0.7664 C   0  0  0  0  0  0  0  0  0  0  0  0
  -89.4783   25.5532    1.9734 C   0  0  0  0  0  0  0  0  0  0  0  0
  -89.2900   26.5915    2.8440 C   0  0  0  0  0  0  0  0  0  0  0  0
  -88.4366   27.6518    2.5021 C   0  0  0  0  0  0  0  0  0  0  0  0
  -89.9692   26.6010    4.1199 C   0  0  0  0  0  0  0  0  0  0  0  0
  -90.5123   26.6018    5.1447 N   0  0  0  0  0  0  0  0  0  0  0  0
 17 18  1  0  0  0
 18 14  1  0  0  0
 14 15  2  0  0  0
 14  1  1  0  0  0
  1  2  2  0  0  0
  2  3  1  0  0  0
  3  4  2  0  0  0
  4  5  1  0  0  0
  5  6  2  0  0  0
  6  7  1  0  0  0
  7  8  2  0  0  0
  8  9  1  0  0  0
  9 10  2  0  0  0
 10 19  1  0  0  0
 19 21  1  0  0  0
 21 22  2  0  0  0
 22 23  1  0  0  0
 23 24  2  0  0  0
 24 25  1  0  0  0
 25 26  2  0  0  0
 25 27  1  0  0  0
 27 28  3  0  0  0
 10 11  1  0  0  0
 11 12  2  0  0  0
 12 13  1  0  0  0
 13  1  1  0  0  0
 12  3  1  0  0  0
 11  6  1  0  0  0
 26 21  1  0  0  0
 15 16  1  0  0  0
 19 20  1  0  0  0
M  END
> <minimizedAffinity>
-8.91674

> <CNNscore>
0.8255165815

> <CNNaffinity>
7.1942420006

> <CNN_VS>
5.9389662743

> <CNNaffinity_variance>
0.1101375967

$$$$
[H]N=C(OC([H])([H])[H])c1nc2c([H])c([H])c3nc([H])nc(N([H])c4c([H])c([H])c([H])c(C#N)c4[H])c3c2s1


 28 31  0  0  0  0  0  0  0  0999 V2000
  -86.1933   32.7503   -1.3260 C   0  0  0  0  0  0  0  0  0  0  0  0
  -84.9884   32.8997   -0.8352 N   0  0  0  0  0  0  0  0  0  0  0  0
  -84.4694   31.9767   -0.0796 C   0  0  0  0  0  0  0  0  0  0  0  0
  -83.1907   32.0140    0.5173 C   0  0  0  0  0  0  0  0  0  0  0  0
  -82.7855   30.9709    1.2931 C   0  0  0  0  0  0  0  0  0  0  0  0
  -83.5321   29.8446    1.5587 C   0  0  0  0  0  0  0  0  0  0  0  0
  -83.1156   28.8376    2.3297 N   0  0  0  0  0  0  0  0  0  0  0  0
  -83.8936   27.7548    2.5652 C   0  0  0  0  0  0  0  0  0  0  0  0
  -85.0950   27.7278    1.9982 N   0  0  0  0  0  0  0  0  0  0  0  0
  -85.5969   28.7299    1.1879 C   0  0  0  0  0  0  0  0  0  0  0  0
  -84.7948   29.8126    0.9657 C   0  0  0  0  0  0  0  0  0  0  0  0
  -85.2219   30.8602    0.1774 C   0  0  0  0  0  0  0  0  0  0  0  0
  -86.6460   31.2331   -0.7051 S   0  0  0  0  0  0  0  0  0  0  0  0
  -86.9706   33.6603   -2.1990 C   0  0  0  0  0  0  0  0  0  0  0  0
  -86.3596   34.2291   -3.1613 N   0  0  0  0  0  0  0  0  0  0  0  0
  -85.3601   34.1215   -3.4027 H   0  0  0  0  0  0  0  0  0  0  0  0
  -89.1799   34.3816   -2.9887 C   0  0  0  0  0  0  0  0  0  0  0  0
  -88.3004   33.8906   -1.9896 O   0  0  0  0  0  0  0  0  0  0  0  0
  -86.8510   28.5776    0.5862 N   0  0  0  0  0  0  0  0  0  0  0  0
  -87.1877   29.1270   -0.1893 H   0  0  0  0  0  0  0  0  0  0  0  0
  -87.7768   27.5696    1.0402 C   0  0  0  0  0  0  0  0  0  0  0  0
  -88.2593   27.6450    2.3526 C   0  0  0  0  0  0  0  0  0  0  0  0
  -89.1182   26.7055    2.8819 C   0  0  0  0  0  0  0  0  0  0  0  0
  -89.5247   25.6509    2.1064 C   0  0  0  0  0  0  0  0  0  0  0  0
  -89.0729   25.5446    0.8195 C   0  0  0  0  0  0  0  0  0  0  0  0
  -88.1985   26.5104    0.2977 C   0  0  0  0  0  0  0  0  0  0  0  0
  -89.4942   24.4372   -0.0084 C   0  0  0  0  0  0  0  0  0  0  0  0
  -89.8303   23.5442   -0.6676 N   0  0  0  0  0  0  0  0  0  0  0  0
 17 18  1  0  0  0
 18 14  1  0  0  0
 14 15  2  0  0  0
 14  1  1  0  0  0
  1  2  2  0  0  0
  2  3  1  0  0  0
  3  4  2  0  0  0
  4  5  1  0  0  0
  5  6  2  0  0  0
  6  7  1  0  0  0
  7  8  2  0  0  0
  8  9  1  0  0  0
  9 10  2  0  0  0
 10 19  1  0  0  0
 19 21  1  0  0  0
 21 22  2  0  0  0
 22 23  1  0  0  0
 23 24  2  0  0  0
 24 25  1  0  0  0
 25 26  2  0  0  0
 25 27  1  0  0  0
 27 28  3  0  0  0
 10 11  1  0  0  0
 11 12  2  0  0  0
 12 13  1  0  0  0
 13  1  1  0  0  0
 12  3  1  0  0  0
 11  6  1  0  0  0
 26 21  1  0  0  0
 15 16  1  0  0  0
 19 20  1  0  0  0
M  END
> <minimizedAffinity>
-8.53649

> <CNNscore>
0.8093250394

> <CNNaffinity>
7.2332739830

> <CNN_VS>
5.8540697098

> <CNNaffinity_variance>
0.0849699378

$$$$
[H]N=C(OC([H])([H])[H])c1nc2c([H])c([H])c3nc([H])nc(N([H])c4c([H])c([H])c([H])c(C#N)c4[H])c3c2s1


 28 31  0  0  0  0  0  0  0  0999 V2000
  -86.2391   33.2888   -1.7417 C   0  0  0  0  0  0  0  0  0  0  0  0
  -84.9556   33.3550   -1.4901 N   0  0  0  0  0  0  0  0  0  0  0  0
  -84.3996   32.4945   -0.6886 C   0  0  0  0  0  0  0  0  0  0  0  0
  -83.0354   32.4569   -0.3276 C   0  0  0  0  0  0  0  0  0  0  0  0
  -82.5986   31.4958    0.5325 C   0  0  0  0  0  0  0  0  0  0  0  0
  -83.3906   30.5238    1.1023 C   0  0  0  0  0  0  0  0  0  0  0  0
  -82.9402   29.5960    1.9497 N   0  0  0  0  0  0  0  0  0  0  0  0
  -83.7641   28.6664    2.4883 C   0  0  0  0  0  0  0  0  0  0  0  0
  -85.0461   28.7086    2.1418 N   0  0  0  0  0  0  0  0  0  0  0  0
  -85.5878   29.6366    1.2712 C   0  0  0  0  0  0  0  0  0  0  0  0
  -84.7378   30.5652    0.7415 C   0  0  0  0  0  0  0  0  0  0  0  0
  -85.1979   31.5317   -0.1278 C   0  0  0  0  0  0  0  0  0  0  0  0
  -86.7165   31.9482   -0.8104 S   0  0  0  0  0  0  0  0  0  0  0  0
  -87.0707   34.1521   -2.6121 C   0  0  0  0  0  0  0  0  0  0  0  0
  -86.5127   34.6960   -3.6198 N   0  0  0  0  0  0  0  0  0  0  0  0
  -85.5226   34.5976   -3.9005 H   0  0  0  0  0  0  0  0  0  0  0  0
  -89.3680   34.5800   -3.3629 C   0  0  0  0  0  0  0  0  0  0  0  0
  -88.3945   34.3660   -2.3534 O   0  0  0  0  0  0  0  0  0  0  0  0
  -86.9402   29.5576    0.9205 N   0  0  0  0  0  0  0  0  0  0  0  0
  -87.6110   30.3001    1.0439 H   0  0  0  0  0  0  0  0  0  0  0  0
  -87.4836   28.3668    0.3154 C   0  0  0  0  0  0  0  0  0  0  0  0
  -87.1069   27.1208    0.8317 C   0  0  0  0  0  0  0  0  0  0  0  0
  -87.5484   25.9310    0.2932 C   0  0  0  0  0  0  0  0  0  0  0  0
  -88.3888   25.9516   -0.7893 C   0  0  0  0  0  0  0  0  0  0  0  0
  -88.7774   27.1508   -1.3206 C   0  0  0  0  0  0  0  0  0  0  0  0
  -88.3175   28.3521   -0.7595 C   0  0  0  0  0  0  0  0  0  0  0  0
  -89.6634   27.1859   -2.4621 C   0  0  0  0  0  0  0  0  0  0  0  0
  -90.3775   27.2082   -3.3756 N   0  0  0  0  0  0  0  0  0  0  0  0
 17 18  1  0  0  0
 18 14  1  0  0  0
 14 15  2  0  0  0
 14  1  1  0  0  0
  1  2  2  0  0  0
  2  3  1  0  0  0
  3  4  2  0  0  0
  4  5  1  0  0  0
  5  6  2  0  0  0
  6  7  1  0  0  0
  7  8  2  0  0  0
  8  9  1  0  0  0
  9 10  2  0  0  0
 10 19  1  0  0  0
 19 21  1  0  0  0
 21 22  2  0  0  0
 22 23  1  0  0  0
 23 24  2  0  0  0
 24 25  1  0  0  0
 25 26  2  0  0  0
 25 27  1  0  0  0
 27 28  3  0  0  0
 10 11  1  0  0  0
 11 12  2  0  0  0
 12 13  1  0  0  0
 13  1  1  0  0  0
 12  3  1  0  0  0
 11  6  1  0  0  0
 26 21  1  0  0  0
 15 16  1  0  0  0
 19 20  1  0  0  0
M  END
> <minimizedAffinity>
-8.55693

> <CNNscore>
0.7366685867

> <CNNaffinity>
7.1261048317

> <CNN_VS>
5.2495775223

> <CNNaffinity_variance>
0.0626797974

$$$$
[H]N=C(OC([H])([H])[H])c1nc2c([H])c([H])c3nc([H])nc(N([H])c4c([H])c([H])c([H])c(C#N)c4[H])c3c2s1


 28 31  0  0  0  0  0  0  0  0999 V2000
  -86.7199   32.6422   -1.3546 C   0  0  0  0  0  0  0  0  0  0  0  0
  -85.6776   32.8868   -0.6003 N   0  0  0  0  0  0  0  0  0  0  0  0
  -85.1802   31.9508    0.1537 C   0  0  0  0  0  0  0  0  0  0  0  0
  -84.0699   32.0812    1.0157 C   0  0  0  0  0  0  0  0  0  0  0  0
  -83.6672   31.0093    1.7525 C   0  0  0  0  0  0  0  0  0  0  0  0
  -84.2623   29.7674    1.7345 C   0  0  0  0  0  0  0  0  0  0  0  0
  -83.8535   28.7330    2.4727 N   0  0  0  0  0  0  0  0  0  0  0  0
  -84.4797   27.5337    2.4229 C   0  0  0  0  0  0  0  0  0  0  0  0
  -85.5229   27.4198    1.6078 N   0  0  0  0  0  0  0  0  0  0  0  0
  -86.0056   28.4430    0.8124 C   0  0  0  0  0  0  0  0  0  0  0  0
  -85.3586   29.6438    0.8803 C   0  0  0  0  0  0  0  0  0  0  0  0
  -85.7807   30.7189    0.1270 C   0  0  0  0  0  0  0  0  0  0  0  0
  -87.0396   31.0093   -1.0028 S   0  0  0  0  0  0  0  0  0  0  0  0
  -87.4415   33.5461   -2.2802 C   0  0  0  0  0  0  0  0  0  0  0  0
  -88.6911   33.7126   -2.0971 N   0  0  0  0  0  0  0  0  0  0  0  0
  -89.2665   33.2761   -1.3575 H   0  0  0  0  0  0  0  0  0  0  0  0
  -87.3163   35.3315   -3.9598 C   0  0  0  0  0  0  0  0  0  0  0  0
  -86.7990   34.1864   -3.3012 O   0  0  0  0  0  0  0  0  0  0  0  0
  -87.0727   28.2035   -0.0605 N   0  0  0  0  0  0  0  0  0  0  0  0
  -86.9766   27.9789   -1.0387 H   0  0  0  0  0  0  0  0  0  0  0  0
  -88.4373   28.2438    0.4037 C   0  0  0  0  0  0  0  0  0  0  0  0
  -88.7155   27.8098    1.7057 C   0  0  0  0  0  0  0  0  0  0  0  0
  -89.9943   27.7795    2.2197 C   0  0  0  0  0  0  0  0  0  0  0  0
  -91.0447   28.1865    1.4389 C   0  0  0  0  0  0  0  0  0  0  0  0
  -90.8104   28.6164    0.1615 C   0  0  0  0  0  0  0  0  0  0  0  0
  -89.5019   28.6400   -0.3451 C   0  0  0  0  0  0  0  0  0  0  0  0
  -91.9095   29.0482   -0.6720 C   0  0  0  0  0  0  0  0  0  0  0  0
  -92.7895   29.4014   -1.3398 N   0  0  0  0  0  0  0  0  0  0  0  0
 17 18  1  0  0  0
 18 14  1  0  0  0
 14 15  2  0  0  0
 14  1  1  0  0  0
  1  2  2  0  0  0
  2  3  1  0  0  0
  3  4  2  0  0  0
  4  5  1  0  0  0
  5  6  2  0  0  0
  6  7  1  0  0  0
  7  8  2  0  0  0
  8  9  1  0  0  0
  9 10  2  0  0  0
 10 19  1  0  0  0
 19 21  1  0  0  0
 21 22  2  0  0  0
 22 23  1  0  0  0
 23 24  2  0  0  0
 24 25  1  0  0  0
 25 26  2  0  0  0
 25 27  1  0  0  0
 27 28  3  0  0  0
 10 11  1  0  0  0
 11 12  2  0  0  0
 12 13  1  0  0  0
 13  1  1  0  0  0
 12  3  1  0  0  0
 11  6  1  0  0  0
 26 21  1  0  0  0
 15 16  1  0  0  0
 19 20  1  0  0  0
M  END
> <minimizedAffinity>
-7.53694

> <CNNscore>
0.4759631455

> <CNNaffinity>
6.8605356216

> <CNN_VS>
3.2653620243

> <CNNaffinity_variance>
0.1387496889

$$$$
[H]N=C(OC([H])([H])[H])c1nc2c([H])c([H])c3nc([H])nc(N([H])c4c([H])c([H])c([H])c(C#N)c4[H])c3c2s1


 28 31  0  0  0  0  0  0  0  0999 V2000
  -88.7662   27.8537   -1.7504 C   0  0  0  0  0  0  0  0  0  0  0  0
  -88.8713   28.4660   -2.9034 N   0  0  0  0  0  0  0  0  0  0  0  0
  -88.4229   29.6789   -3.0446 C   0  0  0  0  0  0  0  0  0  0  0  0
  -88.4788   30.4528   -4.2238 C   0  0  0  0  0  0  0  0  0  0  0  0
  -87.9720   31.7167   -4.2176 C   0  0  0  0  0  0  0  0  0  0  0  0
  -87.3900   32.3311   -3.1310 C   0  0  0  0  0  0  0  0  0  0  0  0
  -86.9069   33.5754   -3.1474 N   0  0  0  0  0  0  0  0  0  0  0  0
  -86.3508   34.1357   -2.0474 C   0  0  0  0  0  0  0  0  0  0  0  0
  -86.3014   33.3993   -0.9425 N   0  0  0  0  0  0  0  0  0  0  0  0
  -86.7792   32.1051   -0.8465 C   0  0  0  0  0  0  0  0  0  0  0  0
  -87.3368   31.5614   -1.9684 C   0  0  0  0  0  0  0  0  0  0  0  0
  -87.8456   30.2799   -1.9563 C   0  0  0  0  0  0  0  0  0  0  0  0
  -87.9963   29.0284   -0.7915 S   0  0  0  0  0  0  0  0  0  0  0  0
  -89.2006   26.4898   -1.3690 C   0  0  0  0  0  0  0  0  0  0  0  0
  -88.4779   25.5087   -1.7402 N   0  0  0  0  0  0  0  0  0  0  0  0
  -87.6040   25.5635   -2.2897 H   0  0  0  0  0  0  0  0  0  0  0  0
  -90.3544   26.1424    0.7693 C   0  0  0  0  0  0  0  0  0  0  0  0
  -90.3376   26.2776   -0.6428 O   0  0  0  0  0  0  0  0  0  0  0  0
  -86.6226   31.3905    0.3463 N   0  0  0  0  0  0  0  0  0  0  0  0
  -87.3758   31.1280    0.9630 H   0  0  0  0  0  0  0  0  0  0  0  0
  -85.3220   30.9456    0.7820 C   0  0  0  0  0  0  0  0  0  0  0  0
  -84.2074   31.7392    0.4839 C   0  0  0  0  0  0  0  0  0  0  0  0
  -82.9237   31.3742    0.8292 C   0  0  0  0  0  0  0  0  0  0  0  0
  -82.7135   30.1919    1.4901 C   0  0  0  0  0  0  0  0  0  0  0  0
  -83.7790   29.3907    1.7973 C   0  0  0  0  0  0  0  0  0  0  0  0
  -85.0789   29.7783    1.4374 C   0  0  0  0  0  0  0  0  0  0  0  0
  -83.5706   28.1416    2.4940 C   0  0  0  0  0  0  0  0  0  0  0  0
  -83.4024   27.1360    3.0468 N   0  0  0  0  0  0  0  0  0  0  0  0
 17 18  1  0  0  0
 18 14  1  0  0  0
 14 15  2  0  0  0
 14  1  1  0  0  0
  1  2  2  0  0  0
  2  3  1  0  0  0
  3  4  2  0  0  0
  4  5  1  0  0  0
  5  6  2  0  0  0
  6  7  1  0  0  0
  7  8  2  0  0  0
  8  9  1  0  0  0
  9 10  2  0  0  0
 10 19  1  0  0  0
 19 21  1  0  0  0
 21 22  2  0  0  0
 22 23  1  0  0  0
 23 24  2  0  0  0
 24 25  1  0  0  0
 25 26  2  0  0  0
 25 27  1  0  0  0
 27 28  3  0  0  0
 10 11  1  0  0  0
 11 12  2  0  0  0
 12 13  1  0  0  0
 13  1  1  0  0  0
 12  3  1  0  0  0
 11  6  1  0  0  0
 26 21  1  0  0  0
 15 16  1  0  0  0
 19 20  1  0  0  0
M  END
> <minimizedAffinity>
-9.16639

> <CNNscore>
0.4152948260

> <CNNaffinity>
6.7785692215

> <CNN_VS>
2.8151047230

> <CNNaffinity_variance>
0.2610421777

$$$$
[H]N=C(OC([H])([H])[H])c1nc2c([H])c([H])c3nc([H])nc(N([H])c4c([H])c([H])c([H])c(C#N)c4[H])c3c2s1


 28 31  0  0  0  0  0  0  0  0999 V2000
  -87.2714   27.1025    1.8289 C   0  0  0  0  0  0  0  0  0  0  0  0
  -86.0292   27.0652    2.2419 N   0  0  0  0  0  0  0  0  0  0  0  0
  -85.2202   28.0484    1.9756 C   0  0  0  0  0  0  0  0  0  0  0  0
  -83.8623   28.1318    2.3523 C   0  0  0  0  0  0  0  0  0  0  0  0
  -83.1358   29.2261    1.9932 C   0  0  0  0  0  0  0  0  0  0  0  0
  -83.6188   30.2955    1.2722 C   0  0  0  0  0  0  0  0  0  0  0  0
  -82.8841   31.3546    0.9252 N   0  0  0  0  0  0  0  0  0  0  0  0
  -83.4068   32.3772    0.2082 C   0  0  0  0  0  0  0  0  0  0  0  0
  -84.6859   32.2907   -0.1408 N   0  0  0  0  0  0  0  0  0  0  0  0
  -85.5112   31.2285    0.1805 C   0  0  0  0  0  0  0  0  0  0  0  0
  -84.9616   30.2082    0.9032 C   0  0  0  0  0  0  0  0  0  0  0  0
  -85.7124   29.1073    1.2577 C   0  0  0  0  0  0  0  0  0  0  0  0
  -87.3327   28.5953    1.0165 S   0  0  0  0  0  0  0  0  0  0  0  0
  -88.3531   26.1080    2.0166 C   0  0  0  0  0  0  0  0  0  0  0  0
  -88.5674   25.2760    1.0760 N   0  0  0  0  0  0  0  0  0  0  0  0
  -88.0574   25.2196    0.1785 H   0  0  0  0  0  0  0  0  0  0  0  0
  -89.6585   27.2275    3.7679 C   0  0  0  0  0  0  0  0  0  0  0  0
  -89.1040   26.0735    3.1569 O   0  0  0  0  0  0  0  0  0  0  0  0
  -86.8628   31.2616   -0.1800 N   0  0  0  0  0  0  0  0  0  0  0  0
  -87.6326   31.2432    0.4709 H   0  0  0  0  0  0  0  0  0  0  0  0
  -87.2622   31.3479   -1.5629 C   0  0  0  0  0  0  0  0  0  0  0  0
  -87.5793   30.1662   -2.2441 C   0  0  0  0  0  0  0  0  0  0  0  0
  -87.9355   30.1508   -3.5757 C   0  0  0  0  0  0  0  0  0  0  0  0
  -87.9858   31.3293   -4.2739 C   0  0  0  0  0  0  0  0  0  0  0  0
  -87.6817   32.5033   -3.6409 C   0  0  0  0  0  0  0  0  0  0  0  0
  -87.3207   32.4997   -2.2848 C   0  0  0  0  0  0  0  0  0  0  0  0
  -87.7310   33.7527   -4.3661 C   0  0  0  0  0  0  0  0  0  0  0  0
  -87.7728   34.7517   -4.9537 N   0  0  0  0  0  0  0  0  0  0  0  0
 17 18  1  0  0  0
 18 14  1  0  0  0
 14 15  2  0  0  0
 14  1  1  0  0  0
  1  2  2  0  0  0
  2  3  1  0  0  0
  3  4  2  0  0  0
  4  5  1  0  0  0
  5  6  2  0  0  0
  6  7  1  0  0  0
  7  8  2  0  0  0
  8  9  1  0  0  0
  9 10  2  0  0  0
 10 19  1  0  0  0
 19 21  1  0  0  0
 21 22  2  0  0  0
 22 23  1  0  0  0
 23 24  2  0  0  0
 24 25  1  0  0  0
 25 26  2  0  0  0
 25 27  1  0  0  0
 27 28  3  0  0  0
 10 11  1  0  0  0
 11 12  2  0  0  0
 12 13  1  0  0  0
 13  1  1  0  0  0
 12  3  1  0  0  0
 11  6  1  0  0  0
 26 21  1  0  0  0
 15 16  1  0  0  0
 19 20  1  0  0  0
M  END
> <minimizedAffinity>
-8.93484

> <CNNscore>
0.3421699107

> <CNNaffinity>
6.6902284622

> <CNN_VS>
2.2891948223

> <CNNaffinity_variance>
0.1989808977

$$$$
[H]N=C(OC([H])([H])[H])c1nc2c([H])c([H])c3nc([H])nc(N([H])c4c([H])c([H])c([H])c(C#N)c4[H])c3c2s1


 28 31  0  0  0  0  0  0  0  0999 V2000
  -88.4153   31.0472   -1.0850 C   0  0  0  0  0  0  0  0  0  0  0  0
  -87.2510   31.5949   -0.8410 N   0  0  0  0  0  0  0  0  0  0  0  0
  -86.3618   30.9581   -0.1369 C   0  0  0  0  0  0  0  0  0  0  0  0
  -85.0772   31.4333    0.2046 C   0  0  0  0  0  0  0  0  0  0  0  0
  -84.2548   30.6520    0.9580 C   0  0  0  0  0  0  0  0  0  0  0  0
  -84.5703   29.3988    1.4341 C   0  0  0  0  0  0  0  0  0  0  0  0
  -83.7492   28.6545    2.1782 N   0  0  0  0  0  0  0  0  0  0  0  0
  -84.1123   27.4301    2.6278 C   0  0  0  0  0  0  0  0  0  0  0  0
  -85.3226   26.9905    2.3004 N   0  0  0  0  0  0  0  0  0  0  0  0
  -86.2287   27.7008    1.5342 C   0  0  0  0  0  0  0  0  0  0  0  0
  -85.8409   28.9338    1.0930 C   0  0  0  0  0  0  0  0  0  0  0  0
  -86.6871   29.7115    0.3312 C   0  0  0  0  0  0  0  0  0  0  0  0
  -88.2789   29.5500   -0.2901 S   0  0  0  0  0  0  0  0  0  0  0  0
  -89.5619   31.5832   -1.8547 C   0  0  0  0  0  0  0  0  0  0  0  0
  -89.8065   32.8304   -1.7686 N   0  0  0  0  0  0  0  0  0  0  0  0
  -89.2803   33.5218   -1.2083 H   0  0  0  0  0  0  0  0  0  0  0  0
  -91.5877   30.2458   -2.2186 C   0  0  0  0  0  0  0  0  0  0  0  0
  -90.3398   30.7766   -2.6354 O   0  0  0  0  0  0  0  0  0  0  0  0
  -87.4560   27.1229    1.1910 N   0  0  0  0  0  0  0  0  0  0  0  0
  -87.7081   26.8152    0.2646 H   0  0  0  0  0  0  0  0  0  0  0  0
  -88.4776   26.9009    2.1842 C   0  0  0  0  0  0  0  0  0  0  0  0
  -88.7224   27.9041    3.1300 C   0  0  0  0  0  0  0  0  0  0  0  0
  -89.6539   27.7630    4.1363 C   0  0  0  0  0  0  0  0  0  0  0  0
  -90.3764   26.6018    4.2283 C   0  0  0  0  0  0  0  0  0  0  0  0
  -90.1634   25.5997    3.3217 C   0  0  0  0  0  0  0  0  0  0  0  0
  -89.2106   25.7610    2.3041 C   0  0  0  0  0  0  0  0  0  0  0  0
  -90.9189   24.3705    3.4080 C   0  0  0  0  0  0  0  0  0  0  0  0
  -91.5208   23.3812    3.4725 N   0  0  0  0  0  0  0  0  0  0  0  0
 17 18  1  0  0  0
 18 14  1  0  0  0
 14 15  2  0  0  0
 14  1  1  0  0  0
  1  2  2  0  0  0
  2  3  1  0  0  0
  3  4  2  0  0  0
  4  5  1  0  0  0
  5  6  2  0  0  0
  6  7  1  0  0  0
  7  8  2  0  0  0
  8  9  1  0  0  0
  9 10  2  0  0  0
 10 19  1  0  0  0
 19 21  1  0  0  0
 21 22  2  0  0  0
 22 23  1  0  0  0
 23 24  2  0  0  0
 24 25  1  0  0  0
 25 26  2  0  0  0
 25 27  1  0  0  0
 27 28  3  0  0  0
 10 11  1  0  0  0
 11 12  2  0  0  0
 12 13  1  0  0  0
 13  1  1  0  0  0
 12  3  1  0  0  0
 11  6  1  0  0  0
 26 21  1  0  0  0
 15 16  1  0  0  0
 19 20  1  0  0  0
M  END
> <minimizedAffinity>
-8.06111

> <CNNscore>
0.2675836682

> <CNNaffinity>
6.5262908936

> <CNN_VS>
1.7463288307

> <CNNaffinity_variance>
0.0602220297

$$$$
[H]N=C(OC([H])([H])[H])c1nc2c([H])c([H])c3nc([H])nc(N([H])c4c([H])c([H])c([H])c(C#N)c4[H])c3c2s1


 28 31  0  0  0  0  0  0  0  0999 V2000
  -90.6898   29.8889   -0.9161 C   0  0  0  0  0  0  0  0  0  0  0  0
  -90.9742   30.0968   -2.1775 N   0  0  0  0  0  0  0  0  0  0  0  0
  -90.3266   30.9987   -2.8553 C   0  0  0  0  0  0  0  0  0  0  0  0
  -90.5367   31.3277   -4.2119 C   0  0  0  0  0  0  0  0  0  0  0  0
  -89.7821   32.3047   -4.7865 C   0  0  0  0  0  0  0  0  0  0  0  0
  -88.7995   33.0263   -4.1457 C   0  0  0  0  0  0  0  0  0  0  0  0
  -88.0776   33.9859   -4.7289 N   0  0  0  0  0  0  0  0  0  0  0  0
  -87.1275   34.6713   -4.0503 C   0  0  0  0  0  0  0  0  0  0  0  0
  -86.9358   34.3539   -2.7744 N   0  0  0  0  0  0  0  0  0  0  0  0
  -87.6415   33.3737   -2.1008 C   0  0  0  0  0  0  0  0  0  0  0  0
  -88.5956   32.6966   -2.8053 C   0  0  0  0  0  0  0  0  0  0  0  0
  -89.3508   31.7102   -2.2069 C   0  0  0  0  0  0  0  0  0  0  0  0
  -89.4434   31.0128   -0.6414 S   0  0  0  0  0  0  0  0  0  0  0  0
  -91.2908   28.9252    0.0350 C   0  0  0  0  0  0  0  0  0  0  0  0
  -91.9363   27.9377   -0.4455 N   0  0  0  0  0  0  0  0  0  0  0  0
  -92.0886   27.7329   -1.4473 H   0  0  0  0  0  0  0  0  0  0  0  0
  -90.7228   28.0496    2.2565 C   0  0  0  0  0  0  0  0  0  0  0  0
  -91.1640   29.0793    1.3860 O   0  0  0  0  0  0  0  0  0  0  0  0
  -87.3204   33.0712   -0.7728 N   0  0  0  0  0  0  0  0  0  0  0  0
  -87.9558   33.1529    0.0058 H   0  0  0  0  0  0  0  0  0  0  0  0
  -86.0113   32.5830   -0.4165 C   0  0  0  0  0  0  0  0  0  0  0  0
  -84.8887   33.3097   -0.8322 C   0  0  0  0  0  0  0  0  0  0  0  0
  -83.5998   32.8984   -0.5681 C   0  0  0  0  0  0  0  0  0  0  0  0
  -83.3922   31.7354    0.1271 C   0  0  0  0  0  0  0  0  0  0  0  0
  -84.4655   30.9992    0.5485 C   0  0  0  0  0  0  0  0  0  0  0  0
  -85.7706   31.4332    0.2700 C   0  0  0  0  0  0  0  0  0  0  0  0
  -84.2598   29.7711    1.2824 C   0  0  0  0  0  0  0  0  0  0  0  0
  -84.0925   28.7894    1.8768 N   0  0  0  0  0  0  0  0  0  0  0  0
 17 18  1  0  0  0
 18 14  1  0  0  0
 14 15  2  0  0  0
 14  1  1  0  0  0
  1  2  2  0  0  0
  2  3  1  0  0  0
  3  4  2  0  0  0
  4  5  1  0  0  0
  5  6  2  0  0  0
  6  7  1  0  0  0
  7  8  2  0  0  0
  8  9  1  0  0  0
  9 10  2  0  0  0
 10 19  1  0  0  0
 19 21  1  0  0  0
 21 22  2  0  0  0
 22 23  1  0  0  0
 23 24  2  0  0  0
 24 25  1  0  0  0
 25 26  2  0  0  0
 25 27  1  0  0  0
 27 28  3  0  0  0
 10 11  1  0  0  0
 11 12  2  0  0  0
 12 13  1  0  0  0
 13  1  1  0  0  0
 12  3  1  0  0  0
 11  6  1  0  0  0
 26 21  1  0  0  0
 15 16  1  0  0  0
 19 20  1  0  0  0
M  END
> <minimizedAffinity>
-7.79476

> <CNNscore>
0.2284957469

> <CNNaffinity>
6.1141762733

> <CNN_VS>
1.3970632553

> <CNNaffinity_variance>
0.0914829597

$$$$
[H]N=C(OC([H])([H])[H])c1nc2c([H])c([H])c3nc([H])nc(N([H])c4c([H])c([H])c([H])c(C#N)c4[H])c3c2s1


 28 31  0  0  0  0  0  0  0  0999 V2000
  -87.9534   31.6008   -1.5078 C   0  0  0  0  0  0  0  0  0  0  0  0
  -86.9257   32.2211   -0.9842 N   0  0  0  0  0  0  0  0  0  0  0  0
  -86.1145   31.5887   -0.1879 C   0  0  0  0  0  0  0  0  0  0  0  0
  -84.9790   32.1367    0.4469 C   0  0  0  0  0  0  0  0  0  0  0  0
  -84.2255   31.3493    1.2633 C   0  0  0  0  0  0  0  0  0  0  0  0
  -84.4764   30.0229    1.5365 C   0  0  0  0  0  0  0  0  0  0  0  0
  -83.7266   29.2731    2.3474 N   0  0  0  0  0  0  0  0  0  0  0  0
  -84.0224   27.9740    2.5884 C   0  0  0  0  0  0  0  0  0  0  0  0
  -85.0922   27.4665    1.9856 N   0  0  0  0  0  0  0  0  0  0  0  0
  -85.9169   28.1775    1.1330 C   0  0  0  0  0  0  0  0  0  0  0  0
  -85.5995   29.4863    0.9059 C   0  0  0  0  0  0  0  0  0  0  0  0
  -86.3743   30.2691    0.0763 C   0  0  0  0  0  0  0  0  0  0  0  0
  -87.7941   30.0366   -0.8597 S   0  0  0  0  0  0  0  0  0  0  0  0
  -88.9920   32.1175   -2.4290 C   0  0  0  0  0  0  0  0  0  0  0  0
  -90.1570   32.3253   -1.9573 N   0  0  0  0  0  0  0  0  0  0  0  0
  -90.4609   32.1688   -0.9817 H   0  0  0  0  0  0  0  0  0  0  0  0
  -87.7613   33.3144   -4.1833 C   0  0  0  0  0  0  0  0  0  0  0  0
  -88.7220   32.3673   -3.7443 O   0  0  0  0  0  0  0  0  0  0  0  0
  -86.9842   27.5337    0.4972 N   0  0  0  0  0  0  0  0  0  0  0  0
  -87.0850   27.4361   -0.5013 H   0  0  0  0  0  0  0  0  0  0  0  0
  -88.0455   26.9235    1.2591 C   0  0  0  0  0  0  0  0  0  0  0  0
  -88.7456   25.8506    0.6934 C   0  0  0  0  0  0  0  0  0  0  0  0
  -89.7972   25.2312    1.3343 C   0  0  0  0  0  0  0  0  0  0  0  0
  -90.1849   25.6707    2.5733 C   0  0  0  0  0  0  0  0  0  0  0  0
  -89.5242   26.7171    3.1565 C   0  0  0  0  0  0  0  0  0  0  0  0
  -88.4560   27.3358    2.4889 C   0  0  0  0  0  0  0  0  0  0  0  0
  -89.9234   27.1899    4.4627 C   0  0  0  0  0  0  0  0  0  0  0  0
  -90.2461   27.5753    5.5079 N   0  0  0  0  0  0  0  0  0  0  0  0
 17 18  1  0  0  0
 18 14  1  0  0  0
 14 15  2  0  0  0
 14  1  1  0  0  0
  1  2  2  0  0  0
  2  3  1  0  0  0
  3  4  2  0  0  0
  4  5  1  0  0  0
  5  6  2  0  0  0
  6  7  1  0  0  0
  7  8  2  0  0  0
  8  9  1  0  0  0
  9 10  2  0  0  0
 10 19  1  0  0  0
 19 21  1  0  0  0
 21 22  2  0  0  0
 22 23  1  0  0  0
 23 24  2  0  0  0
 24 25  1  0  0  0
 25 26  2  0  0  0
 25 27  1  0  0  0
 27 28  3  0  0  0
 10 11  1  0  0  0
 11 12  2  0  0  0
 12 13  1  0  0  0
 13  1  1  0  0  0
 12  3  1  0  0  0
 11  6  1  0  0  0
 26 21  1  0  0  0
 15 16  1  0  0  0
 19 20  1  0  0  0
M  END
> <minimizedAffinity>
-8.01213

> <CNNscore>
0.1395378709

> <CNNaffinity>
6.3221526146

> <CNN_VS>
0.8821797371

> <CNNaffinity_variance>
0.2553170025

$$$$
[H]c1nc([H])c(N([H])C(=O)C2([H])C([H])([H])C2([H])[H])c([H])c1-c1sc([H])c(-c2c([H])nn(C([H])([H])[H])c2[H])c1[H]


 24 27  0  0  0  0  0  0  0  0999 V2000
  -85.5980   32.9456   -0.9810 C   0  0  0  0  0  0  0  0  0  0  0  0
  -84.4422   33.6820   -1.0794 C   0  0  0  0  0  0  0  0  0  0  0  0
  -83.2998   33.2921   -0.4925 N   0  0  0  0  0  0  0  0  0  0  0  0
  -83.2262   32.1727    0.2158 C   0  0  0  0  0  0  0  0  0  0  0  0
  -84.3526   31.3487    0.3772 C   0  0  0  0  0  0  0  0  0  0  0  0
  -85.5091   31.7791   -0.2395 C   0  0  0  0  0  0  0  0  0  0  0  0
  -88.2810   34.5527   -3.0111 C   0  0  0  0  0  0  0  0  0  0  0  0
  -89.2633   33.7794   -2.4511 C   0  0  0  0  0  0  0  0  0  0  0  0
  -88.4049   32.7992   -1.3550 S   0  0  0  0  0  0  0  0  0  0  0  0
  -86.8307   33.3855   -1.6274 C   0  0  0  0  0  0  0  0  0  0  0  0
  -87.0170   34.3446   -2.5799 C   0  0  0  0  0  0  0  0  0  0  0  0
  -89.3950   36.7687   -7.3709 C   0  0  0  0  0  0  0  0  0  0  0  0
  -89.1408   36.5868   -5.9556 N   0  0  0  0  0  0  0  0  0  0  0  0
  -88.8141   35.3877   -5.3936 C   0  0  0  0  0  0  0  0  0  0  0  0
  -88.6407   35.5576   -4.0450 C   0  0  0  0  0  0  0  0  0  0  0  0
  -88.8654   36.8809   -3.7809 C   0  0  0  0  0  0  0  0  0  0  0  0
  -89.1649   37.4614   -4.9712 N   0  0  0  0  0  0  0  0  0  0  0  0
  -84.2068   30.1666    1.1237 N   0  0  0  0  0  0  0  0  0  0  0  0
  -84.6155   29.9302    2.4447 C   0  0  0  0  0  0  0  0  0  0  0  0
  -85.1789   30.8086    3.1229 O   0  0  0  0  0  0  0  0  0  0  0  0
  -83.7287   29.3386    0.6180 H   0  0  0  0  0  0  0  0  0  0  0  0
  -84.3828   28.5874    3.0939 C   0  0  0  0  0  0  0  0  0  0  0  0
  -84.6497   27.4010    2.2024 C   0  0  0  0  0  0  0  0  0  0  0  0
  -83.2484   27.7551    2.6489 C   0  0  0  0  0  0  0  0  0  0  0  0
 12 13  1  0  0  0
 13 14  1  0  0  0
 14 15  2  0  0  0
 15 16  1  0  0  0
 16 17  2  0  0  0
 15  7  1  0  0  0
  7  8  2  0  0  0
  8  9  1  0  0  0
  9 10  1  0  0  0
 10 11  2  0  0  0
 10  1  1  0  0  0
  1  2  2  0  0  0
  2  3  1  0  0  0
  3  4  2  0  0  0
  4  5  1  0  0  0
  5 18  1  0  0  0
 18 19  1  0  0  0
 19 20  2  0  0  0
 19 22  1  0  0  0
 22 23  1  0  0  0
 23 24  1  0  0  0
  5  6  2  0  0  0
 17 13  1  0  0  0
 11  7  1  0  0  0
  6  1  1  0  0  0
 24 22  1  0  0  0
 18 21  1  0  0  0
M  END
> <minimizedAffinity>
-7.64591

> <CNNscore>
0.7857736945

> <CNNaffinity>
6.4711546898

> <CNN_VS>
5.0848631859

> <CNNaffinity_variance>
0.0260552075

$$$$
[H]c1nc([H])c(N([H])C(=O)C2([H])C([H])([H])C2([H])[H])c([H])c1-c1sc([H])c(-c2c([H])nn(C([H])([H])[H])c2[H])c1[H]


 24 27  0  0  0  0  0  0  0  0999 V2000
  -87.1243   33.3432   -1.8046 C   0  0  0  0  0  0  0  0  0  0  0  0
  -88.4827   33.1492   -1.8751 C   0  0  0  0  0  0  0  0  0  0  0  0
  -89.2724   33.9259   -2.6331 N   0  0  0  0  0  0  0  0  0  0  0  0
  -88.7821   34.9246   -3.3558 C   0  0  0  0  0  0  0  0  0  0  0  0
  -87.4057   35.2062   -3.3526 C   0  0  0  0  0  0  0  0  0  0  0  0
  -86.6238   34.3883   -2.5633 C   0  0  0  0  0  0  0  0  0  0  0  0
  -85.5886   30.6946    0.3236 C   0  0  0  0  0  0  0  0  0  0  0  0
  -84.4003   31.3685    0.4249 C   0  0  0  0  0  0  0  0  0  0  0  0
  -84.6774   32.7789   -0.4878 S   0  0  0  0  0  0  0  0  0  0  0  0
  -86.2815   32.4871   -0.9752 C   0  0  0  0  0  0  0  0  0  0  0  0
  -86.5645   31.2799   -0.4056 C   0  0  0  0  0  0  0  0  0  0  0  0
  -87.4804   26.3962    2.0855 C   0  0  0  0  0  0  0  0  0  0  0  0
  -86.5387   27.4612    1.8033 N   0  0  0  0  0  0  0  0  0  0  0  0
  -86.8517   28.5771    1.0841 C   0  0  0  0  0  0  0  0  0  0  0  0
  -85.7451   29.3809    1.0001 C   0  0  0  0  0  0  0  0  0  0  0  0
  -84.7419   28.7448    1.6787 C   0  0  0  0  0  0  0  0  0  0  0  0
  -85.2733   27.5862    2.1463 N   0  0  0  0  0  0  0  0  0  0  0  0
  -86.9446   36.2657   -4.1529 N   0  0  0  0  0  0  0  0  0  0  0  0
  -87.0771   36.4125   -5.5417 C   0  0  0  0  0  0  0  0  0  0  0  0
  -87.6507   35.5559   -6.2389 O   0  0  0  0  0  0  0  0  0  0  0  0
  -86.4324   37.0662   -3.6364 H   0  0  0  0  0  0  0  0  0  0  0  0
  -86.5220   37.6282   -6.2438 C   0  0  0  0  0  0  0  0  0  0  0  0
  -86.8228   37.6963   -7.7197 C   0  0  0  0  0  0  0  0  0  0  0  0
  -87.4488   38.6638   -6.7397 C   0  0  0  0  0  0  0  0  0  0  0  0
 12 13  1  0  0  0
 13 14  1  0  0  0
 14 15  2  0  0  0
 15 16  1  0  0  0
 16 17  2  0  0  0
 15  7  1  0  0  0
  7  8  2  0  0  0
  8  9  1  0  0  0
  9 10  1  0  0  0
 10 11  2  0  0  0
 10  1  1  0  0  0
  1  2  2  0  0  0
  2  3  1  0  0  0
  3  4  2  0  0  0
  4  5  1  0  0  0
  5 18  1  0  0  0
 18 19  1  0  0  0
 19 20  2  0  0  0
 19 22  1  0  0  0
 22 23  1  0  0  0
 23 24  1  0  0  0
  5  6  2  0  0  0
 17 13  1  0  0  0
 11  7  1  0  0  0
  6  1  1  0  0  0
 24 22  1  0  0  0
 18 21  1  0  0  0
M  END
> <minimizedAffinity>
-7.02913

> <CNNscore>
0.5910263062

> <CNNaffinity>
6.2720999718

> <CNN_VS>
3.7069761753

> <CNNaffinity_variance>
0.0460027121

$$$$
[H]c1nc([H])c(N([H])C(=O)C2([H])C([H])([H])C2([H])[H])c([H])c1-c1sc([H])c(-c2c([H])nn(C([H])([H])[H])c2[H])c1[H]


 24 27  0  0  0  0  0  0  0  0999 V2000
  -87.1368   33.1882   -1.7949 C   0  0  0  0  0  0  0  0  0  0  0  0
  -87.0858   34.3953   -2.4493 C   0  0  0  0  0  0  0  0  0  0  0  0
  -88.1065   34.8403   -3.1986 N   0  0  0  0  0  0  0  0  0  0  0  0
  -89.2211   34.1365   -3.3477 C   0  0  0  0  0  0  0  0  0  0  0  0
  -89.3730   32.8888   -2.7200 C   0  0  0  0  0  0  0  0  0  0  0  0
  -88.3052   32.4624   -1.9576 C   0  0  0  0  0  0  0  0  0  0  0  0
  -84.7754   31.4594    0.5155 C   0  0  0  0  0  0  0  0  0  0  0  0
  -83.7497   32.3182    0.2204 C   0  0  0  0  0  0  0  0  0  0  0  0
  -84.4502   33.3824   -0.9091 S   0  0  0  0  0  0  0  0  0  0  0  0
  -86.0167   32.7215   -0.9834 C   0  0  0  0  0  0  0  0  0  0  0  0
  -85.9529   31.6726   -0.1129 C   0  0  0  0  0  0  0  0  0  0  0  0
  -82.9018   27.4540    2.8832 C   0  0  0  0  0  0  0  0  0  0  0  0
  -83.7560   28.5832    2.5735 N   0  0  0  0  0  0  0  0  0  0  0  0
  -83.5798   29.3900    1.4879 C   0  0  0  0  0  0  0  0  0  0  0  0
  -84.5507   30.3569    1.4861 C   0  0  0  0  0  0  0  0  0  0  0  0
  -85.3308   30.1361    2.5880 C   0  0  0  0  0  0  0  0  0  0  0  0
  -84.8079   29.0505    3.2136 N   0  0  0  0  0  0  0  0  0  0  0  0
  -90.5843   32.1992   -2.9015 N   0  0  0  0  0  0  0  0  0  0  0  0
  -90.8398   31.1278   -3.7704 C   0  0  0  0  0  0  0  0  0  0  0  0
  -89.9564   30.6626   -4.5135 O   0  0  0  0  0  0  0  0  0  0  0  0
  -91.4169   32.5290   -2.2949 H   0  0  0  0  0  0  0  0  0  0  0  0
  -92.2099   30.4972   -3.8329 C   0  0  0  0  0  0  0  0  0  0  0  0
  -92.7994   30.4058   -5.2177 C   0  0  0  0  0  0  0  0  0  0  0  0
  -92.3680   29.1703   -4.4587 C   0  0  0  0  0  0  0  0  0  0  0  0
 12 13  1  0  0  0
 13 14  1  0  0  0
 14 15  2  0  0  0
 15 16  1  0  0  0
 16 17  2  0  0  0
 15  7  1  0  0  0
  7  8  2  0  0  0
  8  9  1  0  0  0
  9 10  1  0  0  0
 10 11  2  0  0  0
 10  1  1  0  0  0
  1  2  2  0  0  0
  2  3  1  0  0  0
  3  4  2  0  0  0
  4  5  1  0  0  0
  5 18  1  0  0  0
 18 19  1  0  0  0
 19 20  2  0  0  0
 19 22  1  0  0  0
 22 23  1  0  0  0
 23 24  1  0  0  0
  5  6  2  0  0  0
 17 13  1  0  0  0
 11  7  1  0  0  0
  6  1  1  0  0  0
 24 22  1  0  0  0
 18 21  1  0  0  0
M  END
> <minimizedAffinity>
-7.13013

> <CNNscore>
0.5064507127

> <CNNaffinity>
6.3032021523

> <CNN_VS>
3.1922612190

> <CNNaffinity_variance>
0.0506518073

$$$$
[H]c1nc([H])c(N([H])C(=O)C2([H])C([H])([H])C2([H])[H])c([H])c1-c1sc([H])c(-c2c([H])nn(C([H])([H])[H])c2[H])c1[H]


 24 27  0  0  0  0  0  0  0  0999 V2000
  -84.7230   30.8995    0.3238 C   0  0  0  0  0  0  0  0  0  0  0  0
  -83.4173   31.3262    0.2938 C   0  0  0  0  0  0  0  0  0  0  0  0
  -83.0711   32.5166   -0.2204 N   0  0  0  0  0  0  0  0  0  0  0  0
  -83.9733   33.3460   -0.7285 C   0  0  0  0  0  0  0  0  0  0  0  0
  -85.3357   33.0034   -0.7458 C   0  0  0  0  0  0  0  0  0  0  0  0
  -85.6560   31.7736   -0.2091 C   0  0  0  0  0  0  0  0  0  0  0  0
  -86.2804   27.6717    1.3528 C   0  0  0  0  0  0  0  0  0  0  0  0
  -85.2166   27.3322    2.1463 C   0  0  0  0  0  0  0  0  0  0  0  0
  -84.1590   28.6535    1.9600 S   0  0  0  0  0  0  0  0  0  0  0  0
  -85.0802   29.6015    0.8883 C   0  0  0  0  0  0  0  0  0  0  0  0
  -86.2054   28.8529    0.7002 C   0  0  0  0  0  0  0  0  0  0  0  0
  -90.3344   24.9109    2.4028 C   0  0  0  0  0  0  0  0  0  0  0  0
  -89.2387   25.5039    1.6621 N   0  0  0  0  0  0  0  0  0  0  0  0
  -88.3411   26.3748    2.2065 C   0  0  0  0  0  0  0  0  0  0  0  0
  -87.4380   26.7463    1.2452 C   0  0  0  0  0  0  0  0  0  0  0  0
  -87.7907   26.0917    0.0970 C   0  0  0  0  0  0  0  0  0  0  0  0
  -88.8877   25.3519    0.4019 N   0  0  0  0  0  0  0  0  0  0  0  0
  -86.2453   33.9318   -1.2810 N   0  0  0  0  0  0  0  0  0  0  0  0
  -86.9045   33.8719   -2.5179 C   0  0  0  0  0  0  0  0  0  0  0  0
  -86.7270   32.9279   -3.3093 O   0  0  0  0  0  0  0  0  0  0  0  0
  -86.4689   34.7913   -0.6636 H   0  0  0  0  0  0  0  0  0  0  0  0
  -87.8613   34.9628   -2.9339 C   0  0  0  0  0  0  0  0  0  0  0  0
  -88.2848   34.9125   -4.3802 C   0  0  0  0  0  0  0  0  0  0  0  0
  -89.2577   34.6150   -3.2606 C   0  0  0  0  0  0  0  0  0  0  0  0
 12 13  1  0  0  0
 13 14  1  0  0  0
 14 15  2  0  0  0
 15 16  1  0  0  0
 16 17  2  0  0  0
 15  7  1  0  0  0
  7  8  2  0  0  0
  8  9  1  0  0  0
  9 10  1  0  0  0
 10 11  2  0  0  0
 10  1  1  0  0  0
  1  2  2  0  0  0
  2  3  1  0  0  0
  3  4  2  0  0  0
  4  5  1  0  0  0
  5 18  1  0  0  0
 18 19  1  0  0  0
 19 20  2  0  0  0
 19 22  1  0  0  0
 22 23  1  0  0  0
 23 24  1  0  0  0
  5  6  2  0  0  0
 17 13  1  0  0  0
 11  7  1  0  0  0
  6  1  1  0  0  0
 24 22  1  0  0  0
 18 21  1  0  0  0
M  END
> <minimizedAffinity>
-7.54299

> <CNNscore>
0.3800696731

> <CNNaffinity>
6.4373373985

> <CNN_VS>
2.4466366768

> <CNNaffinity_variance>
0.0675703436

$$$$
[H]c1nc([H])c(N([H])C(=O)C2([H])C([H])([H])C2([H])[H])c([H])c1-c1sc([H])c(-c2c([H])nn(C([H])([H])[H])c2[H])c1[H]


 24 27  0  0  0  0  0  0  0  0999 V2000
  -85.6408   29.6179    0.8021 C   0  0  0  0  0  0  0  0  0  0  0  0
  -84.5494   29.2089    1.5298 C   0  0  0  0  0  0  0  0  0  0  0  0
  -84.4921   27.9967    2.1030 N   0  0  0  0  0  0  0  0  0  0  0  0
  -85.4887   27.1273    1.9974 C   0  0  0  0  0  0  0  0  0  0  0  0
  -86.6497   27.4489    1.2747 C   0  0  0  0  0  0  0  0  0  0  0  0
  -86.6747   28.7021    0.6985 C   0  0  0  0  0  0  0  0  0  0  0  0
  -86.4389   32.7631   -1.0347 C   0  0  0  0  0  0  0  0  0  0  0  0
  -85.2584   33.3558   -0.6719 C   0  0  0  0  0  0  0  0  0  0  0  0
  -84.4986   32.1581    0.2700 S   0  0  0  0  0  0  0  0  0  0  0  0
  -85.6842   30.9401    0.1850 C   0  0  0  0  0  0  0  0  0  0  0  0
  -86.6565   31.5065   -0.5869 C   0  0  0  0  0  0  0  0  0  0  0  0
  -88.4695   35.9640   -4.3195 C   0  0  0  0  0  0  0  0  0  0  0  0
  -88.3532   34.9134   -3.3278 N   0  0  0  0  0  0  0  0  0  0  0  0
  -87.1687   34.5206   -2.7771 C   0  0  0  0  0  0  0  0  0  0  0  0
  -87.4046   33.5120   -1.8800 C   0  0  0  0  0  0  0  0  0  0  0  0
  -88.7539   33.2866   -1.8841 C   0  0  0  0  0  0  0  0  0  0  0  0
  -89.2835   34.1609   -2.7777 N   0  0  0  0  0  0  0  0  0  0  0  0
  -87.6631   26.4791    1.1838 N   0  0  0  0  0  0  0  0  0  0  0  0
  -88.7871   26.3326    2.0103 C   0  0  0  0  0  0  0  0  0  0  0  0
  -89.0000   27.0988    2.9677 O   0  0  0  0  0  0  0  0  0  0  0  0
  -87.5692   25.7646    0.3771 H   0  0  0  0  0  0  0  0  0  0  0  0
  -89.7862   25.2285    1.7626 C   0  0  0  0  0  0  0  0  0  0  0  0
  -90.9373   25.6089    0.8661 C   0  0  0  0  0  0  0  0  0  0  0  0
  -89.8792   24.6243    0.4196 C   0  0  0  0  0  0  0  0  0  0  0  0
 12 13  1  0  0  0
 13 14  1  0  0  0
 14 15  2  0  0  0
 15 16  1  0  0  0
 16 17  2  0  0  0
 15  7  1  0  0  0
  7  8  2  0  0  0
  8  9  1  0  0  0
  9 10  1  0  0  0
 10 11  2  0  0  0
 10  1  1  0  0  0
  1  2  2  0  0  0
  2  3  1  0  0  0
  3  4  2  0  0  0
  4  5  1  0  0  0
  5 18  1  0  0  0
 18 19  1  0  0  0
 19 20  2  0  0  0
 19 22  1  0  0  0
 22 23  1  0  0  0
 23 24  1  0  0  0
  5  6  2  0  0  0
 17 13  1  0  0  0
 11  7  1  0  0  0
  6  1  1  0  0  0
 24 22  1  0  0  0
 18 21  1  0  0  0
M  END
> <minimizedAffinity>
-7.20062

> <CNNscore>
0.3652556241

> <CNNaffinity>
6.3444323540

> <CNN_VS>
2.3173396587

> <CNNaffinity_variance>
0.1616169661

$$$$
[H]c1nc([H])c(N([H])C(=O)C2([H])C([H])([H])C2([H])[H])c([H])c1-c1sc([H])c(-c2c([H])nn(C([H])([H])[H])c2[H])c1[H]


 24 27  0  0  0  0  0  0  0  0999 V2000
  -86.3544   32.9516   -1.5425 C   0  0  0  0  0  0  0  0  0  0  0  0
  -85.2359   33.7492   -1.5713 C   0  0  0  0  0  0  0  0  0  0  0  0
  -84.1374   33.4576   -0.8573 N   0  0  0  0  0  0  0  0  0  0  0  0
  -84.0735   32.3816   -0.0839 C   0  0  0  0  0  0  0  0  0  0  0  0
  -85.1641   31.5016    0.0152 C   0  0  0  0  0  0  0  0  0  0  0  0
  -86.2760   31.8312   -0.7320 C   0  0  0  0  0  0  0  0  0  0  0  0
  -89.5023   33.0414   -3.5389 C   0  0  0  0  0  0  0  0  0  0  0  0
  -89.4655   34.4050   -3.6636 C   0  0  0  0  0  0  0  0  0  0  0  0
  -88.0509   34.8320   -2.8177 S   0  0  0  0  0  0  0  0  0  0  0  0
  -87.5395   33.2848   -2.3271 C   0  0  0  0  0  0  0  0  0  0  0  0
  -88.4986   32.4626   -2.8428 C   0  0  0  0  0  0  0  0  0  0  0  0
  -92.5408   29.3422   -5.0365 C   0  0  0  0  0  0  0  0  0  0  0  0
  -91.9990   30.6726   -4.8436 N   0  0  0  0  0  0  0  0  0  0  0  0
  -90.8514   30.9293   -4.1525 C   0  0  0  0  0  0  0  0  0  0  0  0
  -90.6191   32.2797   -4.1558 C   0  0  0  0  0  0  0  0  0  0  0  0
  -91.6412   32.8551   -4.8599 C   0  0  0  0  0  0  0  0  0  0  0  0
  -92.4506   31.8392   -5.2552 N   0  0  0  0  0  0  0  0  0  0  0  0
  -85.0289   30.3692    0.8370 N   0  0  0  0  0  0  0  0  0  0  0  0
  -84.9315   30.3310    2.2359 C   0  0  0  0  0  0  0  0  0  0  0  0
  -84.9529   31.3690    2.9223 O   0  0  0  0  0  0  0  0  0  0  0  0
  -85.0034   29.4131    0.3318 H   0  0  0  0  0  0  0  0  0  0  0  0
  -84.7961   29.0148    2.9626 C   0  0  0  0  0  0  0  0  0  0  0  0
  -85.0199   27.7950    2.1050 C   0  0  0  0  0  0  0  0  0  0  0  0
  -83.6526   28.1336    2.6569 C   0  0  0  0  0  0  0  0  0  0  0  0
 12 13  1  0  0  0
 13 14  1  0  0  0
 14 15  2  0  0  0
 15 16  1  0  0  0
 16 17  2  0  0  0
 15  7  1  0  0  0
  7  8  2  0  0  0
  8  9  1  0  0  0
  9 10  1  0  0  0
 10 11  2  0  0  0
 10  1  1  0  0  0
  1  2  2  0  0  0
  2  3  1  0  0  0
  3  4  2  0  0  0
  4  5  1  0  0  0
  5 18  1  0  0  0
 18 19  1  0  0  0
 19 20  2  0  0  0
 19 22  1  0  0  0
 22 23  1  0  0  0
 23 24  1  0  0  0
  5  6  2  0  0  0
 17 13  1  0  0  0
 11  7  1  0  0  0
  6  1  1  0  0  0
 24 22  1  0  0  0
 18 21  1  0  0  0
M  END
> <minimizedAffinity>
-7.05697

> <CNNscore>
0.3019021451

> <CNNaffinity>
6.0268554688

> <CNN_VS>
1.8195205927

> <CNNaffinity_variance>
0.1402583718

$$$$
[H]c1nc([H])c(N([H])C(=O)C2([H])C([H])([H])C2([H])[H])c([H])c1-c1sc([H])c(-c2c([H])nn(C([H])([H])[H])c2[H])c1[H]


 24 27  0  0  0  0  0  0  0  0999 V2000
  -88.7962   31.4135   -1.4685 C   0  0  0  0  0  0  0  0  0  0  0  0
  -88.9601   32.6269   -2.0921 C   0  0  0  0  0  0  0  0  0  0  0  0
  -88.0461   33.6048   -1.9937 N   0  0  0  0  0  0  0  0  0  0  0  0
  -86.9336   33.4513   -1.2873 C   0  0  0  0  0  0  0  0  0  0  0  0
  -86.6714   32.2480   -0.6114 C   0  0  0  0  0  0  0  0  0  0  0  0
  -87.6312   31.2647   -0.7343 C   0  0  0  0  0  0  0  0  0  0  0  0
  -91.2781   28.8419   -2.5314 C   0  0  0  0  0  0  0  0  0  0  0  0
  -91.5686   28.4891   -1.2401 C   0  0  0  0  0  0  0  0  0  0  0  0
  -90.5632   29.5137   -0.3245 S   0  0  0  0  0  0  0  0  0  0  0  0
  -89.8012   30.3615   -1.5882 C   0  0  0  0  0  0  0  0  0  0  0  0
  -90.3582   29.8162   -2.7081 C   0  0  0  0  0  0  0  0  0  0  0  0
  -93.8990   27.8934   -6.7017 C   0  0  0  0  0  0  0  0  0  0  0  0
  -93.1244   27.6790   -5.4955 N   0  0  0  0  0  0  0  0  0  0  0  0
  -92.6574   28.6890   -4.7067 C   0  0  0  0  0  0  0  0  0  0  0  0
  -91.9678   28.1511   -3.6518 C   0  0  0  0  0  0  0  0  0  0  0  0
  -92.0152   26.7920   -3.8001 C   0  0  0  0  0  0  0  0  0  0  0  0
  -92.7271   26.5569   -4.9321 N   0  0  0  0  0  0  0  0  0  0  0  0
  -85.4671   32.1398    0.1054 N   0  0  0  0  0  0  0  0  0  0  0  0
  -85.1042   31.1478    1.0285 C   0  0  0  0  0  0  0  0  0  0  0  0
  -85.8714   30.2119    1.3193 O   0  0  0  0  0  0  0  0  0  0  0  0
  -84.7298   32.9089   -0.0812 H   0  0  0  0  0  0  0  0  0  0  0  0
  -83.7562   31.1835    1.7070 C   0  0  0  0  0  0  0  0  0  0  0  0
  -82.9858   29.8887    1.6477 C   0  0  0  0  0  0  0  0  0  0  0  0
  -82.5312   31.1149    0.8871 C   0  0  0  0  0  0  0  0  0  0  0  0
 12 13  1  0  0  0
 13 14  1  0  0  0
 14 15  2  0  0  0
 15 16  1  0  0  0
 16 17  2  0  0  0
 15  7  1  0  0  0
  7  8  2  0  0  0
  8  9  1  0  0  0
  9 10  1  0  0  0
 10 11  2  0  0  0
 10  1  1  0  0  0
  1  2  2  0  0  0
  2  3  1  0  0  0
  3  4  2  0  0  0
  4  5  1  0  0  0
  5 18  1  0  0  0
 18 19  1  0  0  0
 19 20  2  0  0  0
 19 22  1  0  0  0
 22 23  1  0  0  0
 23 24  1  0  0  0
  5  6  2  0  0  0
 17 13  1  0  0  0
 11  7  1  0  0  0
  6  1  1  0  0  0
 24 22  1  0  0  0
 18 21  1  0  0  0
M  END
> <minimizedAffinity>
-6.96745

> <CNNscore>
0.1497923732

> <CNNaffinity>
5.6630196571

> <CNN_VS>
0.8482771516

> <CNNaffinity_variance>
0.1014130339

$$$$
[H]c1nc([H])c(N([H])C(=O)C2([H])C([H])([H])C2([H])[H])c([H])c1-c1sc([H])c(-c2c([H])nn(C([H])([H])[H])c2[H])c1[H]


 24 27  0  0  0  0  0  0  0  0999 V2000
  -88.7663   32.4908   -2.8890 C   0  0  0  0  0  0  0  0  0  0  0  0
  -89.1408   33.7603   -3.2577 C   0  0  0  0  0  0  0  0  0  0  0  0
  -88.3071   34.8065   -3.1482 N   0  0  0  0  0  0  0  0  0  0  0  0
  -87.0746   34.6698   -2.6768 C   0  0  0  0  0  0  0  0  0  0  0  0
  -86.5949   33.4130   -2.2720 C   0  0  0  0  0  0  0  0  0  0  0  0
  -87.4775   32.3603   -2.3985 C   0  0  0  0  0  0  0  0  0  0  0  0
  -90.5347   29.2084   -2.9177 C   0  0  0  0  0  0  0  0  0  0  0  0
  -91.6760   29.7500   -3.4473 C   0  0  0  0  0  0  0  0  0  0  0  0
  -91.2792   31.3971   -3.6162 S   0  0  0  0  0  0  0  0  0  0  0  0
  -89.6869   31.3652   -3.0165 C   0  0  0  0  0  0  0  0  0  0  0  0
  -89.5024   30.0519   -2.6951 C   0  0  0  0  0  0  0  0  0  0  0  0
  -91.6955   24.3443   -2.5266 C   0  0  0  0  0  0  0  0  0  0  0  0
  -90.9558   25.5861   -2.4191 N   0  0  0  0  0  0  0  0  0  0  0  0
  -91.4231   26.7865   -2.8676 C   0  0  0  0  0  0  0  0  0  0  0  0
  -90.4864   27.7542   -2.6156 C   0  0  0  0  0  0  0  0  0  0  0  0
  -89.4315   27.1340   -2.0041 C   0  0  0  0  0  0  0  0  0  0  0  0
  -89.7649   25.8213   -1.9083 N   0  0  0  0  0  0  0  0  0  0  0  0
  -85.2742   33.3294   -1.7981 N   0  0  0  0  0  0  0  0  0  0  0  0
  -84.8324   32.7947   -0.5786 C   0  0  0  0  0  0  0  0  0  0  0  0
  -85.6261   32.3175    0.2528 O   0  0  0  0  0  0  0  0  0  0  0  0
  -84.5063   33.7172   -2.4537 H   0  0  0  0  0  0  0  0  0  0  0  0
  -83.3635   32.7807   -0.2313 C   0  0  0  0  0  0  0  0  0  0  0  0
  -83.0324   32.1195    1.0828 C   0  0  0  0  0  0  0  0  0  0  0  0
  -82.6304   31.5000   -0.2376 C   0  0  0  0  0  0  0  0  0  0  0  0
 12 13  1  0  0  0
 13 14  1  0  0  0
 14 15  2  0  0  0
 15 16  1  0  0  0
 16 17  2  0  0  0
 15  7  1  0  0  0
  7  8  2  0  0  0
  8  9  1  0  0  0
  9 10  1  0  0  0
 10 11  2  0  0  0
 10  1  1  0  0  0
  1  2  2  0  0  0
  2  3  1  0  0  0
  3  4  2  0  0  0
  4  5  1  0  0  0
  5 18  1  0  0  0
 18 19  1  0  0  0
 19 20  2  0  0  0
 19 22  1  0  0  0
 22 23  1  0  0  0
 23 24  1  0  0  0
  5  6  2  0  0  0
 17 13  1  0  0  0
 11  7  1  0  0  0
  6  1  1  0  0  0
 24 22  1  0  0  0
 18 21  1  0  0  0
M  END
> <minimizedAffinity>
-6.52633

> <CNNscore>
0.1316944510

> <CNNaffinity>
5.5517554283

> <CNN_VS>
0.7311353683

> <CNNaffinity_variance>
0.1555534154

$$$$
[H]c1nc([H])c(N([H])C(=O)C2([H])C([H])([H])C2([H])[H])c([H])c1-c1sc([H])c(-c2c([H])nn(C([H])([H])[H])c2[H])c1[H]


 24 27  0  0  0  0  0  0  0  0999 V2000
  -87.1151   31.7702   -0.7965 C   0  0  0  0  0  0  0  0  0  0  0  0
  -86.0846   32.6765   -0.8654 C   0  0  0  0  0  0  0  0  0  0  0  0
  -86.1995   33.8324   -1.5379 N   0  0  0  0  0  0  0  0  0  0  0  0
  -87.3165   34.1616   -2.1734 C   0  0  0  0  0  0  0  0  0  0  0  0
  -88.4286   33.3032   -2.1642 C   0  0  0  0  0  0  0  0  0  0  0  0
  -88.2761   32.1247   -1.4634 C   0  0  0  0  0  0  0  0  0  0  0  0
  -87.4435   28.4139    0.7942 C   0  0  0  0  0  0  0  0  0  0  0  0
  -86.2208   28.5075    1.4047 C   0  0  0  0  0  0  0  0  0  0  0  0
  -85.6560   30.0343    0.9057 S   0  0  0  0  0  0  0  0  0  0  0  0
  -86.9715   30.5185   -0.0592 C   0  0  0  0  0  0  0  0  0  0  0  0
  -87.8302   29.4622    0.0336 C   0  0  0  0  0  0  0  0  0  0  0  0
  -89.8636   24.0854    0.0414 C   0  0  0  0  0  0  0  0  0  0  0  0
  -89.3574   25.2714    0.7033 N   0  0  0  0  0  0  0  0  0  0  0  0
  -88.5708   26.2023    0.0906 C   0  0  0  0  0  0  0  0  0  0  0  0
  -88.2669   27.1923    0.9880 C   0  0  0  0  0  0  0  0  0  0  0  0
  -88.8777   26.8595    2.1659 C   0  0  0  0  0  0  0  0  0  0  0  0
  -89.5255   25.6876    1.9414 N   0  0  0  0  0  0  0  0  0  0  0  0
  -89.5895   33.7160   -2.8407 N   0  0  0  0  0  0  0  0  0  0  0  0
  -89.7855   33.8153   -4.2263 C   0  0  0  0  0  0  0  0  0  0  0  0
  -88.8848   33.5315   -5.0369 O   0  0  0  0  0  0  0  0  0  0  0  0
  -90.4343   33.9827   -2.2202 H   0  0  0  0  0  0  0  0  0  0  0  0
  -91.1103   34.2749   -4.7854 C   0  0  0  0  0  0  0  0  0  0  0  0
  -91.3412   33.9202   -6.2326 C   0  0  0  0  0  0  0  0  0  0  0  0
  -92.1401   33.2733   -5.1227 C   0  0  0  0  0  0  0  0  0  0  0  0
 12 13  1  0  0  0
 13 14  1  0  0  0
 14 15  2  0  0  0
 15 16  1  0  0  0
 16 17  2  0  0  0
 15  7  1  0  0  0
  7  8  2  0  0  0
  8  9  1  0  0  0
  9 10  1  0  0  0
 10 11  2  0  0  0
 10  1  1  0  0  0
  1  2  2  0  0  0
  2  3  1  0  0  0
  3  4  2  0  0  0
  4  5  1  0  0  0
  5 18  1  0  0  0
 18 19  1  0  0  0
 19 20  2  0  0  0
 19 22  1  0  0  0
 22 23  1  0  0  0
 23 24  1  0  0  0
  5  6  2  0  0  0
 17 13  1  0  0  0
 11  7  1  0  0  0
  6  1  1  0  0  0
 24 22  1  0  0  0
 18 21  1  0  0  0
M  END
> <minimizedAffinity>
-6.32883

> <CNNscore>
0.1187701076

> <CNNaffinity>
5.7037620544

> <CNN_VS>
0.6774364114

> <CNNaffinity_variance>
0.3873849511

$$$$
[H]c1sc(-c2c([H])c([H])c3c(c2[H])C([H])([H])C([H])([H])O3)nc1C(=O)N([H])c1nc(SC([H])(C([H])([H])[H])C([H])([H])[H])nn1[H]


 28 31  0  0  0  0  0  0  0  0999 V2000
  -84.9194   28.2790    2.1606 N   0  0  0  0  0  0  0  0  0  0  0  0
  -83.9504   29.1545    1.8019 C   0  0  0  0  0  0  0  0  0  0  0  0
  -82.7377   28.8537    2.2482 O   0  0  0  0  0  0  0  0  0  0  0  0
  -84.5219   27.4504    2.8023 H   0  0  0  0  0  0  0  0  0  0  0  0
  -88.2700   27.0979    2.1096 C   0  0  0  0  0  0  0  0  0  0  0  0
  -88.3085   27.9095    1.0503 N   0  0  0  0  0  0  0  0  0  0  0  0
  -87.1087   28.4774    0.9119 N   0  0  0  0  0  0  0  0  0  0  0  0
  -86.2791   28.0641    1.8513 C   0  0  0  0  0  0  0  0  0  0  0  0
  -87.0397   27.1856    2.6025 N   0  0  0  0  0  0  0  0  0  0  0  0
  -86.9219   29.1271    0.1375 H   0  0  0  0  0  0  0  0  0  0  0  0
  -89.6614   26.1386    2.6537 S   0  0  0  0  0  0  0  0  0  0  0  0
  -90.9640   28.4535    3.4209 C   0  0  0  0  0  0  0  0  0  0  0  0
  -90.6965   27.0300    3.8228 C   0  0  0  0  0  0  0  0  0  0  0  0
  -89.9984   27.0464    5.1702 C   0  0  0  0  0  0  0  0  0  0  0  0
  -83.9863   30.3984    0.9981 C   0  0  0  0  0  0  0  0  0  0  0  0
  -82.9018   31.2097    0.8017 C   0  0  0  0  0  0  0  0  0  0  0  0
  -83.5470   32.4746   -0.1368 S   0  0  0  0  0  0  0  0  0  0  0  0
  -85.1627   31.9082   -0.2328 C   0  0  0  0  0  0  0  0  0  0  0  0
  -85.1156   30.7953    0.4519 N   0  0  0  0  0  0  0  0  0  0  0  0
  -86.3136   32.5383   -0.9221 C   0  0  0  0  0  0  0  0  0  0  0  0
  -87.5923   32.1438   -0.6174 C   0  0  0  0  0  0  0  0  0  0  0  0
  -88.6744   32.7452   -1.2755 C   0  0  0  0  0  0  0  0  0  0  0  0
  -88.4933   33.7262   -2.2249 C   0  0  0  0  0  0  0  0  0  0  0  0
  -89.3833   34.4783   -3.0177 O   0  0  0  0  0  0  0  0  0  0  0  0
  -88.7043   35.6858   -3.3915 C   0  0  0  0  0  0  0  0  0  0  0  0
  -87.2987   35.1625   -3.5633 C   0  0  0  0  0  0  0  0  0  0  0  0
  -87.2089   34.1127   -2.5216 C   0  0  0  0  0  0  0  0  0  0  0  0
  -86.1201   33.5119   -1.8635 C   0  0  0  0  0  0  0  0  0  0  0  0
 12 13  1  0  0  0
 13 14  1  0  0  0
 13 11  1  0  0  0
 11  5  1  0  0  0
  5  6  2  0  0  0
  6  7  1  0  0  0
  7  8  1  0  0  0
  8  1  1  0  0  0
  1  2  1  0  0  0
  2  3  2  0  0  0
  2 15  1  0  0  0
 15 16  2  0  0  0
 16 17  1  0  0  0
 17 18  1  0  0  0
 18 19  2  0  0  0
 18 20  1  0  0  0
 20 21  2  0  0  0
 21 22  1  0  0  0
 22 23  2  0  0  0
 23 24  1  0  0  0
 24 25  1  0  0  0
 25 26  1  0  0  0
 26 27  1  0  0  0
 27 28  2  0  0  0
  8  9  2  0  0  0
  9  5  1  0  0  0
 19 15  1  0  0  0
 28 20  1  0  0  0
 27 23  1  0  0  0
  7 10  1  0  0  0
  1  4  1  0  0  0
M  END
> <minimizedAffinity>
-8.56992

> <CNNscore>
0.8009371161

> <CNNaffinity>
7.1500215530

> <CNN_VS>
5.7267174721

> <CNNaffinity_variance>
0.1752607822

$$$$
[H]c1sc(-c2c([H])c([H])c3c(c2[H])C([H])([H])C([H])([H])O3)nc1C(=O)N([H])c1nc(SC([H])(C([H])([H])[H])C([H])([H])[H])nn1[H]


 28 31  0  0  0  0  0  0  0  0999 V2000
  -85.3762   26.8539    2.2649 N   0  0  0  0  0  0  0  0  0  0  0  0
  -84.2853   27.6565    2.2606 C   0  0  0  0  0  0  0  0  0  0  0  0
  -83.2197   27.1479    2.8657 O   0  0  0  0  0  0  0  0  0  0  0  0
  -85.1892   25.8920    2.8088 H   0  0  0  0  0  0  0  0  0  0  0  0
  -88.8726   27.0761    1.6731 C   0  0  0  0  0  0  0  0  0  0  0  0
  -88.4728   26.6652    0.4674 N   0  0  0  0  0  0  0  0  0  0  0  0
  -87.1445   26.5366    0.4861 N   0  0  0  0  0  0  0  0  0  0  0  0
  -86.6559   26.8523    1.6706 C   0  0  0  0  0  0  0  0  0  0  0  0
  -87.7742   27.1921    2.4110 N   0  0  0  0  0  0  0  0  0  0  0  0
  -86.6373   26.2092   -0.3459 H   0  0  0  0  0  0  0  0  0  0  0  0
  -90.5732   27.3740    2.0871 S   0  0  0  0  0  0  0  0  0  0  0  0
  -90.0946   28.0321    4.7294 C   0  0  0  0  0  0  0  0  0  0  0  0
  -90.9070   27.1352    3.8375 C   0  0  0  0  0  0  0  0  0  0  0  0
  -90.5835   25.6972    4.1986 C   0  0  0  0  0  0  0  0  0  0  0  0
  -84.0520   29.0093    1.7039 C   0  0  0  0  0  0  0  0  0  0  0  0
  -82.8798   29.7007    1.8487 C   0  0  0  0  0  0  0  0  0  0  0  0
  -83.2142   31.1718    1.0606 S   0  0  0  0  0  0  0  0  0  0  0  0
  -84.8270   30.8337    0.5861 C   0  0  0  0  0  0  0  0  0  0  0  0
  -85.0146   29.6271    1.0534 N   0  0  0  0  0  0  0  0  0  0  0  0
  -85.7618   31.7056   -0.1640 C   0  0  0  0  0  0  0  0  0  0  0  0
  -85.3069   32.8727   -0.7249 C   0  0  0  0  0  0  0  0  0  0  0  0
  -86.1991   33.6913   -1.4318 C   0  0  0  0  0  0  0  0  0  0  0  0
  -87.5271   33.3588   -1.5821 C   0  0  0  0  0  0  0  0  0  0  0  0
  -88.6119   33.9853   -2.2277 O   0  0  0  0  0  0  0  0  0  0  0  0
  -89.5740   32.9649   -2.5309 C   0  0  0  0  0  0  0  0  0  0  0  0
  -89.4168   32.0778   -1.3195 C   0  0  0  0  0  0  0  0  0  0  0  0
  -87.9709   32.1883   -1.0162 C   0  0  0  0  0  0  0  0  0  0  0  0
  -87.0790   31.3639   -0.3060 C   0  0  0  0  0  0  0  0  0  0  0  0
 12 13  1  0  0  0
 13 14  1  0  0  0
 13 11  1  0  0  0
 11  5  1  0  0  0
  5  6  2  0  0  0
  6  7  1  0  0  0
  7  8  1  0  0  0
  8  1  1  0  0  0
  1  2  1  0  0  0
  2  3  2  0  0  0
  2 15  1  0  0  0
 15 16  2  0  0  0
 16 17  1  0  0  0
 17 18  1  0  0  0
 18 19  2  0  0  0
 18 20  1  0  0  0
 20 21  2  0  0  0
 21 22  1  0  0  0
 22 23  2  0  0  0
 23 24  1  0  0  0
 24 25  1  0  0  0
 25 26  1  0  0  0
 26 27  1  0  0  0
 27 28  2  0  0  0
  8  9  2  0  0  0
  9  5  1  0  0  0
 19 15  1  0  0  0
 28 20  1  0  0  0
 27 23  1  0  0  0
  7 10  1  0  0  0
  1  4  1  0  0  0
M  END
> <minimizedAffinity>
-8.75797

> <CNNscore>
0.7253071666

> <CNNaffinity>
7.0172853470

> <CNN_VS>
5.0896873474

> <CNNaffinity_variance>
0.0266477652

$$$$
[H]c1sc(-c2c([H])c([H])c3c(c2[H])C([H])([H])C([H])([H])O3)nc1C(=O)N([H])c1nc(SC([H])(C([H])([H])[H])C([H])([H])[H])nn1[H]


 28 31  0  0  0  0  0  0  0  0999 V2000
  -85.1447   29.9934    3.0556 N   0  0  0  0  0  0  0  0  0  0  0  0
  -84.8364   31.2472    2.6470 C   0  0  0  0  0  0  0  0  0  0  0  0
  -84.6021   32.1089    3.6284 O   0  0  0  0  0  0  0  0  0  0  0  0
  -85.1697   29.9087    4.1729 H   0  0  0  0  0  0  0  0  0  0  0  0
  -86.4834   27.2013    1.3130 C   0  0  0  0  0  0  0  0  0  0  0  0
  -85.3323   26.6679    1.7283 N   0  0  0  0  0  0  0  0  0  0  0  0
  -84.6592   27.5979    2.4090 N   0  0  0  0  0  0  0  0  0  0  0  0
  -85.3337   28.7313    2.4536 C   0  0  0  0  0  0  0  0  0  0  0  0
  -86.4927   28.4557    1.7499 N   0  0  0  0  0  0  0  0  0  0  0  0
  -83.7483   27.3813    2.8332 H   0  0  0  0  0  0  0  0  0  0  0  0
  -87.6882   26.3040    0.3667 S   0  0  0  0  0  0  0  0  0  0  0  0
  -87.2644   28.0497   -1.7350 C   0  0  0  0  0  0  0  0  0  0  0  0
  -88.3226   27.2570   -1.0197 C   0  0  0  0  0  0  0  0  0  0  0  0
  -89.3656   28.2290   -0.4999 C   0  0  0  0  0  0  0  0  0  0  0  0
  -84.7100   31.8476    1.2986 C   0  0  0  0  0  0  0  0  0  0  0  0
  -83.5325   32.3132    0.7796 C   0  0  0  0  0  0  0  0  0  0  0  0
  -84.0065   32.9153   -0.7402 S   0  0  0  0  0  0  0  0  0  0  0  0
  -85.6777   32.5443   -0.6396 C   0  0  0  0  0  0  0  0  0  0  0  0
  -85.7754   31.9870    0.5391 N   0  0  0  0  0  0  0  0  0  0  0  0
  -86.7342   32.8018   -1.6467 C   0  0  0  0  0  0  0  0  0  0  0  0
  -86.5441   33.7649   -2.6058 C   0  0  0  0  0  0  0  0  0  0  0  0
  -87.5497   34.0017   -3.5537 C   0  0  0  0  0  0  0  0  0  0  0  0
  -88.7308   33.2932   -3.5525 C   0  0  0  0  0  0  0  0  0  0  0  0
  -89.8784   33.3286   -4.3698 O   0  0  0  0  0  0  0  0  0  0  0  0
  -90.5184   32.0491   -4.2608 C   0  0  0  0  0  0  0  0  0  0  0  0
  -90.2474   31.7349   -2.8093 C   0  0  0  0  0  0  0  0  0  0  0  0
  -88.9097   32.3319   -2.5876 C   0  0  0  0  0  0  0  0  0  0  0  0
  -87.9031   32.0910   -1.6346 C   0  0  0  0  0  0  0  0  0  0  0  0
 12 13  1  0  0  0
 13 14  1  0  0  0
 13 11  1  0  0  0
 11  5  1  0  0  0
  5  6  2  0  0  0
  6  7  1  0  0  0
  7  8  1  0  0  0
  8  1  1  0  0  0
  1  2  1  0  0  0
  2  3  2  0  0  0
  2 15  1  0  0  0
 15 16  2  0  0  0
 16 17  1  0  0  0
 17 18  1  0  0  0
 18 19  2  0  0  0
 18 20  1  0  0  0
 20 21  2  0  0  0
 21 22  1  0  0  0
 22 23  2  0  0  0
 23 24  1  0  0  0
 24 25  1  0  0  0
 25 26  1  0  0  0
 26 27  1  0  0  0
 27 28  2  0  0  0
  8  9  2  0  0  0
  9  5  1  0  0  0
 19 15  1  0  0  0
 28 20  1  0  0  0
 27 23  1  0  0  0
  7 10  1  0  0  0
  1  4  1  0  0  0
M  END
> <minimizedAffinity>
-7.07607

> <CNNscore>
0.5930222869

> <CNNaffinity>
6.9204573631

> <CNN_VS>
4.1039853096

> <CNNaffinity_variance>
0.0813231170

$$$$
[H]c1sc(-c2c([H])c([H])c3c(c2[H])C([H])([H])C([H])([H])O3)nc1C(=O)N([H])c1nc(SC([H])(C([H])([H])[H])C([H])([H])[H])nn1[H]


 28 31  0  0  0  0  0  0  0  0999 V2000
  -84.6072   28.1939    2.0506 N   0  0  0  0  0  0  0  0  0  0  0  0
  -83.6959   29.1538    1.7640 C   0  0  0  0  0  0  0  0  0  0  0  0
  -82.4936   28.9519    2.2878 O   0  0  0  0  0  0  0  0  0  0  0  0
  -84.1828   27.3939    2.7110 H   0  0  0  0  0  0  0  0  0  0  0  0
  -87.8853   28.2754    0.6827 C   0  0  0  0  0  0  0  0  0  0  0  0
  -87.9256   27.0795    1.2748 N   0  0  0  0  0  0  0  0  0  0  0  0
  -86.7416   26.8540    1.8479 N   0  0  0  0  0  0  0  0  0  0  0  0
  -85.9200   27.8676    1.6497 C   0  0  0  0  0  0  0  0  0  0  0  0
  -86.6696   28.7617    0.9060 N   0  0  0  0  0  0  0  0  0  0  0  0
  -86.5708   25.9892    2.3767 H   0  0  0  0  0  0  0  0  0  0  0  0
  -89.2583   28.9720   -0.2016 S   0  0  0  0  0  0  0  0  0  0  0  0
  -87.7668   29.0067   -2.5292 C   0  0  0  0  0  0  0  0  0  0  0  0
  -89.1343   28.7160   -1.9769 C   0  0  0  0  0  0  0  0  0  0  0  0
  -90.1242   29.6361   -2.6673 C   0  0  0  0  0  0  0  0  0  0  0  0
  -83.7859   30.4007    0.9691 C   0  0  0  0  0  0  0  0  0  0  0  0
  -82.7290   31.2421    0.7498 C   0  0  0  0  0  0  0  0  0  0  0  0
  -83.4320   32.4942   -0.1639 S   0  0  0  0  0  0  0  0  0  0  0  0
  -85.0339   31.8849   -0.2217 C   0  0  0  0  0  0  0  0  0  0  0  0
  -84.9393   30.7699    0.4546 N   0  0  0  0  0  0  0  0  0  0  0  0
  -86.2187   32.4874   -0.8773 C   0  0  0  0  0  0  0  0  0  0  0  0
  -87.4800   32.1055   -0.4941 C   0  0  0  0  0  0  0  0  0  0  0  0
  -88.5946   32.6806   -1.1208 C   0  0  0  0  0  0  0  0  0  0  0  0
  -88.4627   33.6234   -2.1160 C   0  0  0  0  0  0  0  0  0  0  0  0
  -89.3923   34.3437   -2.8926 O   0  0  0  0  0  0  0  0  0  0  0  0
  -88.7349   35.5353   -3.3470 C   0  0  0  0  0  0  0  0  0  0  0  0
  -87.3386   35.0054   -3.5677 C   0  0  0  0  0  0  0  0  0  0  0  0
  -87.1953   33.9977   -2.4912 C   0  0  0  0  0  0  0  0  0  0  0  0
  -86.0741   33.4231   -1.8649 C   0  0  0  0  0  0  0  0  0  0  0  0
 12 13  1  0  0  0
 13 14  1  0  0  0
 13 11  1  0  0  0
 11  5  1  0  0  0
  5  6  2  0  0  0
  6  7  1  0  0  0
  7  8  1  0  0  0
  8  1  1  0  0  0
  1  2  1  0  0  0
  2  3  2  0  0  0
  2 15  1  0  0  0
 15 16  2  0  0  0
 16 17  1  0  0  0
 17 18  1  0  0  0
 18 19  2  0  0  0
 18 20  1  0  0  0
 20 21  2  0  0  0
 21 22  1  0  0  0
 22 23  2  0  0  0
 23 24  1  0  0  0
 24 25  1  0  0  0
 25 26  1  0  0  0
 26 27  1  0  0  0
 27 28  2  0  0  0
  8  9  2  0  0  0
  9  5  1  0  0  0
 19 15  1  0  0  0
 28 20  1  0  0  0
 27 23  1  0  0  0
  7 10  1  0  0  0
  1  4  1  0  0  0
M  END
> <minimizedAffinity>
-8.33821

> <CNNscore>
0.5530018210

> <CNNaffinity>
6.9516892433

> <CNN_VS>
3.8442966938

> <CNNaffinity_variance>
0.1482394040

$$$$
[H]c1sc(-c2c([H])c([H])c3c(c2[H])C([H])([H])C([H])([H])O3)nc1C(=O)N([H])c1nc(SC([H])(C([H])([H])[H])C([H])([H])[H])nn1[H]


 28 31  0  0  0  0  0  0  0  0999 V2000
  -84.8870   28.8458    1.8035 N   0  0  0  0  0  0  0  0  0  0  0  0
  -83.9845   29.7809    1.4225 C   0  0  0  0  0  0  0  0  0  0  0  0
  -82.7485   29.5685    1.8558 O   0  0  0  0  0  0  0  0  0  0  0  0
  -84.4259   28.0538    2.4488 H   0  0  0  0  0  0  0  0  0  0  0  0
  -88.1285   27.3915    1.7623 C   0  0  0  0  0  0  0  0  0  0  0  0
  -88.2648   28.2570    0.7550 N   0  0  0  0  0  0  0  0  0  0  0  0
  -87.1206   28.9311    0.6221 N   0  0  0  0  0  0  0  0  0  0  0  0
  -86.2327   28.5353    1.5147 C   0  0  0  0  0  0  0  0  0  0  0  0
  -86.8958   27.5538    2.2297 N   0  0  0  0  0  0  0  0  0  0  0  0
  -87.0107   29.6381   -0.1160 H   0  0  0  0  0  0  0  0  0  0  0  0
  -89.4194   26.2883    2.2809 S   0  0  0  0  0  0  0  0  0  0  0  0
  -91.1230   24.3415    1.3056 C   0  0  0  0  0  0  0  0  0  0  0  0
  -90.2315   25.4802    0.8954 C   0  0  0  0  0  0  0  0  0  0  0  0
  -89.1657   24.9299   -0.0343 C   0  0  0  0  0  0  0  0  0  0  0  0
  -84.1150   31.0100    0.6058 C   0  0  0  0  0  0  0  0  0  0  0  0
  -83.1269   31.9481    0.4782 C   0  0  0  0  0  0  0  0  0  0  0  0
  -83.8536   33.1230   -0.5160 S   0  0  0  0  0  0  0  0  0  0  0  0
  -85.3768   32.3622   -0.7200 C   0  0  0  0  0  0  0  0  0  0  0  0
  -85.2427   31.2645   -0.0226 N   0  0  0  0  0  0  0  0  0  0  0  0
  -86.5442   32.8453   -1.4949 C   0  0  0  0  0  0  0  0  0  0  0  0
  -86.4964   34.0713   -2.1101 C   0  0  0  0  0  0  0  0  0  0  0  0
  -87.6060   34.5199   -2.8402 C   0  0  0  0  0  0  0  0  0  0  0  0
  -88.7508   33.7637   -2.9604 C   0  0  0  0  0  0  0  0  0  0  0  0
  -89.9796   33.9706   -3.6188 O   0  0  0  0  0  0  0  0  0  0  0  0
  -90.5524   32.6787   -3.8671 C   0  0  0  0  0  0  0  0  0  0  0  0
  -90.1158   31.9463   -2.6213 C   0  0  0  0  0  0  0  0  0  0  0  0
  -88.7871   32.5385   -2.3402 C   0  0  0  0  0  0  0  0  0  0  0  0
  -87.6757   32.0844   -1.6066 C   0  0  0  0  0  0  0  0  0  0  0  0
 12 13  1  0  0  0
 13 14  1  0  0  0
 13 11  1  0  0  0
 11  5  1  0  0  0
  5  6  2  0  0  0
  6  7  1  0  0  0
  7  8  1  0  0  0
  8  1  1  0  0  0
  1  2  1  0  0  0
  2  3  2  0  0  0
  2 15  1  0  0  0
 15 16  2  0  0  0
 16 17  1  0  0  0
 17 18  1  0  0  0
 18 19  2  0  0  0
 18 20  1  0  0  0
 20 21  2  0  0  0
 21 22  1  0  0  0
 22 23  2  0  0  0
 23 24  1  0  0  0
 24 25  1  0  0  0
 25 26  1  0  0  0
 26 27  1  0  0  0
 27 28  2  0  0  0
  8  9  2  0  0  0
  9  5  1  0  0  0
 19 15  1  0  0  0
 28 20  1  0  0  0
 27 23  1  0  0  0
  7 10  1  0  0  0
  1  4  1  0  0  0
M  END
> <minimizedAffinity>
-7.14789

> <CNNscore>
0.4434013367

> <CNNaffinity>
6.7789449692

> <CNN_VS>
3.0057933331

> <CNNaffinity_variance>
0.3044010699

$$$$
[H]c1sc(-c2c([H])c([H])c3c(c2[H])C([H])([H])C([H])([H])O3)nc1C(=O)N([H])c1nc(SC([H])(C([H])([H])[H])C([H])([H])[H])nn1[H]


 28 31  0  0  0  0  0  0  0  0999 V2000
  -86.9103   33.3378   -1.2670 N   0  0  0  0  0  0  0  0  0  0  0  0
  -87.9965   32.5935   -1.5837 C   0  0  0  0  0  0  0  0  0  0  0  0
  -89.0559   33.2935   -1.9686 O   0  0  0  0  0  0  0  0  0  0  0  0
  -87.1088   34.4364   -1.3667 H   0  0  0  0  0  0  0  0  0  0  0  0
  -83.8921   32.0934    0.1352 C   0  0  0  0  0  0  0  0  0  0  0  0
  -83.3915   33.0606   -0.6370 N   0  0  0  0  0  0  0  0  0  0  0  0
  -84.4016   33.6516   -1.2785 N   0  0  0  0  0  0  0  0  0  0  0  0
  -85.5555   33.1006   -0.9522 C   0  0  0  0  0  0  0  0  0  0  0  0
  -85.2072   32.1110   -0.0501 N   0  0  0  0  0  0  0  0  0  0  0  0
  -84.2295   34.4414   -1.9137 H   0  0  0  0  0  0  0  0  0  0  0  0
  -82.8895   31.0526    1.1666 S   0  0  0  0  0  0  0  0  0  0  0  0
  -84.8144   29.7830    2.6921 C   0  0  0  0  0  0  0  0  0  0  0  0
  -83.7429   29.5502    1.6638 C   0  0  0  0  0  0  0  0  0  0  0  0
  -82.7262   28.5910    2.2550 C   0  0  0  0  0  0  0  0  0  0  0  0
  -88.2309   31.1308   -1.5817 C   0  0  0  0  0  0  0  0  0  0  0  0
  -88.4151   30.3875   -2.7159 C   0  0  0  0  0  0  0  0  0  0  0  0
  -88.6794   28.8235   -2.0986 S   0  0  0  0  0  0  0  0  0  0  0  0
  -88.5418   29.1931   -0.4297 C   0  0  0  0  0  0  0  0  0  0  0  0
  -88.3041   30.4787   -0.4412 N   0  0  0  0  0  0  0  0  0  0  0  0
  -88.6672   28.2720    0.7246 C   0  0  0  0  0  0  0  0  0  0  0  0
  -87.7182   27.3024    0.9317 C   0  0  0  0  0  0  0  0  0  0  0  0
  -87.8461   26.4353    2.0260 C   0  0  0  0  0  0  0  0  0  0  0  0
  -88.9017   26.5264    2.9059 C   0  0  0  0  0  0  0  0  0  0  0  0
  -89.2627   25.8006    4.0588 O   0  0  0  0  0  0  0  0  0  0  0  0
  -90.1035   26.6512    4.8514 C   0  0  0  0  0  0  0  0  0  0  0  0
  -90.8581   27.3748    3.7624 C   0  0  0  0  0  0  0  0  0  0  0  0
  -89.8454   27.5006    2.6883 C   0  0  0  0  0  0  0  0  0  0  0  0
  -89.7209   28.3729    1.5915 C   0  0  0  0  0  0  0  0  0  0  0  0
 12 13  1  0  0  0
 13 14  1  0  0  0
 13 11  1  0  0  0
 11  5  1  0  0  0
  5  6  2  0  0  0
  6  7  1  0  0  0
  7  8  1  0  0  0
  8  1  1  0  0  0
  1  2  1  0  0  0
  2  3  2  0  0  0
  2 15  1  0  0  0
 15 16  2  0  0  0
 16 17  1  0  0  0
 17 18  1  0  0  0
 18 19  2  0  0  0
 18 20  1  0  0  0
 20 21  2  0  0  0
 21 22  1  0  0  0
 22 23  2  0  0  0
 23 24  1  0  0  0
 24 25  1  0  0  0
 25 26  1  0  0  0
 26 27  1  0  0  0
 27 28  2  0  0  0
  8  9  2  0  0  0
  9  5  1  0  0  0
 19 15  1  0  0  0
 28 20  1  0  0  0
 27 23  1  0  0  0
  7 10  1  0  0  0
  1  4  1  0  0  0
M  END
> <minimizedAffinity>
-8.54788

> <CNNscore>
0.4260675907

> <CNNaffinity>
6.5914726257

> <CNN_VS>
2.8084127903

> <CNNaffinity_variance>
0.2259123027

$$$$
[H]c1sc(-c2c([H])c([H])c3c(c2[H])C([H])([H])C([H])([H])O3)nc1C(=O)N([H])c1nc(SC([H])(C([H])([H])[H])C([H])([H])[H])nn1[H]


 28 31  0  0  0  0  0  0  0  0999 V2000
  -85.3407   27.8909    2.0102 N   0  0  0  0  0  0  0  0  0  0  0  0
  -84.3569   28.8063    1.8419 C   0  0  0  0  0  0  0  0  0  0  0  0
  -83.2078   28.5008    2.4307 O   0  0  0  0  0  0  0  0  0  0  0  0
  -85.0108   27.0305    2.6481 H   0  0  0  0  0  0  0  0  0  0  0  0
  -88.3167   26.4093    0.7562 C   0  0  0  0  0  0  0  0  0  0  0  0
  -88.6519   27.6971    0.6485 N   0  0  0  0  0  0  0  0  0  0  0  0
  -87.6360   28.4352    1.1006 N   0  0  0  0  0  0  0  0  0  0  0  0
  -86.6395   27.6703    1.5050 C   0  0  0  0  0  0  0  0  0  0  0  0
  -87.0945   26.3840    1.2758 N   0  0  0  0  0  0  0  0  0  0  0  0
  -87.6860   29.4619    1.0859 H   0  0  0  0  0  0  0  0  0  0  0  0
  -89.3853   25.0796    0.2643 S   0  0  0  0  0  0  0  0  0  0  0  0
  -90.5297   25.8887   -2.1189 C   0  0  0  0  0  0  0  0  0  0  0  0
  -89.5297   24.9381   -1.5223 C   0  0  0  0  0  0  0  0  0  0  0  0
  -89.9665   23.5247   -1.8606 C   0  0  0  0  0  0  0  0  0  0  0  0
  -84.3182   30.0986    1.1186 C   0  0  0  0  0  0  0  0  0  0  0  0
  -83.2113   30.9004    1.0505 C   0  0  0  0  0  0  0  0  0  0  0  0
  -83.7705   32.2334    0.1520 S   0  0  0  0  0  0  0  0  0  0  0  0
  -85.3831   31.7041   -0.0925 C   0  0  0  0  0  0  0  0  0  0  0  0
  -85.4004   30.5498    0.5214 N   0  0  0  0  0  0  0  0  0  0  0  0
  -86.4733   32.3974   -0.8188 C   0  0  0  0  0  0  0  0  0  0  0  0
  -87.7815   32.0729   -0.5598 C   0  0  0  0  0  0  0  0  0  0  0  0
  -88.8057   32.7337   -1.2526 C   0  0  0  0  0  0  0  0  0  0  0  0
  -88.5385   33.7051   -2.1917 C   0  0  0  0  0  0  0  0  0  0  0  0
  -89.3582   34.5061   -3.0120 O   0  0  0  0  0  0  0  0  0  0  0  0
  -88.6017   35.6752   -3.3578 C   0  0  0  0  0  0  0  0  0  0  0  0
  -87.2216   35.0761   -3.4829 C   0  0  0  0  0  0  0  0  0  0  0  0
  -87.2254   34.0212   -2.4426 C   0  0  0  0  0  0  0  0  0  0  0  0
  -86.1945   33.3606   -1.7495 C   0  0  0  0  0  0  0  0  0  0  0  0
 12 13  1  0  0  0
 13 14  1  0  0  0
 13 11  1  0  0  0
 11  5  1  0  0  0
  5  6  2  0  0  0
  6  7  1  0  0  0
  7  8  1  0  0  0
  8  1  1  0  0  0
  1  2  1  0  0  0
  2  3  2  0  0  0
  2 15  1  0  0  0
 15 16  2  0  0  0
 16 17  1  0  0  0
 17 18  1  0  0  0
 18 19  2  0  0  0
 18 20  1  0  0  0
 20 21  2  0  0  0
 21 22  1  0  0  0
 22 23  2  0  0  0
 23 24  1  0  0  0
 24 25  1  0  0  0
 25 26  1  0  0  0
 26 27  1  0  0  0
 27 28  2  0  0  0
  8  9  2  0  0  0
  9  5  1  0  0  0
 19 15  1  0  0  0
 28 20  1  0  0  0
 27 23  1  0  0  0
  7 10  1  0  0  0
  1  4  1  0  0  0
M  END
> <minimizedAffinity>
-8.06786

> <CNNscore>
0.2713991702

> <CNNaffinity>
6.6249022484

> <CNN_VS>
1.7979929447

> <CNNaffinity_variance>
0.2145999223

$$$$
[H]c1sc(-c2c([H])c([H])c3c(c2[H])C([H])([H])C([H])([H])O3)nc1C(=O)N([H])c1nc(SC([H])(C([H])([H])[H])C([H])([H])[H])nn1[H]


 28 31  0  0  0  0  0  0  0  0999 V2000
  -85.8495   26.8288    1.9224 N   0  0  0  0  0  0  0  0  0  0  0  0
  -84.7496   27.5946    2.1172 C   0  0  0  0  0  0  0  0  0  0  0  0
  -83.7875   27.0147    2.8233 O   0  0  0  0  0  0  0  0  0  0  0  0
  -85.7602   25.8288    2.4206 H   0  0  0  0  0  0  0  0  0  0  0  0
  -88.6190   26.0963   -0.1794 C   0  0  0  0  0  0  0  0  0  0  0  0
  -88.8370   27.3978    0.0233 N   0  0  0  0  0  0  0  0  0  0  0  0
  -87.8803   27.8639    0.8286 N   0  0  0  0  0  0  0  0  0  0  0  0
  -87.0370   26.9060    1.1643 C   0  0  0  0  0  0  0  0  0  0  0  0
  -87.5263   25.7891    0.5105 N   0  0  0  0  0  0  0  0  0  0  0  0
  -87.8555   28.8567    1.0940 H   0  0  0  0  0  0  0  0  0  0  0  0
  -89.6604   25.0804   -1.1971 S   0  0  0  0  0  0  0  0  0  0  0  0
  -90.7207   24.1799    1.1923 C   0  0  0  0  0  0  0  0  0  0  0  0
  -90.5227   23.8165   -0.2529 C   0  0  0  0  0  0  0  0  0  0  0  0
  -89.7107   22.5356   -0.3073 C   0  0  0  0  0  0  0  0  0  0  0  0
  -84.4118   28.9718    1.6886 C   0  0  0  0  0  0  0  0  0  0  0  0
  -83.2602   29.6195    2.0451 C   0  0  0  0  0  0  0  0  0  0  0  0
  -83.4480   31.1449    1.3138 S   0  0  0  0  0  0  0  0  0  0  0  0
  -84.9807   30.8823    0.5911 C   0  0  0  0  0  0  0  0  0  0  0  0
  -85.2574   29.6552    0.9475 N   0  0  0  0  0  0  0  0  0  0  0  0
  -85.7794   31.8247   -0.2279 C   0  0  0  0  0  0  0  0  0  0  0  0
  -85.1629   32.8807   -0.8511 C   0  0  0  0  0  0  0  0  0  0  0  0
  -85.9272   33.7672   -1.6230 C   0  0  0  0  0  0  0  0  0  0  0  0
  -87.2868   33.6107   -1.7765 C   0  0  0  0  0  0  0  0  0  0  0  0
  -88.2690   34.3376   -2.4789 O   0  0  0  0  0  0  0  0  0  0  0  0
  -89.3594   33.4412   -2.7361 C   0  0  0  0  0  0  0  0  0  0  0  0
  -89.3373   32.6194   -1.4699 C   0  0  0  0  0  0  0  0  0  0  0  0
  -87.8929   32.5501   -1.1479 C   0  0  0  0  0  0  0  0  0  0  0  0
  -87.1297   31.6581   -0.3725 C   0  0  0  0  0  0  0  0  0  0  0  0
 12 13  1  0  0  0
 13 14  1  0  0  0
 13 11  1  0  0  0
 11  5  1  0  0  0
  5  6  2  0  0  0
  6  7  1  0  0  0
  7  8  1  0  0  0
  8  1  1  0  0  0
  1  2  1  0  0  0
  2  3  2  0  0  0
  2 15  1  0  0  0
 15 16  2  0  0  0
 16 17  1  0  0  0
 17 18  1  0  0  0
 18 19  2  0  0  0
 18 20  1  0  0  0
 20 21  2  0  0  0
 21 22  1  0  0  0
 22 23  2  0  0  0
 23 24  1  0  0  0
 24 25  1  0  0  0
 25 26  1  0  0  0
 26 27  1  0  0  0
 27 28  2  0  0  0
  8  9  2  0  0  0
  9  5  1  0  0  0
 19 15  1  0  0  0
 28 20  1  0  0  0
 27 23  1  0  0  0
  7 10  1  0  0  0
  1  4  1  0  0  0
M  END
> <minimizedAffinity>
-8.22392

> <CNNscore>
0.2432968765

> <CNNaffinity>
6.4987998009

> <CNN_VS>
1.5811376572

> <CNNaffinity_variance>
0.2078072578

$$$$
[H]c1sc(-c2c([H])c([H])c3c(c2[H])C([H])([H])C([H])([H])O3)nc1C(=O)N([H])c1nc(SC([H])(C([H])([H])[H])C([H])([H])[H])nn1[H]


 28 31  0  0  0  0  0  0  0  0999 V2000
  -85.8100   26.9130    2.1932 N   0  0  0  0  0  0  0  0  0  0  0  0
  -84.6535   27.6178    2.1991 C   0  0  0  0  0  0  0  0  0  0  0  0
  -83.6259   26.9934    2.7599 O   0  0  0  0  0  0  0  0  0  0  0  0
  -85.6982   25.9160    2.6927 H   0  0  0  0  0  0  0  0  0  0  0  0
  -88.5830   26.9366   -0.0281 C   0  0  0  0  0  0  0  0  0  0  0  0
  -89.1642   27.4635    1.0522 N   0  0  0  0  0  0  0  0  0  0  0  0
  -88.2583   27.5222    2.0305 N   0  0  0  0  0  0  0  0  0  0  0  0
  -87.0951   27.0476    1.6265 C   0  0  0  0  0  0  0  0  0  0  0  0
  -87.3248   26.6811    0.3123 N   0  0  0  0  0  0  0  0  0  0  0  0
  -88.5014   27.9177    2.9477 H   0  0  0  0  0  0  0  0  0  0  0  0
  -89.4341   26.6787   -1.5648 S   0  0  0  0  0  0  0  0  0  0  0  0
  -87.8590   28.7009   -2.6008 C   0  0  0  0  0  0  0  0  0  0  0  0
  -89.2050   28.0413   -2.7151 C   0  0  0  0  0  0  0  0  0  0  0  0
  -90.2662   29.0901   -2.4381 C   0  0  0  0  0  0  0  0  0  0  0  0
  -84.3129   28.9682    1.6940 C   0  0  0  0  0  0  0  0  0  0  0  0
  -83.1244   29.5981    1.9461 C   0  0  0  0  0  0  0  0  0  0  0  0
  -83.3251   31.0990    1.1688 S   0  0  0  0  0  0  0  0  0  0  0  0
  -84.9095   30.8499    0.5621 C   0  0  0  0  0  0  0  0  0  0  0  0
  -85.1906   29.6451    0.9850 N   0  0  0  0  0  0  0  0  0  0  0  0
  -85.7395   31.7814   -0.2381 C   0  0  0  0  0  0  0  0  0  0  0  0
  -85.1498   32.8371   -0.8871 C   0  0  0  0  0  0  0  0  0  0  0  0
  -85.9435   33.7132   -1.6409 C   0  0  0  0  0  0  0  0  0  0  0  0
  -87.3061   33.5466   -1.7513 C   0  0  0  0  0  0  0  0  0  0  0  0
  -88.3144   34.2621   -2.4279 O   0  0  0  0  0  0  0  0  0  0  0  0
  -89.4061   33.3568   -2.6454 C   0  0  0  0  0  0  0  0  0  0  0  0
  -89.3394   32.5439   -1.3750 C   0  0  0  0  0  0  0  0  0  0  0  0
  -87.8852   32.4864   -1.0972 C   0  0  0  0  0  0  0  0  0  0  0  0
  -87.0924   31.6048   -0.3398 C   0  0  0  0  0  0  0  0  0  0  0  0
 12 13  1  0  0  0
 13 14  1  0  0  0
 13 11  1  0  0  0
 11  5  1  0  0  0
  5  6  2  0  0  0
  6  7  1  0  0  0
  7  8  1  0  0  0
  8  1  1  0  0  0
  1  2  1  0  0  0
  2  3  2  0  0  0
  2 15  1  0  0  0
 15 16  2  0  0  0
 16 17  1  0  0  0
 17 18  1  0  0  0
 18 19  2  0  0  0
 18 20  1  0  0  0
 20 21  2  0  0  0
 21 22  1  0  0  0
 22 23  2  0  0  0
 23 24  1  0  0  0
 24 25  1  0  0  0
 25 26  1  0  0  0
 26 27  1  0  0  0
 27 28  2  0  0  0
  8  9  2  0  0  0
  9  5  1  0  0  0
 19 15  1  0  0  0
 28 20  1  0  0  0
 27 23  1  0  0  0
  7 10  1  0  0  0
  1  4  1  0  0  0
M  END
> <minimizedAffinity>
-8.26292

> <CNNscore>
0.2422574311

> <CNNaffinity>
6.5356955528

> <CNN_VS>
1.5833208561

> <CNNaffinity_variance>
0.1532187164

$$$$
[H]Oc1c([H])c([H])c(-c2c([H])nc3c(c2[H])c(-c2c([H])c([H])c(O[H])c([H])c2[H])c([H])n3[H])c([H])c1[H]


 26 29  0  0  0  0  0  0  0  0999 V2000
  -84.2330   30.1314    0.9382 C   0  0  0  0  0  0  0  0  0  0  0  0
  -82.9292   30.2280    1.3523 C   0  0  0  0  0  0  0  0  0  0  0  0
  -82.4137   31.4076    0.9378 N   0  0  0  0  0  0  0  0  0  0  0  0
  -83.3589   32.0906    0.2565 C   0  0  0  0  0  0  0  0  0  0  0  0
  -83.3588   33.2886   -0.3475 N   0  0  0  0  0  0  0  0  0  0  0  0
  -84.4808   33.7146   -0.9583 C   0  0  0  0  0  0  0  0  0  0  0  0
  -85.6366   32.9712   -0.9914 C   0  0  0  0  0  0  0  0  0  0  0  0
  -85.6403   31.7445   -0.3744 C   0  0  0  0  0  0  0  0  0  0  0  0
  -84.5071   31.2840    0.2574 C   0  0  0  0  0  0  0  0  0  0  0  0
  -81.4566   31.7559    1.1013 H   0  0  0  0  0  0  0  0  0  0  0  0
  -87.7814   25.8777    1.8270 O   0  0  0  0  0  0  0  0  0  0  0  0
  -86.8886   26.8961    1.6301 C   0  0  0  0  0  0  0  0  0  0  0  0
  -87.2678   27.9801    0.8606 C   0  0  0  0  0  0  0  0  0  0  0  0
  -86.4220   29.0255    0.6288 C   0  0  0  0  0  0  0  0  0  0  0  0
  -85.1516   29.0258    1.1638 C   0  0  0  0  0  0  0  0  0  0  0  0
  -84.7534   27.9448    1.9401 C   0  0  0  0  0  0  0  0  0  0  0  0
  -85.6138   26.9209    2.1535 C   0  0  0  0  0  0  0  0  0  0  0  0
  -87.8800   25.0596    1.2353 H   0  0  0  0  0  0  0  0  0  0  0  0
  -86.8553   33.4214   -1.6456 C   0  0  0  0  0  0  0  0  0  0  0  0
  -86.9003   34.4448   -2.5688 C   0  0  0  0  0  0  0  0  0  0  0  0
  -88.0561   34.8696   -3.1901 C   0  0  0  0  0  0  0  0  0  0  0  0
  -89.2433   34.2426   -2.8791 C   0  0  0  0  0  0  0  0  0  0  0  0
  -90.3932   34.6892   -3.5189 O   0  0  0  0  0  0  0  0  0  0  0  0
  -89.2476   33.2184   -1.9657 C   0  0  0  0  0  0  0  0  0  0  0  0
  -88.0794   32.8087   -1.3550 C   0  0  0  0  0  0  0  0  0  0  0  0
  -91.3077   34.2925   -3.3569 H   0  0  0  0  0  0  0  0  0  0  0  0
 11 12  1  0  0  0
 12 13  2  0  0  0
 13 14  1  0  0  0
 14 15  2  0  0  0
 15 16  1  0  0  0
 16 17  2  0  0  0
 15  1  1  0  0  0
  1  2  2  0  0  0
  2  3  1  0  0  0
  3  4  1  0  0  0
  4  5  2  0  0  0
  5  6  1  0  0  0
  6  7  2  0  0  0
  7  8  1  0  0  0
  8  9  2  0  0  0
  7 19  1  0  0  0
 19 20  2  0  0  0
 20 21  1  0  0  0
 21 22  2  0  0  0
 22 23  1  0  0  0
 22 24  1  0  0  0
 24 25  2  0  0  0
 17 12  1  0  0  0
  9  1  1  0  0  0
 25 19  1  0  0  0
  9  4  1  0  0  0
 11 18  1  0  0  0
  3 10  1  0  0  0
 23 26  1  0  0  0
M  END
> <minimizedAffinity>
-9.82033

> <CNNscore>
0.9346125126

> <CNNaffinity>
6.6319556236

> <CNN_VS>
6.1983089447

> <CNNaffinity_variance>
0.0477371141

$$$$
[H]Oc1c([H])c([H])c(-c2c([H])nc3c(c2[H])c(-c2c([H])c([H])c(O[H])c([H])c2[H])c([H])n3[H])c([H])c1[H]


 26 29  0  0  0  0  0  0  0  0999 V2000
  -84.4063   31.5190    0.3969 C   0  0  0  0  0  0  0  0  0  0  0  0
  -83.5490   32.5597    0.1467 C   0  0  0  0  0  0  0  0  0  0  0  0
  -84.1829   33.4928   -0.5994 N   0  0  0  0  0  0  0  0  0  0  0  0
  -85.4460   33.0825   -0.8446 C   0  0  0  0  0  0  0  0  0  0  0  0
  -86.4664   33.6312   -1.5214 N   0  0  0  0  0  0  0  0  0  0  0  0
  -87.6372   32.9696   -1.5916 C   0  0  0  0  0  0  0  0  0  0  0  0
  -87.8363   31.7466   -0.9962 C   0  0  0  0  0  0  0  0  0  0  0  0
  -86.7942   31.1820   -0.3029 C   0  0  0  0  0  0  0  0  0  0  0  0
  -85.5860   31.8363   -0.2151 C   0  0  0  0  0  0  0  0  0  0  0  0
  -83.7901   34.3836   -0.9403 H   0  0  0  0  0  0  0  0  0  0  0  0
  -83.3318   26.8622    3.3354 O   0  0  0  0  0  0  0  0  0  0  0  0
  -83.5558   28.0037    2.6144 C   0  0  0  0  0  0  0  0  0  0  0  0
  -84.8575   28.3720    2.3302 C   0  0  0  0  0  0  0  0  0  0  0  0
  -85.1438   29.4989    1.6158 C   0  0  0  0  0  0  0  0  0  0  0  0
  -84.1279   30.3081    1.1542 C   0  0  0  0  0  0  0  0  0  0  0  0
  -82.8135   29.9537    1.4307 C   0  0  0  0  0  0  0  0  0  0  0  0
  -82.5586   28.8296    2.1419 C   0  0  0  0  0  0  0  0  0  0  0  0
  -83.2061   25.9347    2.9439 H   0  0  0  0  0  0  0  0  0  0  0  0
  -89.0966   31.0235   -1.0630 C   0  0  0  0  0  0  0  0  0  0  0  0
  -90.0511   31.2288   -2.0369 C   0  0  0  0  0  0  0  0  0  0  0  0
  -91.2450   30.5411   -2.1005 C   0  0  0  0  0  0  0  0  0  0  0  0
  -91.5125   29.5896   -1.1401 C   0  0  0  0  0  0  0  0  0  0  0  0
  -92.7220   28.9109   -1.2267 O   0  0  0  0  0  0  0  0  0  0  0  0
  -90.5919   29.3506   -0.1508 C   0  0  0  0  0  0  0  0  0  0  0  0
  -89.4029   30.0504   -0.1052 C   0  0  0  0  0  0  0  0  0  0  0  0
  -93.0060   28.1976   -0.5706 H   0  0  0  0  0  0  0  0  0  0  0  0
 11 12  1  0  0  0
 12 13  2  0  0  0
 13 14  1  0  0  0
 14 15  2  0  0  0
 15 16  1  0  0  0
 16 17  2  0  0  0
 15  1  1  0  0  0
  1  2  2  0  0  0
  2  3  1  0  0  0
  3  4  1  0  0  0
  4  5  2  0  0  0
  5  6  1  0  0  0
  6  7  2  0  0  0
  7  8  1  0  0  0
  8  9  2  0  0  0
  7 19  1  0  0  0
 19 20  2  0  0  0
 20 21  1  0  0  0
 21 22  2  0  0  0
 22 23  1  0  0  0
 22 24  1  0  0  0
 24 25  2  0  0  0
 17 12  1  0  0  0
  9  1  1  0  0  0
 25 19  1  0  0  0
  9  4  1  0  0  0
 11 18  1  0  0  0
  3 10  1  0  0  0
 23 26  1  0  0  0
M  END
> <minimizedAffinity>
-10.53952

> <CNNscore>
0.8606049418

> <CNNaffinity>
6.7210960388

> <CNN_VS>
5.7842082977

> <CNNaffinity_variance>
0.2333032340

$$$$
[H]Oc1c([H])c([H])c(-c2c([H])nc3c(c2[H])c(-c2c([H])c([H])c(O[H])c([H])c2[H])c([H])n3[H])c([H])c1[H]


 26 29  0  0  0  0  0  0  0  0999 V2000
  -88.2134   32.2845   -1.4484 C   0  0  0  0  0  0  0  0  0  0  0  0
  -88.1903   33.5068   -2.0699 C   0  0  0  0  0  0  0  0  0  0  0  0
  -86.9734   34.0722   -1.9011 N   0  0  0  0  0  0  0  0  0  0  0  0
  -86.1935   33.2403   -1.1774 C   0  0  0  0  0  0  0  0  0  0  0  0
  -84.9263   33.3262   -0.7451 N   0  0  0  0  0  0  0  0  0  0  0  0
  -84.4080   32.3105   -0.0288 C   0  0  0  0  0  0  0  0  0  0  0  0
  -85.1247   31.1795    0.2825 C   0  0  0  0  0  0  0  0  0  0  0  0
  -86.4220   31.0882   -0.1581 C   0  0  0  0  0  0  0  0  0  0  0  0
  -86.9774   32.1120   -0.8922 C   0  0  0  0  0  0  0  0  0  0  0  0
  -86.6628   34.9895   -2.2566 H   0  0  0  0  0  0  0  0  0  0  0  0
  -92.5175   28.6966   -1.1716 O   0  0  0  0  0  0  0  0  0  0  0  0
  -91.4560   29.5597   -1.2042 C   0  0  0  0  0  0  0  0  0  0  0  0
  -91.2501   30.3262   -2.3360 C   0  0  0  0  0  0  0  0  0  0  0  0
  -90.2095   31.2042   -2.4276 C   0  0  0  0  0  0  0  0  0  0  0  0
  -89.3265   31.3500   -1.3793 C   0  0  0  0  0  0  0  0  0  0  0  0
  -89.5180   30.5880   -0.2336 C   0  0  0  0  0  0  0  0  0  0  0  0
  -90.5594   29.7244   -0.1703 C   0  0  0  0  0  0  0  0  0  0  0  0
  -92.4979   27.7288   -1.4753 H   0  0  0  0  0  0  0  0  0  0  0  0
  -84.5754   30.0750    1.0533 C   0  0  0  0  0  0  0  0  0  0  0  0
  -85.3174   28.9986    1.4922 C   0  0  0  0  0  0  0  0  0  0  0  0
  -84.7951   27.9508    2.2213 C   0  0  0  0  0  0  0  0  0  0  0  0
  -83.4536   27.9678    2.5365 C   0  0  0  0  0  0  0  0  0  0  0  0
  -82.9522   26.9004    3.2716 O   0  0  0  0  0  0  0  0  0  0  0  0
  -82.6750   29.0188    2.1209 C   0  0  0  0  0  0  0  0  0  0  0  0
  -83.2178   30.0579    1.3921 C   0  0  0  0  0  0  0  0  0  0  0  0
  -81.9842   26.8243    3.5494 H   0  0  0  0  0  0  0  0  0  0  0  0
 11 12  1  0  0  0
 12 13  2  0  0  0
 13 14  1  0  0  0
 14 15  2  0  0  0
 15 16  1  0  0  0
 16 17  2  0  0  0
 15  1  1  0  0  0
  1  2  2  0  0  0
  2  3  1  0  0  0
  3  4  1  0  0  0
  4  5  2  0  0  0
  5  6  1  0  0  0
  6  7  2  0  0  0
  7  8  1  0  0  0
  8  9  2  0  0  0
  7 19  1  0  0  0
 19 20  2  0  0  0
 20 21  1  0  0  0
 21 22  2  0  0  0
 22 23  1  0  0  0
 22 24  1  0  0  0
 24 25  2  0  0  0
 17 12  1  0  0  0
  9  1  1  0  0  0
 25 19  1  0  0  0
  9  4  1  0  0  0
 11 18  1  0  0  0
  3 10  1  0  0  0
 23 26  1  0  0  0
M  END
> <minimizedAffinity>
-10.32967

> <CNNscore>
0.8474594355

> <CNNaffinity>
6.6038541794

> <CNN_VS>
5.5964984894

> <CNNaffinity_variance>
0.2107574493

$$$$
[H]Oc1c([H])c([H])c(-c2c([H])nc3c(c2[H])c(-c2c([H])c([H])c(O[H])c([H])c2[H])c([H])n3[H])c([H])c1[H]


 26 29  0  0  0  0  0  0  0  0999 V2000
  -85.5245   31.6960    0.1437 C   0  0  0  0  0  0  0  0  0  0  0  0
  -84.7971   32.8400   -0.0625 C   0  0  0  0  0  0  0  0  0  0  0  0
  -85.5408   33.7230   -0.7669 N   0  0  0  0  0  0  0  0  0  0  0  0
  -86.7485   33.1779   -1.0280 C   0  0  0  0  0  0  0  0  0  0  0  0
  -87.8305   33.6310   -1.6793 N   0  0  0  0  0  0  0  0  0  0  0  0
  -88.9159   32.8399   -1.7765 C   0  0  0  0  0  0  0  0  0  0  0  0
  -88.9662   31.5778   -1.2341 C   0  0  0  0  0  0  0  0  0  0  0  0
  -87.8606   31.1106   -0.5670 C   0  0  0  0  0  0  0  0  0  0  0  0
  -86.7372   31.8981   -0.4526 C   0  0  0  0  0  0  0  0  0  0  0  0
  -85.2575   34.6676   -1.0696 H   0  0  0  0  0  0  0  0  0  0  0  0
  -83.8974   27.0750    2.8776 O   0  0  0  0  0  0  0  0  0  0  0  0
  -84.2587   28.2169    2.2154 C   0  0  0  0  0  0  0  0  0  0  0  0
  -85.5321   28.3097    1.6857 C   0  0  0  0  0  0  0  0  0  0  0  0
  -85.9502   29.4223    1.0153 C   0  0  0  0  0  0  0  0  0  0  0  0
  -85.1011   30.4951    0.8478 C   0  0  0  0  0  0  0  0  0  0  0  0
  -83.8175   30.4196    1.3737 C   0  0  0  0  0  0  0  0  0  0  0  0
  -83.4294   29.3029    2.0345 C   0  0  0  0  0  0  0  0  0  0  0  0
  -83.4706   26.2588    2.4525 H   0  0  0  0  0  0  0  0  0  0  0  0
  -90.1333   30.7149   -1.3304 C   0  0  0  0  0  0  0  0  0  0  0  0
  -91.0849   30.8155   -2.3233 C   0  0  0  0  0  0  0  0  0  0  0  0
  -92.1902   29.9955   -2.4150 C   0  0  0  0  0  0  0  0  0  0  0  0
  -92.3659   29.0132   -1.4644 C   0  0  0  0  0  0  0  0  0  0  0  0
  -93.4872   28.2004   -1.5793 O   0  0  0  0  0  0  0  0  0  0  0  0
  -91.4443   28.8751   -0.4569 C   0  0  0  0  0  0  0  0  0  0  0  0
  -90.3449   29.7067   -0.3834 C   0  0  0  0  0  0  0  0  0  0  0  0
  -93.7004   27.4549   -0.9323 H   0  0  0  0  0  0  0  0  0  0  0  0
 11 12  1  0  0  0
 12 13  2  0  0  0
 13 14  1  0  0  0
 14 15  2  0  0  0
 15 16  1  0  0  0
 16 17  2  0  0  0
 15  1  1  0  0  0
  1  2  2  0  0  0
  2  3  1  0  0  0
  3  4  1  0  0  0
  4  5  2  0  0  0
  5  6  1  0  0  0
  6  7  2  0  0  0
  7  8  1  0  0  0
  8  9  2  0  0  0
  7 19  1  0  0  0
 19 20  2  0  0  0
 20 21  1  0  0  0
 21 22  2  0  0  0
 22 23  1  0  0  0
 22 24  1  0  0  0
 24 25  2  0  0  0
 17 12  1  0  0  0
  9  1  1  0  0  0
 25 19  1  0  0  0
  9  4  1  0  0  0
 11 18  1  0  0  0
  3 10  1  0  0  0
 23 26  1  0  0  0
M  END
> <minimizedAffinity>
-9.26475

> <CNNscore>
0.5921595693

> <CNNaffinity>
6.2539076805

> <CNN_VS>
3.7033112049

> <CNNaffinity_variance>
0.1890553832

$$$$
[H]Oc1c([H])c([H])c(-c2c([H])nc3c(c2[H])c(-c2c([H])c([H])c(O[H])c([H])c2[H])c([H])n3[H])c([H])c1[H]


 26 29  0  0  0  0  0  0  0  0999 V2000
  -84.4148   29.2999    1.4396 C   0  0  0  0  0  0  0  0  0  0  0  0
  -83.4766   28.5855    2.1397 C   0  0  0  0  0  0  0  0  0  0  0  0
  -84.0221   27.4218    2.5607 N   0  0  0  0  0  0  0  0  0  0  0  0
  -85.3065   27.3582    2.1482 C   0  0  0  0  0  0  0  0  0  0  0  0
  -86.2662   26.4326    2.2978 N   0  0  0  0  0  0  0  0  0  0  0  0
  -87.4797   26.6536    1.7576 C   0  0  0  0  0  0  0  0  0  0  0  0
  -87.7827   27.7947    1.0533 C   0  0  0  0  0  0  0  0  0  0  0  0
  -86.8030   28.7443    0.8983 C   0  0  0  0  0  0  0  0  0  0  0  0
  -85.5534   28.5445    1.4404 C   0  0  0  0  0  0  0  0  0  0  0  0
  -83.5560   26.6831    3.1096 H   0  0  0  0  0  0  0  0  0  0  0  0
  -83.7764   34.3271   -0.9676 O   0  0  0  0  0  0  0  0  0  0  0  0
  -83.8937   33.0960   -0.3815 C   0  0  0  0  0  0  0  0  0  0  0  0
  -85.1458   32.6526    0.0013 C   0  0  0  0  0  0  0  0  0  0  0  0
  -85.3260   31.4349    0.5901 C   0  0  0  0  0  0  0  0  0  0  0  0
  -84.2490   30.6061    0.8205 C   0  0  0  0  0  0  0  0  0  0  0  0
  -82.9830   31.0350    0.4421 C   0  0  0  0  0  0  0  0  0  0  0  0
  -82.8337   32.2486   -0.1403 C   0  0  0  0  0  0  0  0  0  0  0  0
  -83.6203   35.2002   -0.4752 H   0  0  0  0  0  0  0  0  0  0  0  0
  -89.0887   28.0437    0.4632 C   0  0  0  0  0  0  0  0  0  0  0  0
  -90.0572   27.0756    0.3008 C   0  0  0  0  0  0  0  0  0  0  0  0
  -91.2960   27.3132   -0.2571 C   0  0  0  0  0  0  0  0  0  0  0  0
  -91.5967   28.5895   -0.6815 C   0  0  0  0  0  0  0  0  0  0  0  0
  -92.8513   28.8026   -1.2397 O   0  0  0  0  0  0  0  0  0  0  0  0
  -90.6639   29.5861   -0.5401 C   0  0  0  0  0  0  0  0  0  0  0  0
  -89.4295   29.3268    0.0209 C   0  0  0  0  0  0  0  0  0  0  0  0
  -93.1623   29.7017   -1.5783 H   0  0  0  0  0  0  0  0  0  0  0  0
 11 12  1  0  0  0
 12 13  2  0  0  0
 13 14  1  0  0  0
 14 15  2  0  0  0
 15 16  1  0  0  0
 16 17  2  0  0  0
 15  1  1  0  0  0
  1  2  2  0  0  0
  2  3  1  0  0  0
  3  4  1  0  0  0
  4  5  2  0  0  0
  5  6  1  0  0  0
  6  7  2  0  0  0
  7  8  1  0  0  0
  8  9  2  0  0  0
  7 19  1  0  0  0
 19 20  2  0  0  0
 20 21  1  0  0  0
 21 22  2  0  0  0
 22 23  1  0  0  0
 22 24  1  0  0  0
 24 25  2  0  0  0
 17 12  1  0  0  0
  9  1  1  0  0  0
 25 19  1  0  0  0
  9  4  1  0  0  0
 11 18  1  0  0  0
  3 10  1  0  0  0
 23 26  1  0  0  0
M  END
> <minimizedAffinity>
-9.13538

> <CNNscore>
0.5823719501

> <CNNaffinity>
6.2366852760

> <CNN_VS>
3.6320705414

> <CNNaffinity_variance>
0.0457330719

$$$$
[H]Oc1c([H])c([H])c(-c2c([H])nc3c(c2[H])c(-c2c([H])c([H])c(O[H])c([H])c2[H])c([H])n3[H])c([H])c1[H]


 26 29  0  0  0  0  0  0  0  0999 V2000
  -88.8814   27.2910    0.4330 C   0  0  0  0  0  0  0  0  0  0  0  0
  -89.0933   26.0797    1.0400 C   0  0  0  0  0  0  0  0  0  0  0  0
  -88.0032   25.7466    1.7679 N   0  0  0  0  0  0  0  0  0  0  0  0
  -87.0756   26.7211    1.6500 C   0  0  0  0  0  0  0  0  0  0  0  0
  -85.8458   26.8745    2.1640 N   0  0  0  0  0  0  0  0  0  0  0  0
  -85.1426   27.9823    1.8615 C   0  0  0  0  0  0  0  0  0  0  0  0
  -85.6319   28.9722    1.0426 C   0  0  0  0  0  0  0  0  0  0  0  0
  -86.8901   28.8185    0.5146 C   0  0  0  0  0  0  0  0  0  0  0  0
  -87.6311   27.6956    0.8070 C   0  0  0  0  0  0  0  0  0  0  0  0
  -87.8735   24.8928    2.3322 H   0  0  0  0  0  0  0  0  0  0  0  0
  -92.3852   30.0858   -2.9416 O   0  0  0  0  0  0  0  0  0  0  0  0
  -91.5546   29.4107   -2.0888 C   0  0  0  0  0  0  0  0  0  0  0  0
  -90.4159   28.8130   -2.5957 C   0  0  0  0  0  0  0  0  0  0  0  0
  -89.5498   28.1265   -1.7954 C   0  0  0  0  0  0  0  0  0  0  0  0
  -89.7928   28.0109   -0.4435 C   0  0  0  0  0  0  0  0  0  0  0  0
  -90.9323   28.6055    0.0836 C   0  0  0  0  0  0  0  0  0  0  0  0
  -91.7745   29.2807   -0.7343 C   0  0  0  0  0  0  0  0  0  0  0  0
  -93.1678   29.6803   -3.4440 H   0  0  0  0  0  0  0  0  0  0  0  0
  -84.8832   30.1742    0.7104 C   0  0  0  0  0  0  0  0  0  0  0  0
  -83.5165   30.2930    0.8506 C   0  0  0  0  0  0  0  0  0  0  0  0
  -82.8071   31.4326    0.5335 C   0  0  0  0  0  0  0  0  0  0  0  0
  -83.4926   32.5246    0.0464 C   0  0  0  0  0  0  0  0  0  0  0  0
  -82.7549   33.6601   -0.2656 O   0  0  0  0  0  0  0  0  0  0  0  0
  -84.8541   32.4529   -0.1103 C   0  0  0  0  0  0  0  0  0  0  0  0
  -85.5451   31.3026    0.2135 C   0  0  0  0  0  0  0  0  0  0  0  0
  -83.1677   34.5075   -0.6281 H   0  0  0  0  0  0  0  0  0  0  0  0
 11 12  1  0  0  0
 12 13  2  0  0  0
 13 14  1  0  0  0
 14 15  2  0  0  0
 15 16  1  0  0  0
 16 17  2  0  0  0
 15  1  1  0  0  0
  1  2  2  0  0  0
  2  3  1  0  0  0
  3  4  1  0  0  0
  4  5  2  0  0  0
  5  6  1  0  0  0
  6  7  2  0  0  0
  7  8  1  0  0  0
  8  9  2  0  0  0
  7 19  1  0  0  0
 19 20  2  0  0  0
 20 21  1  0  0  0
 21 22  2  0  0  0
 22 23  1  0  0  0
 22 24  1  0  0  0
 24 25  2  0  0  0
 17 12  1  0  0  0
  9  1  1  0  0  0
 25 19  1  0  0  0
  9  4  1  0  0  0
 11 18  1  0  0  0
  3 10  1  0  0  0
 23 26  1  0  0  0
M  END
> <minimizedAffinity>
-9.05016

> <CNNscore>
0.4662293196

> <CNNaffinity>
6.1498847008

> <CNN_VS>
2.8672566414

> <CNNaffinity_variance>
0.2764266431

$$$$
[H]Oc1c([H])c([H])c(-c2c([H])nc3c(c2[H])c(-c2c([H])c([H])c(O[H])c([H])c2[H])c([H])n3[H])c([H])c1[H]


 26 29  0  0  0  0  0  0  0  0999 V2000
  -85.0587   31.2713    0.5505 C   0  0  0  0  0  0  0  0  0  0  0  0
  -84.4501   32.4773    0.3141 C   0  0  0  0  0  0  0  0  0  0  0  0
  -85.2982   33.2813   -0.3664 N   0  0  0  0  0  0  0  0  0  0  0  0
  -86.4576   32.6232   -0.5820 C   0  0  0  0  0  0  0  0  0  0  0  0
  -87.5999   32.9679   -1.1957 N   0  0  0  0  0  0  0  0  0  0  0  0
  -88.6086   32.0775   -1.2510 C   0  0  0  0  0  0  0  0  0  0  0  0
  -88.5205   30.8201   -0.7024 C   0  0  0  0  0  0  0  0  0  0  0  0
  -87.3529   30.4638   -0.0738 C   0  0  0  0  0  0  0  0  0  0  0  0
  -86.3054   31.3542   -0.0027 C   0  0  0  0  0  0  0  0  0  0  0  0
  -85.1161   34.2462   -0.6826 H   0  0  0  0  0  0  0  0  0  0  0  0
  -82.9023   26.8457    3.2410 O   0  0  0  0  0  0  0  0  0  0  0  0
  -83.3924   27.9388    2.5793 C   0  0  0  0  0  0  0  0  0  0  0  0
  -84.7541   28.0356    2.3621 C   0  0  0  0  0  0  0  0  0  0  0  0
  -85.3018   29.1011    1.7087 C   0  0  0  0  0  0  0  0  0  0  0  0
  -84.4993   30.1206    1.2433 C   0  0  0  0  0  0  0  0  0  0  0  0
  -83.1283   30.0403    1.4529 C   0  0  0  0  0  0  0  0  0  0  0  0
  -82.6122   28.9710    2.1044 C   0  0  0  0  0  0  0  0  0  0  0  0
  -82.6050   25.9791    2.8052 H   0  0  0  0  0  0  0  0  0  0  0  0
  -89.6037   29.8507   -0.7536 C   0  0  0  0  0  0  0  0  0  0  0  0
  -89.7934   28.8583    0.1849 C   0  0  0  0  0  0  0  0  0  0  0  0
  -90.8221   27.9407    0.1366 C   0  0  0  0  0  0  0  0  0  0  0  0
  -91.7207   28.0085   -0.9061 C   0  0  0  0  0  0  0  0  0  0  0  0
  -92.7478   27.0729   -0.9316 O   0  0  0  0  0  0  0  0  0  0  0  0
  -91.5722   28.9798   -1.8642 C   0  0  0  0  0  0  0  0  0  0  0  0
  -90.5352   29.8885   -1.7972 C   0  0  0  0  0  0  0  0  0  0  0  0
  -93.4532   27.0431   -1.6537 H   0  0  0  0  0  0  0  0  0  0  0  0
 11 12  1  0  0  0
 12 13  2  0  0  0
 13 14  1  0  0  0
 14 15  2  0  0  0
 15 16  1  0  0  0
 16 17  2  0  0  0
 15  1  1  0  0  0
  1  2  2  0  0  0
  2  3  1  0  0  0
  3  4  1  0  0  0
  4  5  2  0  0  0
  5  6  1  0  0  0
  6  7  2  0  0  0
  7  8  1  0  0  0
  8  9  2  0  0  0
  7 19  1  0  0  0
 19 20  2  0  0  0
 20 21  1  0  0  0
 21 22  2  0  0  0
 22 23  1  0  0  0
 22 24  1  0  0  0
 24 25  2  0  0  0
 17 12  1  0  0  0
  9  1  1  0  0  0
 25 19  1  0  0  0
  9  4  1  0  0  0
 11 18  1  0  0  0
  3 10  1  0  0  0
 23 26  1  0  0  0
M  END
> <minimizedAffinity>
-9.94016

> <CNNscore>
0.4467889369

> <CNNaffinity>
6.1917881966

> <CNN_VS>
2.7664225101

> <CNNaffinity_variance>
0.1868592948

$$$$
[H]Oc1c([H])c([H])c(-c2c([H])nc3c(c2[H])c(-c2c([H])c([H])c(O[H])c([H])c2[H])c([H])n3[H])c([H])c1[H]


 26 29  0  0  0  0  0  0  0  0999 V2000
  -84.3348   30.3963    0.9055 C   0  0  0  0  0  0  0  0  0  0  0  0
  -83.0811   30.3896    1.4614 C   0  0  0  0  0  0  0  0  0  0  0  0
  -82.8878   29.2225    2.1166 N   0  0  0  0  0  0  0  0  0  0  0  0
  -83.9958   28.4590    2.0007 C   0  0  0  0  0  0  0  0  0  0  0  0
  -84.3112   27.2369    2.4556 N   0  0  0  0  0  0  0  0  0  0  0  0
  -85.5226   26.7234    2.1689 C   0  0  0  0  0  0  0  0  0  0  0  0
  -86.4592   27.4005    1.4245 C   0  0  0  0  0  0  0  0  0  0  0  0
  -86.1400   28.6516    0.9574 C   0  0  0  0  0  0  0  0  0  0  0  0
  -84.9087   29.2011    1.2358 C   0  0  0  0  0  0  0  0  0  0  0  0
  -82.0409   28.9345    2.6305 H   0  0  0  0  0  0  0  0  0  0  0  0
  -86.6980   34.4832   -2.1255 O   0  0  0  0  0  0  0  0  0  0  0  0
  -86.0870   33.5035   -1.3908 C   0  0  0  0  0  0  0  0  0  0  0  0
  -86.8620   32.5073   -0.8269 C   0  0  0  0  0  0  0  0  0  0  0  0
  -86.3105   31.5040   -0.0843 C   0  0  0  0  0  0  0  0  0  0  0  0
  -84.9487   31.4592    0.1242 C   0  0  0  0  0  0  0  0  0  0  0  0
  -84.1542   32.4520   -0.4352 C   0  0  0  0  0  0  0  0  0  0  0  0
  -84.7286   33.4357   -1.1676 C   0  0  0  0  0  0  0  0  0  0  0  0
  -87.0500   35.3608   -1.7578 H   0  0  0  0  0  0  0  0  0  0  0  0
  -87.7698   26.8556    1.1062 C   0  0  0  0  0  0  0  0  0  0  0  0
  -87.9788   25.8246    0.2145 C   0  0  0  0  0  0  0  0  0  0  0  0
  -89.2218   25.3073   -0.0851 C   0  0  0  0  0  0  0  0  0  0  0  0
  -90.3289   25.8432    0.5365 C   0  0  0  0  0  0  0  0  0  0  0  0
  -91.5694   25.3042    0.2175 O   0  0  0  0  0  0  0  0  0  0  0  0
  -90.1698   26.8709    1.4320 C   0  0  0  0  0  0  0  0  0  0  0  0
  -88.9166   27.3743    1.7176 C   0  0  0  0  0  0  0  0  0  0  0  0
  -92.4360   25.6299    0.6210 H   0  0  0  0  0  0  0  0  0  0  0  0
 11 12  1  0  0  0
 12 13  2  0  0  0
 13 14  1  0  0  0
 14 15  2  0  0  0
 15 16  1  0  0  0
 16 17  2  0  0  0
 15  1  1  0  0  0
  1  2  2  0  0  0
  2  3  1  0  0  0
  3  4  1  0  0  0
  4  5  2  0  0  0
  5  6  1  0  0  0
  6  7  2  0  0  0
  7  8  1  0  0  0
  8  9  2  0  0  0
  7 19  1  0  0  0
 19 20  2  0  0  0
 20 21  1  0  0  0
 21 22  2  0  0  0
 22 23  1  0  0  0
 22 24  1  0  0  0
 24 25  2  0  0  0
 17 12  1  0  0  0
  9  1  1  0  0  0
 25 19  1  0  0  0
  9  4  1  0  0  0
 11 18  1  0  0  0
  3 10  1  0  0  0
 23 26  1  0  0  0
M  END
> <minimizedAffinity>
-9.17967

> <CNNscore>
0.4309590161

> <CNNaffinity>
6.1761908531

> <CNN_VS>
2.6616852283

> <CNNaffinity_variance>
0.0853778869

$$$$
[H]Oc1c([H])c([H])c(-c2c([H])nc3c(c2[H])c(-c2c([H])c([H])c(O[H])c([H])c2[H])c([H])n3[H])c([H])c1[H]


 26 29  0  0  0  0  0  0  0  0999 V2000
  -88.4909   31.4933   -1.3582 C   0  0  0  0  0  0  0  0  0  0  0  0
  -88.7053   32.7486   -1.8670 C   0  0  0  0  0  0  0  0  0  0  0  0
  -87.6542   33.5421   -1.5597 N   0  0  0  0  0  0  0  0  0  0  0  0
  -86.7494   32.8282   -0.8557 C   0  0  0  0  0  0  0  0  0  0  0  0
  -85.5573   33.1400   -0.3248 N   0  0  0  0  0  0  0  0  0  0  0  0
  -84.8663   32.1920    0.3365 C   0  0  0  0  0  0  0  0  0  0  0  0
  -85.3309   30.9078    0.4937 C   0  0  0  0  0  0  0  0  0  0  0  0
  -86.5507   30.5851   -0.0481 C   0  0  0  0  0  0  0  0  0  0  0  0
  -87.2786   31.5348   -0.7290 C   0  0  0  0  0  0  0  0  0  0  0  0
  -87.5355   34.5359   -1.8097 H   0  0  0  0  0  0  0  0  0  0  0  0
  -91.8748   27.0326   -1.7131 O   0  0  0  0  0  0  0  0  0  0  0  0
  -91.0291   28.1071   -1.6566 C   0  0  0  0  0  0  0  0  0  0  0  0
  -91.2712   29.1023   -0.7283 C   0  0  0  0  0  0  0  0  0  0  0  0
  -90.4637   30.1973   -0.6242 C   0  0  0  0  0  0  0  0  0  0  0  0
  -89.3720   30.3393   -1.4537 C   0  0  0  0  0  0  0  0  0  0  0  0
  -89.1130   29.3488   -2.3926 C   0  0  0  0  0  0  0  0  0  0  0  0
  -89.9315   28.2728   -2.4737 C   0  0  0  0  0  0  0  0  0  0  0  0
  -92.7084   26.9700   -2.2879 H   0  0  0  0  0  0  0  0  0  0  0  0
  -84.5930   29.8747    1.2036 C   0  0  0  0  0  0  0  0  0  0  0  0
  -83.2402   29.9362    1.4639 C   0  0  0  0  0  0  0  0  0  0  0  0
  -82.5417   28.9570    2.1389 C   0  0  0  0  0  0  0  0  0  0  0  0
  -83.2241   27.8459    2.5852 C   0  0  0  0  0  0  0  0  0  0  0  0
  -82.4975   26.8741    3.2625 O   0  0  0  0  0  0  0  0  0  0  0  0
  -84.5720   27.7408    2.3493 C   0  0  0  0  0  0  0  0  0  0  0  0
  -85.2522   28.7324    1.6714 C   0  0  0  0  0  0  0  0  0  0  0  0
  -82.9093   26.0270    3.6267 H   0  0  0  0  0  0  0  0  0  0  0  0
 11 12  1  0  0  0
 12 13  2  0  0  0
 13 14  1  0  0  0
 14 15  2  0  0  0
 15 16  1  0  0  0
 16 17  2  0  0  0
 15  1  1  0  0  0
  1  2  2  0  0  0
  2  3  1  0  0  0
  3  4  1  0  0  0
  4  5  2  0  0  0
  5  6  1  0  0  0
  6  7  2  0  0  0
  7  8  1  0  0  0
  8  9  2  0  0  0
  7 19  1  0  0  0
 19 20  2  0  0  0
 20 21  1  0  0  0
 21 22  2  0  0  0
 22 23  1  0  0  0
 22 24  1  0  0  0
 24 25  2  0  0  0
 17 12  1  0  0  0
  9  1  1  0  0  0
 25 19  1  0  0  0
  9  4  1  0  0  0
 11 18  1  0  0  0
  3 10  1  0  0  0
 23 26  1  0  0  0
M  END
> <minimizedAffinity>
-9.55141

> <CNNscore>
0.4037052393

> <CNNaffinity>
6.1074857712

> <CNN_VS>
2.4656240940

> <CNNaffinity_variance>
0.2338704318

$$$$
[H]N=C(OC([H])([H])C([H])([H])[H])c1nc2c([H])c([H])c3nc([H])nc(N([H])c4c([H])c([H])c(Br)c([H])c4F)c3c2s1


 29 32  0  0  0  0  0  0  0  0999 V2000
  -86.9899   27.0975    1.8644 C   0  0  0  0  0  0  0  0  0  0  0  0
  -85.7482   26.9935    2.2931 N   0  0  0  0  0  0  0  0  0  0  0  0
  -84.8920   27.9458    2.0572 C   0  0  0  0  0  0  0  0  0  0  0  0
  -83.5306   27.9434    2.4485 C   0  0  0  0  0  0  0  0  0  0  0  0
  -82.7559   29.0083    2.1105 C   0  0  0  0  0  0  0  0  0  0  0  0
  -83.2023   30.1046    1.4069 C   0  0  0  0  0  0  0  0  0  0  0  0
  -82.4110   31.1257    1.0710 N   0  0  0  0  0  0  0  0  0  0  0  0
  -82.9128   32.1533    0.3640 C   0  0  0  0  0  0  0  0  0  0  0  0
  -84.1894   32.1621   -0.0022 N   0  0  0  0  0  0  0  0  0  0  0  0
  -85.0667   31.1731    0.2933 C   0  0  0  0  0  0  0  0  0  0  0  0
  -84.5257   30.1330    1.0150 C   0  0  0  0  0  0  0  0  0  0  0  0
  -85.3308   29.0417    1.3567 C   0  0  0  0  0  0  0  0  0  0  0  0
  -86.9598   28.6043    1.0916 S   0  0  0  0  0  0  0  0  0  0  0  0
  -88.1230   26.1560    2.0079 C   0  0  0  0  0  0  0  0  0  0  0  0
  -88.4496   25.4652    0.9811 N   0  0  0  0  0  0  0  0  0  0  0  0
  -87.9190   25.5862    0.0989 H   0  0  0  0  0  0  0  0  0  0  0  0
  -88.7984   26.0228    3.1842 O   0  0  0  0  0  0  0  0  0  0  0  0
  -90.1570   26.7703    4.9668 C   0  0  0  0  0  0  0  0  0  0  0  0
  -89.5026   27.1681    3.6886 C   0  0  0  0  0  0  0  0  0  0  0  0
  -86.4340   31.2634   -0.0285 N   0  0  0  0  0  0  0  0  0  0  0  0
  -87.1301   30.9277    0.6479 H   0  0  0  0  0  0  0  0  0  0  0  0
  -87.0056   31.8209   -1.2020 C   0  0  0  0  0  0  0  0  0  0  0  0
  -87.5416   31.1106   -2.2264 C   0  0  0  0  0  0  0  0  0  0  0  0
  -88.1251   31.7221   -3.3532 C   0  0  0  0  0  0  0  0  0  0  0  0
  -88.1760   33.0888   -3.4612 C   0  0  0  0  0  0  0  0  0  0  0  0
  -88.9683   33.9160   -4.9915 Br  0  0  0  0  0  0  0  0  0  0  0  0
  -87.6415   33.8286   -2.4380 C   0  0  0  0  0  0  0  0  0  0  0  0
  -87.0784   33.2188   -1.3511 C   0  0  0  0  0  0  0  0  0  0  0  0
  -86.5644   33.9918   -0.3698 F   0  0  0  0  0  0  0  0  0  0  0  0
 18 19  1  0  0  0
 19 17  1  0  0  0
 17 14  1  0  0  0
 14 15  2  0  0  0
 14  1  1  0  0  0
  1  2  2  0  0  0
  2  3  1  0  0  0
  3  4  2  0  0  0
  4  5  1  0  0  0
  5  6  2  0  0  0
  6  7  1  0  0  0
  7  8  2  0  0  0
  8  9  1  0  0  0
  9 10  2  0  0  0
 10 20  1  0  0  0
 20 22  1  0  0  0
 22 23  2  0  0  0
 23 24  1  0  0  0
 24 25  2  0  0  0
 25 26  1  0  0  0
 25 27  1  0  0  0
 27 28  2  0  0  0
 28 29  1  0  0  0
 10 11  1  0  0  0
 11 12  2  0  0  0
 12 13  1  0  0  0
 13  1  1  0  0  0
 12  3  1  0  0  0
 11  6  1  0  0  0
 28 22  1  0  0  0
 15 16  1  0  0  0
 20 21  1  0  0  0
M  END
> <minimizedAffinity>
-9.36046

> <CNNscore>
0.6714355946

> <CNNaffinity>
7.3370714188

> <CNN_VS>
4.9263710976

> <CNNaffinity_variance>
0.0768355578

$$$$
[H]N=C(OC([H])([H])C([H])([H])[H])c1nc2c([H])c([H])c3nc([H])nc(N([H])c4c([H])c([H])c(Br)c([H])c4F)c3c2s1


 29 32  0  0  0  0  0  0  0  0999 V2000
  -86.2900   33.1712   -1.5744 C   0  0  0  0  0  0  0  0  0  0  0  0
  -85.0072   33.3201   -1.3128 N   0  0  0  0  0  0  0  0  0  0  0  0
  -84.3886   32.4590   -0.5568 C   0  0  0  0  0  0  0  0  0  0  0  0
  -83.0219   32.5193   -0.1895 C   0  0  0  0  0  0  0  0  0  0  0  0
  -82.5249   31.5508    0.6249 C   0  0  0  0  0  0  0  0  0  0  0  0
  -83.2612   30.5005    1.1258 C   0  0  0  0  0  0  0  0  0  0  0  0
  -82.7494   29.5763    1.9417 N   0  0  0  0  0  0  0  0  0  0  0  0
  -83.5353   28.5906    2.4087 C   0  0  0  0  0  0  0  0  0  0  0  0
  -84.8165   28.5274    2.0645 N   0  0  0  0  0  0  0  0  0  0  0  0
  -85.4225   29.4176    1.2427 C   0  0  0  0  0  0  0  0  0  0  0  0
  -84.5955   30.4171    0.7818 C   0  0  0  0  0  0  0  0  0  0  0  0
  -85.1167   31.4094   -0.0546 C   0  0  0  0  0  0  0  0  0  0  0  0
  -86.6509   31.7540   -0.7199 S   0  0  0  0  0  0  0  0  0  0  0  0
  -87.1930   34.0110   -2.3930 C   0  0  0  0  0  0  0  0  0  0  0  0
  -86.6664   34.6980   -3.3359 N   0  0  0  0  0  0  0  0  0  0  0  0
  -85.6431   34.6441   -3.4918 H   0  0  0  0  0  0  0  0  0  0  0  0
  -88.5350   34.0574   -2.1592 O   0  0  0  0  0  0  0  0  0  0  0  0
  -89.8103   32.2162   -2.9112 C   0  0  0  0  0  0  0  0  0  0  0  0
  -89.4154   33.6221   -3.2068 C   0  0  0  0  0  0  0  0  0  0  0  0
  -86.7574   29.2627    0.8240 N   0  0  0  0  0  0  0  0  0  0  0  0
  -87.3151   30.0985    0.6118 H   0  0  0  0  0  0  0  0  0  0  0  0
  -87.4542   28.0453    0.6070 C   0  0  0  0  0  0  0  0  0  0  0  0
  -88.1776   27.3788    1.5417 C   0  0  0  0  0  0  0  0  0  0  0  0
  -88.8758   26.1888    1.2579 C   0  0  0  0  0  0  0  0  0  0  0  0
  -88.8519   25.6458   -0.0018 C   0  0  0  0  0  0  0  0  0  0  0  0
  -89.8002   24.0309   -0.3843 Br  0  0  0  0  0  0  0  0  0  0  0  0
  -88.1282   26.3016   -0.9642 C   0  0  0  0  0  0  0  0  0  0  0  0
  -87.4557   27.4560   -0.6714 C   0  0  0  0  0  0  0  0  0  0  0  0
  -86.7561   28.0640   -1.6540 F   0  0  0  0  0  0  0  0  0  0  0  0
 18 19  1  0  0  0
 19 17  1  0  0  0
 17 14  1  0  0  0
 14 15  2  0  0  0
 14  1  1  0  0  0
  1  2  2  0  0  0
  2  3  1  0  0  0
  3  4  2  0  0  0
  4  5  1  0  0  0
  5  6  2  0  0  0
  6  7  1  0  0  0
  7  8  2  0  0  0
  8  9  1  0  0  0
  9 10  2  0  0  0
 10 20  1  0  0  0
 20 22  1  0  0  0
 22 23  2  0  0  0
 23 24  1  0  0  0
 24 25  2  0  0  0
 25 26  1  0  0  0
 25 27  1  0  0  0
 27 28  2  0  0  0
 28 29  1  0  0  0
 10 11  1  0  0  0
 11 12  2  0  0  0
 12 13  1  0  0  0
 13  1  1  0  0  0
 12  3  1  0  0  0
 11  6  1  0  0  0
 28 22  1  0  0  0
 15 16  1  0  0  0
 20 21  1  0  0  0
M  END
> <minimizedAffinity>
-8.77258

> <CNNscore>
0.6022440195

> <CNNaffinity>
7.3551988602

> <CNN_VS>
4.4296245575

> <CNNaffinity_variance>
0.1489500850

$$$$
[H]N=C(OC([H])([H])C([H])([H])[H])c1nc2c([H])c([H])c3nc([H])nc(N([H])c4c([H])c([H])c(Br)c([H])c4F)c3c2s1


 29 32  0  0  0  0  0  0  0  0999 V2000
  -86.4805   32.5390   -0.9170 C   0  0  0  0  0  0  0  0  0  0  0  0
  -85.2129   32.7289   -0.6118 N   0  0  0  0  0  0  0  0  0  0  0  0
  -84.5614   31.8302    0.0692 C   0  0  0  0  0  0  0  0  0  0  0  0
  -83.2070   31.9258    0.4726 C   0  0  0  0  0  0  0  0  0  0  0  0
  -82.6721   30.9082    1.1982 C   0  0  0  0  0  0  0  0  0  0  0  0
  -83.3582   29.7752    1.5749 C   0  0  0  0  0  0  0  0  0  0  0  0
  -82.8110   28.8022    2.3067 N   0  0  0  0  0  0  0  0  0  0  0  0
  -83.5497   27.7341    2.6549 C   0  0  0  0  0  0  0  0  0  0  0  0
  -84.8190   27.6380    2.2761 N   0  0  0  0  0  0  0  0  0  0  0  0
  -85.4582   28.5727    1.5327 C   0  0  0  0  0  0  0  0  0  0  0  0
  -84.6795   29.6560    1.1930 C   0  0  0  0  0  0  0  0  0  0  0  0
  -85.2395   30.6982    0.4473 C   0  0  0  0  0  0  0  0  0  0  0  0
  -86.7781   31.0260   -0.2163 S   0  0  0  0  0  0  0  0  0  0  0  0
  -87.4137   33.4077   -1.6690 C   0  0  0  0  0  0  0  0  0  0  0  0
  -86.9045   34.3248   -2.4026 N   0  0  0  0  0  0  0  0  0  0  0  0
  -85.8738   34.4266   -2.4445 H   0  0  0  0  0  0  0  0  0  0  0  0
  -88.7645   33.2449   -1.5899 O   0  0  0  0  0  0  0  0  0  0  0  0
  -90.2398   31.4318   -1.9343 C   0  0  0  0  0  0  0  0  0  0  0  0
  -89.4090   32.4673   -2.6108 C   0  0  0  0  0  0  0  0  0  0  0  0
  -86.7747   28.3900    1.0695 N   0  0  0  0  0  0  0  0  0  0  0  0
  -87.1143   28.9642    0.2886 H   0  0  0  0  0  0  0  0  0  0  0  0
  -87.7257   27.4442    1.5341 C   0  0  0  0  0  0  0  0  0  0  0  0
  -88.3604   27.4946    2.7323 C   0  0  0  0  0  0  0  0  0  0  0  0
  -89.3209   26.5423    3.1256 C   0  0  0  0  0  0  0  0  0  0  0  0
  -89.6602   25.5048    2.2945 C   0  0  0  0  0  0  0  0  0  0  0  0
  -90.9639   24.2138    2.8306 Br  0  0  0  0  0  0  0  0  0  0  0  0
  -89.0329   25.4328    1.0774 C   0  0  0  0  0  0  0  0  0  0  0  0
  -88.1022   26.3657    0.7114 C   0  0  0  0  0  0  0  0  0  0  0  0
  -87.5115   26.2504   -0.4978 F   0  0  0  0  0  0  0  0  0  0  0  0
 18 19  1  0  0  0
 19 17  1  0  0  0
 17 14  1  0  0  0
 14 15  2  0  0  0
 14  1  1  0  0  0
  1  2  2  0  0  0
  2  3  1  0  0  0
  3  4  2  0  0  0
  4  5  1  0  0  0
  5  6  2  0  0  0
  6  7  1  0  0  0
  7  8  2  0  0  0
  8  9  1  0  0  0
  9 10  2  0  0  0
 10 20  1  0  0  0
 20 22  1  0  0  0
 22 23  2  0  0  0
 23 24  1  0  0  0
 24 25  2  0  0  0
 25 26  1  0  0  0
 25 27  1  0  0  0
 27 28  2  0  0  0
 28 29  1  0  0  0
 10 11  1  0  0  0
 11 12  2  0  0  0
 12 13  1  0  0  0
 13  1  1  0  0  0
 12  3  1  0  0  0
 11  6  1  0  0  0
 28 22  1  0  0  0
 15 16  1  0  0  0
 20 21  1  0  0  0
M  END
> <minimizedAffinity>
-8.81845

> <CNNscore>
0.5506669879

> <CNNaffinity>
7.3650498390

> <CNN_VS>
4.0556898117

> <CNNaffinity_variance>
0.1414043456

$$$$
[H]N=C(OC([H])([H])C([H])([H])[H])c1nc2c([H])c([H])c3nc([H])nc(N([H])c4c([H])c([H])c(Br)c([H])c4F)c3c2s1


 29 32  0  0  0  0  0  0  0  0999 V2000
  -87.0148   27.0588    1.8535 C   0  0  0  0  0  0  0  0  0  0  0  0
  -85.7622   26.9923    2.2572 N   0  0  0  0  0  0  0  0  0  0  0  0
  -84.9447   27.9779    2.0207 C   0  0  0  0  0  0  0  0  0  0  0  0
  -83.5769   28.0178    2.3864 C   0  0  0  0  0  0  0  0  0  0  0  0
  -82.8467   29.1145    2.0511 C   0  0  0  0  0  0  0  0  0  0  0  0
  -83.3448   30.2050    1.3736 C   0  0  0  0  0  0  0  0  0  0  0  0
  -82.5965   31.2586    1.0394 N   0  0  0  0  0  0  0  0  0  0  0  0
  -83.1476   32.2785    0.3585 C   0  0  0  0  0  0  0  0  0  0  0  0
  -84.4306   32.2476    0.0164 N   0  0  0  0  0  0  0  0  0  0  0  0
  -85.2667   31.2237    0.3123 C   0  0  0  0  0  0  0  0  0  0  0  0
  -84.6757   30.1924    1.0070 C   0  0  0  0  0  0  0  0  0  0  0  0
  -85.4352   29.0681    1.3462 C   0  0  0  0  0  0  0  0  0  0  0  0
  -87.0526   28.5774    1.1045 S   0  0  0  0  0  0  0  0  0  0  0  0
  -88.1111   26.0756    2.0031 C   0  0  0  0  0  0  0  0  0  0  0  0
  -88.3943   25.3489    0.9881 N   0  0  0  0  0  0  0  0  0  0  0  0
  -87.8560   25.4713    0.1109 H   0  0  0  0  0  0  0  0  0  0  0  0
  -88.7981   25.9418    3.1725 O   0  0  0  0  0  0  0  0  0  0  0  0
  -90.0329   26.7639    5.0114 C   0  0  0  0  0  0  0  0  0  0  0  0
  -89.5879   27.0547    3.6195 C   0  0  0  0  0  0  0  0  0  0  0  0
  -86.6422   31.2704    0.0176 N   0  0  0  0  0  0  0  0  0  0  0  0
  -87.3121   30.8876    0.6954 H   0  0  0  0  0  0  0  0  0  0  0  0
  -87.2568   31.8403   -1.1279 C   0  0  0  0  0  0  0  0  0  0  0  0
  -87.5357   33.1578   -1.2940 C   0  0  0  0  0  0  0  0  0  0  0  0
  -88.1186   33.6701   -2.4696 C   0  0  0  0  0  0  0  0  0  0  0  0
  -88.4334   32.8395   -3.5151 C   0  0  0  0  0  0  0  0  0  0  0  0
  -89.2245   33.5372   -5.1091 Br  0  0  0  0  0  0  0  0  0  0  0  0
  -88.1603   31.5036   -3.3714 C   0  0  0  0  0  0  0  0  0  0  0  0
  -87.5943   31.0227   -2.2230 C   0  0  0  0  0  0  0  0  0  0  0  0
  -87.3457   29.6983   -2.1297 F   0  0  0  0  0  0  0  0  0  0  0  0
 18 19  1  0  0  0
 19 17  1  0  0  0
 17 14  1  0  0  0
 14 15  2  0  0  0
 14  1  1  0  0  0
  1  2  2  0  0  0
  2  3  1  0  0  0
  3  4  2  0  0  0
  4  5  1  0  0  0
  5  6  2  0  0  0
  6  7  1  0  0  0
  7  8  2  0  0  0
  8  9  1  0  0  0
  9 10  2  0  0  0
 10 20  1  0  0  0
 20 22  1  0  0  0
 22 23  2  0  0  0
 23 24  1  0  0  0
 24 25  2  0  0  0
 25 26  1  0  0  0
 25 27  1  0  0  0
 27 28  2  0  0  0
 28 29  1  0  0  0
 10 11  1  0  0  0
 11 12  2  0  0  0
 12 13  1  0  0  0
 13  1  1  0  0  0
 12  3  1  0  0  0
 11  6  1  0  0  0
 28 22  1  0  0  0
 15 16  1  0  0  0
 20 21  1  0  0  0
M  END
> <minimizedAffinity>
-9.43139

> <CNNscore>
0.5004958510

> <CNNaffinity>
7.1880507469

> <CNN_VS>
3.5975894928

> <CNNaffinity_variance>
0.1115094572

$$$$
[H]N=C(OC([H])([H])C([H])([H])[H])c1nc2c([H])c([H])c3nc([H])nc(N([H])c4c([H])c([H])c(Br)c([H])c4F)c3c2s1


 29 32  0  0  0  0  0  0  0  0999 V2000
  -86.8559   32.6934   -1.1887 C   0  0  0  0  0  0  0  0  0  0  0  0
  -85.6018   32.9679   -0.8918 N   0  0  0  0  0  0  0  0  0  0  0  0
  -84.8932   32.1241   -0.1978 C   0  0  0  0  0  0  0  0  0  0  0  0
  -83.5463   32.3118    0.1985 C   0  0  0  0  0  0  0  0  0  0  0  0
  -82.9465   31.3427    0.9397 C   0  0  0  0  0  0  0  0  0  0  0  0
  -83.5588   30.1757    1.3388 C   0  0  0  0  0  0  0  0  0  0  0  0
  -82.9495   29.2521    2.0854 N   0  0  0  0  0  0  0  0  0  0  0  0
  -83.6185   28.1461    2.4551 C   0  0  0  0  0  0  0  0  0  0  0  0
  -84.8804   27.9637    2.0831 N   0  0  0  0  0  0  0  0  0  0  0  0
  -85.5793   28.8432    1.3260 C   0  0  0  0  0  0  0  0  0  0  0  0
  -84.8711   29.9670    0.9643 C   0  0  0  0  0  0  0  0  0  0  0  0
  -85.4977   30.9587    0.2028 C   0  0  0  0  0  0  0  0  0  0  0  0
  -87.0558   31.1774   -0.4604 S   0  0  0  0  0  0  0  0  0  0  0  0
  -87.8439   33.4883   -1.9521 C   0  0  0  0  0  0  0  0  0  0  0  0
  -89.0833   33.2763   -1.7126 N   0  0  0  0  0  0  0  0  0  0  0  0
  -89.3488   32.5673   -1.0046 H   0  0  0  0  0  0  0  0  0  0  0  0
  -87.4584   34.4129   -2.8762 O   0  0  0  0  0  0  0  0  0  0  0  0
  -87.6575   35.3666   -5.0286 C   0  0  0  0  0  0  0  0  0  0  0  0
  -87.6292   34.0878   -4.2644 C   0  0  0  0  0  0  0  0  0  0  0  0
  -86.8830   28.5699    0.8713 N   0  0  0  0  0  0  0  0  0  0  0  0
  -87.2511   29.0905    0.0662 H   0  0  0  0  0  0  0  0  0  0  0  0
  -87.7829   27.5955    1.3768 C   0  0  0  0  0  0  0  0  0  0  0  0
  -88.4275   27.6673    2.5686 C   0  0  0  0  0  0  0  0  0  0  0  0
  -89.3361   26.6825    3.0031 C   0  0  0  0  0  0  0  0  0  0  0  0
  -89.6112   25.5892    2.2213 C   0  0  0  0  0  0  0  0  0  0  0  0
  -90.8445   24.2542    2.8133 Br  0  0  0  0  0  0  0  0  0  0  0  0
  -88.9726   25.4945    1.0117 C   0  0  0  0  0  0  0  0  0  0  0  0
  -88.0930   26.4597    0.6052 C   0  0  0  0  0  0  0  0  0  0  0  0
  -87.4885   26.3202   -0.5947 F   0  0  0  0  0  0  0  0  0  0  0  0
 18 19  1  0  0  0
 19 17  1  0  0  0
 17 14  1  0  0  0
 14 15  2  0  0  0
 14  1  1  0  0  0
  1  2  2  0  0  0
  2  3  1  0  0  0
  3  4  2  0  0  0
  4  5  1  0  0  0
  5  6  2  0  0  0
  6  7  1  0  0  0
  7  8  2  0  0  0
  8  9  1  0  0  0
  9 10  2  0  0  0
 10 20  1  0  0  0
 20 22  1  0  0  0
 22 23  2  0  0  0
 23 24  1  0  0  0
 24 25  2  0  0  0
 25 26  1  0  0  0
 25 27  1  0  0  0
 27 28  2  0  0  0
 28 29  1  0  0  0
 10 11  1  0  0  0
 11 12  2  0  0  0
 12 13  1  0  0  0
 13  1  1  0  0  0
 12  3  1  0  0  0
 11  6  1  0  0  0
 28 22  1  0  0  0
 15 16  1  0  0  0
 20 21  1  0  0  0
M  END
> <minimizedAffinity>
-8.75345

> <CNNscore>
0.3977267444

> <CNNaffinity>
7.1554994583

> <CNN_VS>
2.8459334373

> <CNNaffinity_variance>
0.1512939632

$$$$
[H]N=C(OC([H])([H])C([H])([H])[H])c1nc2c([H])c([H])c3nc([H])nc(N([H])c4c([H])c([H])c(Br)c([H])c4F)c3c2s1


 29 32  0  0  0  0  0  0  0  0999 V2000
  -87.0611   27.6120    1.3739 C   0  0  0  0  0  0  0  0  0  0  0  0
  -85.8139   27.7327    1.7817 N   0  0  0  0  0  0  0  0  0  0  0  0
  -85.1271   28.7977    1.4823 C   0  0  0  0  0  0  0  0  0  0  0  0
  -83.7789   29.0361    1.8453 C   0  0  0  0  0  0  0  0  0  0  0  0
  -83.1921   30.1935    1.4402 C   0  0  0  0  0  0  0  0  0  0  0  0
  -83.8197   31.1655    0.6933 C   0  0  0  0  0  0  0  0  0  0  0  0
  -83.2094   32.2827    0.2920 N   0  0  0  0  0  0  0  0  0  0  0  0
  -83.8804   33.1778   -0.4538 C   0  0  0  0  0  0  0  0  0  0  0  0
  -85.1458   32.9607   -0.7938 N   0  0  0  0  0  0  0  0  0  0  0  0
  -85.8467   31.8592   -0.4327 C   0  0  0  0  0  0  0  0  0  0  0  0
  -85.1347   30.9589    0.3276 C   0  0  0  0  0  0  0  0  0  0  0  0
  -85.7471   29.7706    0.7384 C   0  0  0  0  0  0  0  0  0  0  0  0
  -87.2862   29.0620    0.5282 S   0  0  0  0  0  0  0  0  0  0  0  0
  -88.0239   26.5079    1.5862 C   0  0  0  0  0  0  0  0  0  0  0  0
  -87.9602   25.8750    2.6969 N   0  0  0  0  0  0  0  0  0  0  0  0
  -87.2488   26.1519    3.3981 H   0  0  0  0  0  0  0  0  0  0  0  0
  -88.9465   26.1712    0.6413 O   0  0  0  0  0  0  0  0  0  0  0  0
  -89.6367   25.7409   -1.5770 C   0  0  0  0  0  0  0  0  0  0  0  0
  -88.4687   25.7709   -0.6524 C   0  0  0  0  0  0  0  0  0  0  0  0
  -87.2142   31.7102   -0.7305 N   0  0  0  0  0  0  0  0  0  0  0  0
  -87.8173   31.2039   -0.0711 H   0  0  0  0  0  0  0  0  0  0  0  0
  -87.9103   32.2267   -1.8545 C   0  0  0  0  0  0  0  0  0  0  0  0
  -88.4524   33.4678   -1.9382 C   0  0  0  0  0  0  0  0  0  0  0  0
  -89.1050   33.9369   -3.0950 C   0  0  0  0  0  0  0  0  0  0  0  0
  -89.2198   33.1407   -4.2064 C   0  0  0  0  0  0  0  0  0  0  0  0
  -90.1059   33.7796   -5.7749 Br  0  0  0  0  0  0  0  0  0  0  0  0
  -88.6790   31.8821   -4.1465 C   0  0  0  0  0  0  0  0  0  0  0  0
  -88.0490   31.4423   -3.0151 C   0  0  0  0  0  0  0  0  0  0  0  0
  -87.5334   30.1938   -3.0056 F   0  0  0  0  0  0  0  0  0  0  0  0
 18 19  1  0  0  0
 19 17  1  0  0  0
 17 14  1  0  0  0
 14 15  2  0  0  0
 14  1  1  0  0  0
  1  2  2  0  0  0
  2  3  1  0  0  0
  3  4  2  0  0  0
  4  5  1  0  0  0
  5  6  2  0  0  0
  6  7  1  0  0  0
  7  8  2  0  0  0
  8  9  1  0  0  0
  9 10  2  0  0  0
 10 20  1  0  0  0
 20 22  1  0  0  0
 22 23  2  0  0  0
 23 24  1  0  0  0
 24 25  2  0  0  0
 25 26  1  0  0  0
 25 27  1  0  0  0
 27 28  2  0  0  0
 28 29  1  0  0  0
 10 11  1  0  0  0
 11 12  2  0  0  0
 12 13  1  0  0  0
 13  1  1  0  0  0
 12  3  1  0  0  0
 11  6  1  0  0  0
 28 22  1  0  0  0
 15 16  1  0  0  0
 20 21  1  0  0  0
M  END
> <minimizedAffinity>
-8.42595

> <CNNscore>
0.3349258006

> <CNNaffinity>
6.9716844559

> <CNN_VS>
2.3349969387

> <CNNaffinity_variance>
0.1955593377

$$$$
[H]N=C(OC([H])([H])C([H])([H])[H])c1nc2c([H])c([H])c3nc([H])nc(N([H])c4c([H])c([H])c(Br)c([H])c4F)c3c2s1


 29 32  0  0  0  0  0  0  0  0999 V2000
  -87.2922   26.8960    2.2012 C   0  0  0  0  0  0  0  0  0  0  0  0
  -86.0090   26.8985    2.5005 N   0  0  0  0  0  0  0  0  0  0  0  0
  -85.2499   27.8863    2.1216 C   0  0  0  0  0  0  0  0  0  0  0  0
  -83.8588   27.9952    2.3654 C   0  0  0  0  0  0  0  0  0  0  0  0
  -83.1990   29.0835    1.8875 C   0  0  0  0  0  0  0  0  0  0  0  0
  -83.7904   30.1025    1.1746 C   0  0  0  0  0  0  0  0  0  0  0  0
  -83.1109   31.1485    0.6994 N   0  0  0  0  0  0  0  0  0  0  0  0
  -83.7528   32.0953   -0.0070 C   0  0  0  0  0  0  0  0  0  0  0  0
  -85.0577   31.9997   -0.2353 N   0  0  0  0  0  0  0  0  0  0  0  0
  -85.8290   30.9777    0.2071 C   0  0  0  0  0  0  0  0  0  0  0  0
  -85.1458   30.0219    0.9247 C   0  0  0  0  0  0  0  0  0  0  0  0
  -85.8335   28.9055    1.4111 C   0  0  0  0  0  0  0  0  0  0  0  0
  -87.4465   28.3496    1.3457 S   0  0  0  0  0  0  0  0  0  0  0  0
  -88.3362   25.8954    2.5172 C   0  0  0  0  0  0  0  0  0  0  0  0
  -88.9487   25.3513    1.5338 N   0  0  0  0  0  0  0  0  0  0  0  0
  -88.6976   25.6249    0.5661 H   0  0  0  0  0  0  0  0  0  0  0  0
  -88.6403   25.5599    3.8027 O   0  0  0  0  0  0  0  0  0  0  0  0
  -90.0547   26.6479    5.3511 C   0  0  0  0  0  0  0  0  0  0  0  0
  -90.0086   25.6764    4.2223 C   0  0  0  0  0  0  0  0  0  0  0  0
  -87.2250   30.9605    0.0279 N   0  0  0  0  0  0  0  0  0  0  0  0
  -87.8029   31.6393    0.5377 H   0  0  0  0  0  0  0  0  0  0  0  0
  -87.9701   30.1160   -0.8360 C   0  0  0  0  0  0  0  0  0  0  0  0
  -87.4494   29.3654   -1.8392 C   0  0  0  0  0  0  0  0  0  0  0  0
  -88.2370   28.5195   -2.6445 C   0  0  0  0  0  0  0  0  0  0  0  0
  -89.5900   28.4189   -2.4413 C   0  0  0  0  0  0  0  0  0  0  0  0
  -90.6564   27.2704   -3.5356 Br  0  0  0  0  0  0  0  0  0  0  0  0
  -90.1397   29.1672   -1.4325 C   0  0  0  0  0  0  0  0  0  0  0  0
  -89.3605   29.9838   -0.6601 C   0  0  0  0  0  0  0  0  0  0  0  0
  -89.9498   30.7017    0.3207 F   0  0  0  0  0  0  0  0  0  0  0  0
 18 19  1  0  0  0
 19 17  1  0  0  0
 17 14  1  0  0  0
 14 15  2  0  0  0
 14  1  1  0  0  0
  1  2  2  0  0  0
  2  3  1  0  0  0
  3  4  2  0  0  0
  4  5  1  0  0  0
  5  6  2  0  0  0
  6  7  1  0  0  0
  7  8  2  0  0  0
  8  9  1  0  0  0
  9 10  2  0  0  0
 10 20  1  0  0  0
 20 22  1  0  0  0
 22 23  2  0  0  0
 23 24  1  0  0  0
 24 25  2  0  0  0
 25 26  1  0  0  0
 25 27  1  0  0  0
 27 28  2  0  0  0
 28 29  1  0  0  0
 10 11  1  0  0  0
 11 12  2  0  0  0
 12 13  1  0  0  0
 13  1  1  0  0  0
 12  3  1  0  0  0
 11  6  1  0  0  0
 28 22  1  0  0  0
 15 16  1  0  0  0
 20 21  1  0  0  0
M  END
> <minimizedAffinity>
-8.11471

> <CNNscore>
0.2756587565

> <CNNaffinity>
6.9268760681

> <CNN_VS>
1.9094539881

> <CNNaffinity_variance>
0.1532788575

$$$$
[H]N=C(OC([H])([H])C([H])([H])[H])c1nc2c([H])c([H])c3nc([H])nc(N([H])c4c([H])c([H])c(Br)c([H])c4F)c3c2s1


 29 32  0  0  0  0  0  0  0  0999 V2000
  -86.7639   32.8867   -1.6242 C   0  0  0  0  0  0  0  0  0  0  0  0
  -85.7793   32.9763   -0.7531 N   0  0  0  0  0  0  0  0  0  0  0  0
  -85.4754   31.9577   -0.0010 C   0  0  0  0  0  0  0  0  0  0  0  0
  -84.4546   31.9356    0.9808 C   0  0  0  0  0  0  0  0  0  0  0  0
  -84.2705   30.7972    1.7007 C   0  0  0  0  0  0  0  0  0  0  0  0
  -85.0123   29.6476    1.5441 C   0  0  0  0  0  0  0  0  0  0  0  0
  -84.8216   28.5518    2.2820 N   0  0  0  0  0  0  0  0  0  0  0  0
  -85.5996   27.4729    2.0867 C   0  0  0  0  0  0  0  0  0  0  0  0
  -86.5557   27.4872    1.1649 N   0  0  0  0  0  0  0  0  0  0  0  0
  -86.8218   28.5507    0.3692 C   0  0  0  0  0  0  0  0  0  0  0  0
  -86.0124   29.6418    0.5925 C   0  0  0  0  0  0  0  0  0  0  0  0
  -86.2107   30.8086   -0.1526 C   0  0  0  0  0  0  0  0  0  0  0  0
  -87.2928   31.2963   -1.3800 S   0  0  0  0  0  0  0  0  0  0  0  0
  -87.2856   33.8980   -2.5707 C   0  0  0  0  0  0  0  0  0  0  0  0
  -86.5044   34.2887   -3.5064 N   0  0  0  0  0  0  0  0  0  0  0  0
  -85.5493   33.8907   -3.5687 H   0  0  0  0  0  0  0  0  0  0  0  0
  -88.5478   34.3996   -2.4584 O   0  0  0  0  0  0  0  0  0  0  0  0
  -90.1618   35.0597   -4.0527 C   0  0  0  0  0  0  0  0  0  0  0  0
  -88.9246   35.4743   -3.3332 C   0  0  0  0  0  0  0  0  0  0  0  0
  -87.7787   28.4946   -0.6615 N   0  0  0  0  0  0  0  0  0  0  0  0
  -87.5905   28.9822   -1.5456 H   0  0  0  0  0  0  0  0  0  0  0  0
  -89.0084   27.7858   -0.6548 C   0  0  0  0  0  0  0  0  0  0  0  0
  -90.2149   28.3126   -0.3260 C   0  0  0  0  0  0  0  0  0  0  0  0
  -91.4087   27.5661   -0.3693 C   0  0  0  0  0  0  0  0  0  0  0  0
  -91.3982   26.2495   -0.7547 C   0  0  0  0  0  0  0  0  0  0  0  0
  -93.0196   25.2388   -0.8126 Br  0  0  0  0  0  0  0  0  0  0  0  0
  -90.1908   25.6946   -1.0928 C   0  0  0  0  0  0  0  0  0  0  0  0
  -89.0410   26.4336   -1.0448 C   0  0  0  0  0  0  0  0  0  0  0  0
  -87.8764   25.8409   -1.3866 F   0  0  0  0  0  0  0  0  0  0  0  0
 18 19  1  0  0  0
 19 17  1  0  0  0
 17 14  1  0  0  0
 14 15  2  0  0  0
 14  1  1  0  0  0
  1  2  2  0  0  0
  2  3  1  0  0  0
  3  4  2  0  0  0
  4  5  1  0  0  0
  5  6  2  0  0  0
  6  7  1  0  0  0
  7  8  2  0  0  0
  8  9  1  0  0  0
  9 10  2  0  0  0
 10 20  1  0  0  0
 20 22  1  0  0  0
 22 23  2  0  0  0
 23 24  1  0  0  0
 24 25  2  0  0  0
 25 26  1  0  0  0
 25 27  1  0  0  0
 27 28  2  0  0  0
 28 29  1  0  0  0
 10 11  1  0  0  0
 11 12  2  0  0  0
 12 13  1  0  0  0
 13  1  1  0  0  0
 12  3  1  0  0  0
 11  6  1  0  0  0
 28 22  1  0  0  0
 15 16  1  0  0  0
 20 21  1  0  0  0
M  END
> <minimizedAffinity>
-7.49156

> <CNNscore>
0.2705359757

> <CNNaffinity>
6.9574327469

> <CNN_VS>
1.8822358847

> <CNNaffinity_variance>
0.3193524480

$$$$
[H]N=C(OC([H])([H])C([H])([H])[H])c1nc2c([H])c([H])c3nc([H])nc(N([H])c4c([H])c([H])c(Br)c([H])c4F)c3c2s1


 29 32  0  0  0  0  0  0  0  0999 V2000
  -85.5858   32.5462   -0.6833 C   0  0  0  0  0  0  0  0  0  0  0  0
  -86.2488   33.4270   -1.4049 N   0  0  0  0  0  0  0  0  0  0  0  0
  -87.4252   33.1327   -1.8792 C   0  0  0  0  0  0  0  0  0  0  0  0
  -88.2259   33.9838   -2.6798 C   0  0  0  0  0  0  0  0  0  0  0  0
  -89.4287   33.5235   -3.1153 C   0  0  0  0  0  0  0  0  0  0  0  0
  -89.9341   32.2744   -2.8316 C   0  0  0  0  0  0  0  0  0  0  0  0
  -91.1102   31.8430   -3.2924 N   0  0  0  0  0  0  0  0  0  0  0  0
  -91.5295   30.6016   -2.9911 C   0  0  0  0  0  0  0  0  0  0  0  0
  -90.7842   29.8009   -2.2379 N   0  0  0  0  0  0  0  0  0  0  0  0
  -89.5802   30.1511   -1.7252 C   0  0  0  0  0  0  0  0  0  0  0  0
  -89.1746   31.4256   -2.0516 C   0  0  0  0  0  0  0  0  0  0  0  0
  -87.9350   31.8892   -1.5997 C   0  0  0  0  0  0  0  0  0  0  0  0
  -86.6619   31.2384   -0.6663 S   0  0  0  0  0  0  0  0  0  0  0  0
  -84.2520   32.6525   -0.0502 C   0  0  0  0  0  0  0  0  0  0  0  0
  -83.4478   33.5341   -0.5133 N   0  0  0  0  0  0  0  0  0  0  0  0
  -83.7522   34.1334   -1.3023 H   0  0  0  0  0  0  0  0  0  0  0  0
  -83.8855   31.8472    0.9864 O   0  0  0  0  0  0  0  0  0  0  0  0
  -83.1494   29.7535    1.7968 C   0  0  0  0  0  0  0  0  0  0  0  0
  -82.9908   30.7589    0.7087 C   0  0  0  0  0  0  0  0  0  0  0  0
  -88.8645   29.3106   -0.8520 N   0  0  0  0  0  0  0  0  0  0  0  0
  -87.8945   29.0619   -1.0804 H   0  0  0  0  0  0  0  0  0  0  0  0
  -89.3139   28.7694    0.3808 C   0  0  0  0  0  0  0  0  0  0  0  0
  -90.5508   28.9463    0.9099 C   0  0  0  0  0  0  0  0  0  0  0  0
  -90.9505   28.3558    2.1247 C   0  0  0  0  0  0  0  0  0  0  0  0
  -90.0868   27.5614    2.8353 C   0  0  0  0  0  0  0  0  0  0  0  0
  -90.6317   26.7614    4.4836 Br  0  0  0  0  0  0  0  0  0  0  0  0
  -88.8310   27.3668    2.3205 C   0  0  0  0  0  0  0  0  0  0  0  0
  -88.4590   27.9480    1.1397 C   0  0  0  0  0  0  0  0  0  0  0  0
  -87.2102   27.7266    0.6749 F   0  0  0  0  0  0  0  0  0  0  0  0
 18 19  1  0  0  0
 19 17  1  0  0  0
 17 14  1  0  0  0
 14 15  2  0  0  0
 14  1  1  0  0  0
  1  2  2  0  0  0
  2  3  1  0  0  0
  3  4  2  0  0  0
  4  5  1  0  0  0
  5  6  2  0  0  0
  6  7  1  0  0  0
  7  8  2  0  0  0
  8  9  1  0  0  0
  9 10  2  0  0  0
 10 20  1  0  0  0
 20 22  1  0  0  0
 22 23  2  0  0  0
 23 24  1  0  0  0
 24 25  2  0  0  0
 25 26  1  0  0  0
 25 27  1  0  0  0
 27 28  2  0  0  0
 28 29  1  0  0  0
 10 11  1  0  0  0
 11 12  2  0  0  0
 12 13  1  0  0  0
 13  1  1  0  0  0
 12  3  1  0  0  0
 11  6  1  0  0  0
 28 22  1  0  0  0
 15 16  1  0  0  0
 20 21  1  0  0  0
M  END
> <minimizedAffinity>
-7.90542

> <CNNscore>
0.2225717455

> <CNNaffinity>
6.8744773865

> <CNN_VS>
1.5300644636

> <CNNaffinity_variance>
0.0784530491

$$$$
[H]c1nc([H])c(-c2c([H])sc(-c3c([H])nc([H])c(N([H])C(=O)C4([H])C([H])([H])C4([H])[H])c3[H])c2[H])c([H])c1[H]


 24 27  0  0  0  0  0  0  0  0999 V2000
  -84.7470   31.6518    0.4972 C   0  0  0  0  0  0  0  0  0  0  0  0
  -83.6054   32.3728    0.2971 C   0  0  0  0  0  0  0  0  0  0  0  0
  -83.5280   33.4054   -0.6013 N   0  0  0  0  0  0  0  0  0  0  0  0
  -84.5927   33.7399   -1.3209 C   0  0  0  0  0  0  0  0  0  0  0  0
  -85.7605   33.0502   -1.1599 C   0  0  0  0  0  0  0  0  0  0  0  0
  -85.8496   32.0231   -0.2708 C   0  0  0  0  0  0  0  0  0  0  0  0
  -86.9256   33.4551   -1.9821 C   0  0  0  0  0  0  0  0  0  0  0  0
  -86.9644   34.2057   -3.1187 C   0  0  0  0  0  0  0  0  0  0  0  0
  -88.1579   34.4309   -3.6754 C   0  0  0  0  0  0  0  0  0  0  0  0
  -89.2530   33.8879   -3.0581 C   0  0  0  0  0  0  0  0  0  0  0  0
  -88.5801   33.0796   -1.7190 S   0  0  0  0  0  0  0  0  0  0  0  0
  -88.3530   35.2329   -4.9187 C   0  0  0  0  0  0  0  0  0  0  0  0
  -89.5738   35.2812   -5.5538 C   0  0  0  0  0  0  0  0  0  0  0  0
  -89.7194   36.0330   -6.7020 C   0  0  0  0  0  0  0  0  0  0  0  0
  -88.6557   36.7436   -7.2307 C   0  0  0  0  0  0  0  0  0  0  0  0
  -87.4934   36.6550   -6.5648 N   0  0  0  0  0  0  0  0  0  0  0  0
  -87.3021   35.9447   -5.4549 C   0  0  0  0  0  0  0  0  0  0  0  0
  -82.6741   29.8173    1.5902 O   0  0  0  0  0  0  0  0  0  0  0  0
  -83.8799   29.7601    1.8935 C   0  0  0  0  0  0  0  0  0  0  0  0
  -84.8862   30.5945    1.4119 N   0  0  0  0  0  0  0  0  0  0  0  0
  -85.8848   30.3947    1.7905 H   0  0  0  0  0  0  0  0  0  0  0  0
  -84.2192   28.6578    2.8838 C   0  0  0  0  0  0  0  0  0  0  0  0
  -84.7960   27.4157    2.2065 C   0  0  0  0  0  0  0  0  0  0  0  0
  -83.4399   27.4129    2.8768 C   0  0  0  0  0  0  0  0  0  0  0  0
 18 19  2  0  0  0
 19 20  1  0  0  0
 20  1  1  0  0  0
  1  2  2  0  0  0
  2  3  1  0  0  0
  3  4  2  0  0  0
  4  5  1  0  0  0
  5  6  2  0  0  0
  5  7  1  0  0  0
  7  8  2  0  0  0
  8  9  1  0  0  0
  9 10  2  0  0  0
 10 11  1  0  0  0
  9 12  1  0  0  0
 12 13  2  0  0  0
 13 14  1  0  0  0
 14 15  2  0  0  0
 15 16  1  0  0  0
 16 17  2  0  0  0
 19 22  1  0  0  0
 22 23  1  0  0  0
 23 24  1  0  0  0
  6  1  1  0  0  0
 11  7  1  0  0  0
 17 12  1  0  0  0
 24 22  1  0  0  0
 20 21  1  0  0  0
M  END
> <minimizedAffinity>
-7.81274

> <CNNscore>
0.8316169977

> <CNNaffinity>
6.4721665382

> <CNN_VS>
5.3823637962

> <CNNaffinity_variance>
0.0341453180

$$$$
[H]c1nc([H])c(-c2c([H])sc(-c3c([H])nc([H])c(N([H])C(=O)C4([H])C([H])([H])C4([H])[H])c3[H])c2[H])c([H])c1[H]


 24 27  0  0  0  0  0  0  0  0999 V2000
  -87.6023   34.2161   -3.5034 C   0  0  0  0  0  0  0  0  0  0  0  0
  -88.8315   34.0285   -2.9404 C   0  0  0  0  0  0  0  0  0  0  0  0
  -89.0081   33.3918   -1.7393 N   0  0  0  0  0  0  0  0  0  0  0  0
  -87.9571   32.9275   -1.0738 C   0  0  0  0  0  0  0  0  0  0  0  0
  -86.7041   33.0883   -1.5928 C   0  0  0  0  0  0  0  0  0  0  0  0
  -86.5161   33.7191   -2.7846 C   0  0  0  0  0  0  0  0  0  0  0  0
  -85.5575   32.5558   -0.8187 C   0  0  0  0  0  0  0  0  0  0  0  0
  -85.4530   31.3936   -0.1150 C   0  0  0  0  0  0  0  0  0  0  0  0
  -84.2957   31.1426    0.5037 C   0  0  0  0  0  0  0  0  0  0  0  0
  -83.3014   32.0762    0.3820 C   0  0  0  0  0  0  0  0  0  0  0  0
  -84.0152   33.2755   -0.5935 S   0  0  0  0  0  0  0  0  0  0  0  0
  -84.0374   29.9128    1.3086 C   0  0  0  0  0  0  0  0  0  0  0  0
  -82.7569   29.5358    1.6468 C   0  0  0  0  0  0  0  0  0  0  0  0
  -82.5538   28.3923    2.3923 C   0  0  0  0  0  0  0  0  0  0  0  0
  -83.6186   27.6123    2.8092 C   0  0  0  0  0  0  0  0  0  0  0  0
  -84.8406   28.0340    2.4469 N   0  0  0  0  0  0  0  0  0  0  0  0
  -85.0888   29.1280    1.7296 C   0  0  0  0  0  0  0  0  0  0  0  0
  -87.2777   37.1234   -4.0507 O   0  0  0  0  0  0  0  0  0  0  0  0
  -87.2190   36.2421   -4.9276 C   0  0  0  0  0  0  0  0  0  0  0  0
  -87.3623   34.8716   -4.7227 N   0  0  0  0  0  0  0  0  0  0  0  0
  -87.2801   34.2515   -5.6111 H   0  0  0  0  0  0  0  0  0  0  0  0
  -86.9653   36.7761   -6.3281 C   0  0  0  0  0  0  0  0  0  0  0  0
  -88.2282   36.7960   -7.1877 C   0  0  0  0  0  0  0  0  0  0  0  0
  -87.5453   38.0649   -6.7278 C   0  0  0  0  0  0  0  0  0  0  0  0
 18 19  2  0  0  0
 19 20  1  0  0  0
 20  1  1  0  0  0
  1  2  2  0  0  0
  2  3  1  0  0  0
  3  4  2  0  0  0
  4  5  1  0  0  0
  5  6  2  0  0  0
  5  7  1  0  0  0
  7  8  2  0  0  0
  8  9  1  0  0  0
  9 10  2  0  0  0
 10 11  1  0  0  0
  9 12  1  0  0  0
 12 13  2  0  0  0
 13 14  1  0  0  0
 14 15  2  0  0  0
 15 16  1  0  0  0
 16 17  2  0  0  0
 19 22  1  0  0  0
 22 23  1  0  0  0
 23 24  1  0  0  0
  6  1  1  0  0  0
 11  7  1  0  0  0
 17 12  1  0  0  0
 24 22  1  0  0  0
 20 21  1  0  0  0
M  END
> <minimizedAffinity>
-8.38729

> <CNNscore>
0.7873774767

> <CNNaffinity>
6.5129179955

> <CNN_VS>
5.1281247139

> <CNNaffinity_variance>
0.0525658540

$$$$
[H]c1nc([H])c(-c2c([H])sc(-c3c([H])nc([H])c(N([H])C(=O)C4([H])C([H])([H])C4([H])[H])c3[H])c2[H])c([H])c1[H]


 24 27  0  0  0  0  0  0  0  0999 V2000
  -85.3073   31.2218    0.5246 C   0  0  0  0  0  0  0  0  0  0  0  0
  -84.0940   31.8460    0.4862 C   0  0  0  0  0  0  0  0  0  0  0  0
  -83.8422   32.9296   -0.3148 N   0  0  0  0  0  0  0  0  0  0  0  0
  -84.8001   33.4134   -1.0968 C   0  0  0  0  0  0  0  0  0  0  0  0
  -86.0330   32.8256   -1.0971 C   0  0  0  0  0  0  0  0  0  0  0  0
  -86.2950   31.7491   -0.3059 C   0  0  0  0  0  0  0  0  0  0  0  0
  -87.0746   33.3961   -1.9843 C   0  0  0  0  0  0  0  0  0  0  0  0
  -86.9351   34.1669   -3.0992 C   0  0  0  0  0  0  0  0  0  0  0  0
  -88.0469   34.5579   -3.7286 C   0  0  0  0  0  0  0  0  0  0  0  0
  -89.2442   34.1521   -3.2022 C   0  0  0  0  0  0  0  0  0  0  0  0
  -88.7783   33.2367   -1.8441 S   0  0  0  0  0  0  0  0  0  0  0  0
  -88.0478   35.4023   -4.9590 C   0  0  0  0  0  0  0  0  0  0  0  0
  -87.0139   36.2702   -5.2309 C   0  0  0  0  0  0  0  0  0  0  0  0
  -87.0465   37.0366   -6.3781 C   0  0  0  0  0  0  0  0  0  0  0  0
  -88.1048   36.9493   -7.2661 C   0  0  0  0  0  0  0  0  0  0  0  0
  -89.0802   36.0853   -6.9436 N   0  0  0  0  0  0  0  0  0  0  0  0
  -89.0953   35.3247   -5.8507 C   0  0  0  0  0  0  0  0  0  0  0  0
  -86.1579   28.4822   -0.2681 O   0  0  0  0  0  0  0  0  0  0  0  0
  -86.0204   28.8509    0.9126 C   0  0  0  0  0  0  0  0  0  0  0  0
  -85.6241   30.1181    1.3344 N   0  0  0  0  0  0  0  0  0  0  0  0
  -85.5585   30.2574    2.4099 H   0  0  0  0  0  0  0  0  0  0  0  0
  -86.3282   27.7729    1.9394 C   0  0  0  0  0  0  0  0  0  0  0  0
  -87.8261   27.6159    2.1963 C   0  0  0  0  0  0  0  0  0  0  0  0
  -87.0074   26.5417    1.5152 C   0  0  0  0  0  0  0  0  0  0  0  0
 18 19  2  0  0  0
 19 20  1  0  0  0
 20  1  1  0  0  0
  1  2  2  0  0  0
  2  3  1  0  0  0
  3  4  2  0  0  0
  4  5  1  0  0  0
  5  6  2  0  0  0
  5  7  1  0  0  0
  7  8  2  0  0  0
  8  9  1  0  0  0
  9 10  2  0  0  0
 10 11  1  0  0  0
  9 12  1  0  0  0
 12 13  2  0  0  0
 13 14  1  0  0  0
 14 15  2  0  0  0
 15 16  1  0  0  0
 16 17  2  0  0  0
 19 22  1  0  0  0
 22 23  1  0  0  0
 23 24  1  0  0  0
  6  1  1  0  0  0
 11  7  1  0  0  0
 17 12  1  0  0  0
 24 22  1  0  0  0
 20 21  1  0  0  0
M  END
> <minimizedAffinity>
-7.14777

> <CNNscore>
0.6141743064

> <CNNaffinity>
6.4142928123

> <CNN_VS>
3.9394938946

> <CNNaffinity_variance>
0.0805016309

$$$$
[H]c1nc([H])c(-c2c([H])sc(-c3c([H])nc([H])c(N([H])C(=O)C4([H])C([H])([H])C4([H])[H])c3[H])c2[H])c([H])c1[H]


 24 27  0  0  0  0  0  0  0  0999 V2000
  -90.6921   27.7433    0.7318 C   0  0  0  0  0  0  0  0  0  0  0  0
  -91.5153   27.5435   -0.3384 C   0  0  0  0  0  0  0  0  0  0  0  0
  -91.4885   28.3399   -1.4539 N   0  0  0  0  0  0  0  0  0  0  0  0
  -90.6364   29.3559   -1.5233 C   0  0  0  0  0  0  0  0  0  0  0  0
  -89.7903   29.6004   -0.4793 C   0  0  0  0  0  0  0  0  0  0  0  0
  -89.8076   28.8163    0.6335 C   0  0  0  0  0  0  0  0  0  0  0  0
  -88.8545   30.7440   -0.5964 C   0  0  0  0  0  0  0  0  0  0  0  0
  -87.5102   30.7887   -0.3777 C   0  0  0  0  0  0  0  0  0  0  0  0
  -86.8894   31.9585   -0.5548 C   0  0  0  0  0  0  0  0  0  0  0  0
  -87.6553   33.0250   -0.9436 C   0  0  0  0  0  0  0  0  0  0  0  0
  -89.2189   32.3593   -1.0495 S   0  0  0  0  0  0  0  0  0  0  0  0
  -85.4242   32.1565   -0.3530 C   0  0  0  0  0  0  0  0  0  0  0  0
  -84.6685   31.2405    0.3443 C   0  0  0  0  0  0  0  0  0  0  0  0
  -83.3156   31.4547    0.5124 C   0  0  0  0  0  0  0  0  0  0  0  0
  -82.6997   32.5792   -0.0094 C   0  0  0  0  0  0  0  0  0  0  0  0
  -83.4912   33.4328   -0.6781 N   0  0  0  0  0  0  0  0  0  0  0  0
  -84.7993   33.2716   -0.8674 C   0  0  0  0  0  0  0  0  0  0  0  0
  -91.0792   28.5463    3.5713 O   0  0  0  0  0  0  0  0  0  0  0  0
  -90.8541   27.3780    3.2058 C   0  0  0  0  0  0  0  0  0  0  0  0
  -90.6677   26.9520    1.8926 N   0  0  0  0  0  0  0  0  0  0  0  0
  -90.4813   25.8893    1.7642 H   0  0  0  0  0  0  0  0  0  0  0  0
  -90.7892   26.3730    4.3445 C   0  0  0  0  0  0  0  0  0  0  0  0
  -89.3909   25.7868    4.5325 C   0  0  0  0  0  0  0  0  0  0  0  0
  -90.0271   26.7003    5.5566 C   0  0  0  0  0  0  0  0  0  0  0  0
 18 19  2  0  0  0
 19 20  1  0  0  0
 20  1  1  0  0  0
  1  2  2  0  0  0
  2  3  1  0  0  0
  3  4  2  0  0  0
  4  5  1  0  0  0
  5  6  2  0  0  0
  5  7  1  0  0  0
  7  8  2  0  0  0
  8  9  1  0  0  0
  9 10  2  0  0  0
 10 11  1  0  0  0
  9 12  1  0  0  0
 12 13  2  0  0  0
 13 14  1  0  0  0
 14 15  2  0  0  0
 15 16  1  0  0  0
 16 17  2  0  0  0
 19 22  1  0  0  0
 22 23  1  0  0  0
 23 24  1  0  0  0
  6  1  1  0  0  0
 11  7  1  0  0  0
 17 12  1  0  0  0
 24 22  1  0  0  0
 20 21  1  0  0  0
M  END
> <minimizedAffinity>
-8.02527

> <CNNscore>
0.5752683878

> <CNNaffinity>
6.2606086731

> <CNN_VS>
3.6015303135

> <CNNaffinity_variance>
0.0481394529

$$$$
[H]c1nc([H])c(-c2c([H])sc(-c3c([H])nc([H])c(N([H])C(=O)C4([H])C([H])([H])C4([H])[H])c3[H])c2[H])c([H])c1[H]


 24 27  0  0  0  0  0  0  0  0999 V2000
  -85.1397   27.6794    1.9467 C   0  0  0  0  0  0  0  0  0  0  0  0
  -83.9062   27.5607    2.5188 C   0  0  0  0  0  0  0  0  0  0  0  0
  -82.9436   28.5312    2.4148 N   0  0  0  0  0  0  0  0  0  0  0  0
  -83.1941   29.6438    1.7346 C   0  0  0  0  0  0  0  0  0  0  0  0
  -84.4129   29.8131    1.1418 C   0  0  0  0  0  0  0  0  0  0  0  0
  -85.3767   28.8564    1.2383 C   0  0  0  0  0  0  0  0  0  0  0  0
  -84.6524   31.0691    0.3919 C   0  0  0  0  0  0  0  0  0  0  0  0
  -85.7856   31.5061   -0.2258 C   0  0  0  0  0  0  0  0  0  0  0  0
  -85.7414   32.6911   -0.8416 C   0  0  0  0  0  0  0  0  0  0  0  0
  -84.5565   33.3764   -0.8037 C   0  0  0  0  0  0  0  0  0  0  0  0
  -83.5414   32.3430    0.0915 S   0  0  0  0  0  0  0  0  0  0  0  0
  -86.9030   33.2953   -1.5575 C   0  0  0  0  0  0  0  0  0  0  0  0
  -86.7243   34.2662   -2.5175 C   0  0  0  0  0  0  0  0  0  0  0  0
  -87.8208   34.8039   -3.1604 C   0  0  0  0  0  0  0  0  0  0  0  0
  -89.1043   34.3836   -2.8571 C   0  0  0  0  0  0  0  0  0  0  0  0
  -89.2106   33.4352   -1.9130 N   0  0  0  0  0  0  0  0  0  0  0  0
  -88.1855   32.8856   -1.2648 C   0  0  0  0  0  0  0  0  0  0  0  0
  -88.0894   28.0750    1.9529 O   0  0  0  0  0  0  0  0  0  0  0  0
  -87.5392   26.9615    2.0324 C   0  0  0  0  0  0  0  0  0  0  0  0
  -86.1665   26.7240    2.0320 N   0  0  0  0  0  0  0  0  0  0  0  0
  -85.8688   25.6820    2.1091 H   0  0  0  0  0  0  0  0  0  0  0  0
  -88.5094   25.7958    2.1368 C   0  0  0  0  0  0  0  0  0  0  0  0
  -89.1782   25.7082    3.5076 C   0  0  0  0  0  0  0  0  0  0  0  0
  -89.9492   26.0604    2.2548 C   0  0  0  0  0  0  0  0  0  0  0  0
 18 19  2  0  0  0
 19 20  1  0  0  0
 20  1  1  0  0  0
  1  2  2  0  0  0
  2  3  1  0  0  0
  3  4  2  0  0  0
  4  5  1  0  0  0
  5  6  2  0  0  0
  5  7  1  0  0  0
  7  8  2  0  0  0
  8  9  1  0  0  0
  9 10  2  0  0  0
 10 11  1  0  0  0
  9 12  1  0  0  0
 12 13  2  0  0  0
 13 14  1  0  0  0
 14 15  2  0  0  0
 15 16  1  0  0  0
 16 17  2  0  0  0
 19 22  1  0  0  0
 22 23  1  0  0  0
 23 24  1  0  0  0
  6  1  1  0  0  0
 11  7  1  0  0  0
 17 12  1  0  0  0
 24 22  1  0  0  0
 20 21  1  0  0  0
M  END
> <minimizedAffinity>
-7.98122

> <CNNscore>
0.5716912746

> <CNNaffinity>
6.5925850868

> <CNN_VS>
3.7689232826

> <CNNaffinity_variance>
0.0243511330

$$$$
[H]c1nc([H])c(-c2c([H])sc(-c3c([H])nc([H])c(N([H])C(=O)C4([H])C([H])([H])C4([H])[H])c3[H])c2[H])c([H])c1[H]


 24 27  0  0  0  0  0  0  0  0999 V2000
  -89.2689   32.6055   -2.2472 C   0  0  0  0  0  0  0  0  0  0  0  0
  -89.1366   33.8192   -2.8577 C   0  0  0  0  0  0  0  0  0  0  0  0
  -87.9801   34.5534   -2.8063 N   0  0  0  0  0  0  0  0  0  0  0  0
  -86.9286   34.0891   -2.1415 C   0  0  0  0  0  0  0  0  0  0  0  0
  -87.0077   32.8796   -1.5120 C   0  0  0  0  0  0  0  0  0  0  0  0
  -88.1507   32.1414   -1.5562 C   0  0  0  0  0  0  0  0  0  0  0  0
  -85.8118   32.3971   -0.7810 C   0  0  0  0  0  0  0  0  0  0  0  0
  -85.6355   31.2461   -0.0732 C   0  0  0  0  0  0  0  0  0  0  0  0
  -84.4455   31.0439    0.4999 C   0  0  0  0  0  0  0  0  0  0  0  0
  -83.4926   32.0126    0.3306 C   0  0  0  0  0  0  0  0  0  0  0  0
  -84.2896   33.1756   -0.6243 S   0  0  0  0  0  0  0  0  0  0  0  0
  -84.1092   29.8321    1.3030 C   0  0  0  0  0  0  0  0  0  0  0  0
  -82.8080   29.5412    1.6471 C   0  0  0  0  0  0  0  0  0  0  0  0
  -82.5321   28.4119    2.3908 C   0  0  0  0  0  0  0  0  0  0  0  0
  -83.5441   27.5608    2.8001 C   0  0  0  0  0  0  0  0  0  0  0  0
  -84.7898   27.9002    2.4325 N   0  0  0  0  0  0  0  0  0  0  0  0
  -85.1074   28.9771    1.7166 C   0  0  0  0  0  0  0  0  0  0  0  0
  -89.8602   30.2083   -3.9088 O   0  0  0  0  0  0  0  0  0  0  0  0
  -90.6534   30.6895   -3.0792 C   0  0  0  0  0  0  0  0  0  0  0  0
  -90.4238   31.8060   -2.2782 N   0  0  0  0  0  0  0  0  0  0  0  0
  -91.2349   32.0807   -1.6095 H   0  0  0  0  0  0  0  0  0  0  0  0
  -91.9747   29.9444   -2.9792 C   0  0  0  0  0  0  0  0  0  0  0  0
  -91.7917   28.4646   -2.6467 C   0  0  0  0  0  0  0  0  0  0  0  0
  -92.4234   29.4375   -1.6759 C   0  0  0  0  0  0  0  0  0  0  0  0
 18 19  2  0  0  0
 19 20  1  0  0  0
 20  1  1  0  0  0
  1  2  2  0  0  0
  2  3  1  0  0  0
  3  4  2  0  0  0
  4  5  1  0  0  0
  5  6  2  0  0  0
  5  7  1  0  0  0
  7  8  2  0  0  0
  8  9  1  0  0  0
  9 10  2  0  0  0
 10 11  1  0  0  0
  9 12  1  0  0  0
 12 13  2  0  0  0
 13 14  1  0  0  0
 14 15  2  0  0  0
 15 16  1  0  0  0
 16 17  2  0  0  0
 19 22  1  0  0  0
 22 23  1  0  0  0
 23 24  1  0  0  0
  6  1  1  0  0  0
 11  7  1  0  0  0
 17 12  1  0  0  0
 24 22  1  0  0  0
 20 21  1  0  0  0
M  END
> <minimizedAffinity>
-8.20981

> <CNNscore>
0.5576561689

> <CNNaffinity>
6.4731955528

> <CNN_VS>
3.6098175049

> <CNNaffinity_variance>
0.0567790493

$$$$
[H]c1nc([H])c(-c2c([H])sc(-c3c([H])nc([H])c(N([H])C(=O)C4([H])C([H])([H])C4([H])[H])c3[H])c2[H])c([H])c1[H]


 24 27  0  0  0  0  0  0  0  0999 V2000
  -85.2022   31.6294    0.2636 C   0  0  0  0  0  0  0  0  0  0  0  0
  -84.1536   32.4640    0.0049 C   0  0  0  0  0  0  0  0  0  0  0  0
  -84.2088   33.4529   -0.9428 N   0  0  0  0  0  0  0  0  0  0  0  0
  -85.3160   33.6289   -1.6543 C   0  0  0  0  0  0  0  0  0  0  0  0
  -86.3950   32.8205   -1.4356 C   0  0  0  0  0  0  0  0  0  0  0  0
  -86.3521   31.8352   -0.4971 C   0  0  0  0  0  0  0  0  0  0  0  0
  -87.6117   33.0498   -2.2507 C   0  0  0  0  0  0  0  0  0  0  0  0
  -88.5524   32.1585   -2.6720 C   0  0  0  0  0  0  0  0  0  0  0  0
  -89.5671   32.6248   -3.4057 C   0  0  0  0  0  0  0  0  0  0  0  0
  -89.5825   33.9667   -3.6779 C   0  0  0  0  0  0  0  0  0  0  0  0
  -88.1784   34.5347   -2.8999 S   0  0  0  0  0  0  0  0  0  0  0  0
  -90.6680   31.7675   -3.9347 C   0  0  0  0  0  0  0  0  0  0  0  0
  -90.8324   30.4695   -3.5051 C   0  0  0  0  0  0  0  0  0  0  0  0
  -91.8614   29.7043   -4.0152 C   0  0  0  0  0  0  0  0  0  0  0  0
  -92.7367   30.2192   -4.9558 C   0  0  0  0  0  0  0  0  0  0  0  0
  -92.5225   31.4897   -5.3327 N   0  0  0  0  0  0  0  0  0  0  0  0
  -91.5458   32.2683   -4.8712 C   0  0  0  0  0  0  0  0  0  0  0  0
  -82.9247   30.0488    1.3462 O   0  0  0  0  0  0  0  0  0  0  0  0
  -84.1068   29.8960    1.7043 C   0  0  0  0  0  0  0  0  0  0  0  0
  -85.2053   30.6097    1.2303 N   0  0  0  0  0  0  0  0  0  0  0  0
  -86.1650   30.3378    1.6609 H   0  0  0  0  0  0  0  0  0  0  0  0
  -84.3018   28.8169    2.7572 C   0  0  0  0  0  0  0  0  0  0  0  0
  -84.7956   27.4985    2.1637 C   0  0  0  0  0  0  0  0  0  0  0  0
  -83.4159   27.6455    2.7662 C   0  0  0  0  0  0  0  0  0  0  0  0
 18 19  2  0  0  0
 19 20  1  0  0  0
 20  1  1  0  0  0
  1  2  2  0  0  0
  2  3  1  0  0  0
  3  4  2  0  0  0
  4  5  1  0  0  0
  5  6  2  0  0  0
  5  7  1  0  0  0
  7  8  2  0  0  0
  8  9  1  0  0  0
  9 10  2  0  0  0
 10 11  1  0  0  0
  9 12  1  0  0  0
 12 13  2  0  0  0
 13 14  1  0  0  0
 14 15  2  0  0  0
 15 16  1  0  0  0
 16 17  2  0  0  0
 19 22  1  0  0  0
 22 23  1  0  0  0
 23 24  1  0  0  0
  6  1  1  0  0  0
 11  7  1  0  0  0
 17 12  1  0  0  0
 24 22  1  0  0  0
 20 21  1  0  0  0
M  END
> <minimizedAffinity>
-7.28262

> <CNNscore>
0.3305394053

> <CNNaffinity>
6.0966796875

> <CNN_VS>
2.0151929855

> <CNNaffinity_variance>
0.1577894688

$$$$
[H]c1nc([H])c(-c2c([H])sc(-c3c([H])nc([H])c(N([H])C(=O)C4([H])C([H])([H])C4([H])[H])c3[H])c2[H])c([H])c1[H]


 24 27  0  0  0  0  0  0  0  0999 V2000
  -85.4821   33.0429   -0.7784 C   0  0  0  0  0  0  0  0  0  0  0  0
  -84.1552   33.3627   -0.7939 C   0  0  0  0  0  0  0  0  0  0  0  0
  -83.1848   32.5267   -0.3054 N   0  0  0  0  0  0  0  0  0  0  0  0
  -83.5209   31.3503    0.2106 C   0  0  0  0  0  0  0  0  0  0  0  0
  -84.8353   30.9811    0.2509 C   0  0  0  0  0  0  0  0  0  0  0  0
  -85.8078   31.8028   -0.2312 C   0  0  0  0  0  0  0  0  0  0  0  0
  -85.1684   29.6599    0.8348 C   0  0  0  0  0  0  0  0  0  0  0  0
  -86.2865   28.8983    0.6718 C   0  0  0  0  0  0  0  0  0  0  0  0
  -86.3430   27.7297    1.3170 C   0  0  0  0  0  0  0  0  0  0  0  0
  -85.2690   27.3873    2.0945 C   0  0  0  0  0  0  0  0  0  0  0  0
  -84.2140   28.7095    1.8993 S   0  0  0  0  0  0  0  0  0  0  0  0
  -87.5017   26.7931    1.2326 C   0  0  0  0  0  0  0  0  0  0  0  0
  -87.8079   26.1388    0.0603 C   0  0  0  0  0  0  0  0  0  0  0  0
  -88.8868   25.2793    0.0172 C   0  0  0  0  0  0  0  0  0  0  0  0
  -89.6719   25.0610    1.1361 C   0  0  0  0  0  0  0  0  0  0  0  0
  -89.3208   25.7285    2.2467 N   0  0  0  0  0  0  0  0  0  0  0  0
  -88.2908   26.5672    2.3393 C   0  0  0  0  0  0  0  0  0  0  0  0
  -86.9160   32.8864   -3.3816 O   0  0  0  0  0  0  0  0  0  0  0  0
  -87.1559   33.7400   -2.5082 C   0  0  0  0  0  0  0  0  0  0  0  0
  -86.5157   33.8541   -1.2762 N   0  0  0  0  0  0  0  0  0  0  0  0
  -86.8600   34.6644   -0.6397 H   0  0  0  0  0  0  0  0  0  0  0  0
  -88.2589   34.7173   -2.8818 C   0  0  0  0  0  0  0  0  0  0  0  0
  -87.7178   36.0109   -3.4884 C   0  0  0  0  0  0  0  0  0  0  0  0
  -88.5158   35.0125   -4.2974 C   0  0  0  0  0  0  0  0  0  0  0  0
 18 19  2  0  0  0
 19 20  1  0  0  0
 20  1  1  0  0  0
  1  2  2  0  0  0
  2  3  1  0  0  0
  3  4  2  0  0  0
  4  5  1  0  0  0
  5  6  2  0  0  0
  5  7  1  0  0  0
  7  8  2  0  0  0
  8  9  1  0  0  0
  9 10  2  0  0  0
 10 11  1  0  0  0
  9 12  1  0  0  0
 12 13  2  0  0  0
 13 14  1  0  0  0
 14 15  2  0  0  0
 15 16  1  0  0  0
 16 17  2  0  0  0
 19 22  1  0  0  0
 22 23  1  0  0  0
 23 24  1  0  0  0
  6  1  1  0  0  0
 11  7  1  0  0  0
 17 12  1  0  0  0
 24 22  1  0  0  0
 20 21  1  0  0  0
M  END
> <minimizedAffinity>
-7.60861

> <CNNscore>
0.3020181060

> <CNNaffinity>
6.4207115173

> <CNN_VS>
1.9391710758

> <CNNaffinity_variance>
0.1543749869

$$$$
[H]c1nc([H])c(-c2c([H])sc(-c3c([H])nc([H])c(N([H])C(=O)C4([H])C([H])([H])C4([H])[H])c3[H])c2[H])c([H])c1[H]


 24 27  0  0  0  0  0  0  0  0999 V2000
  -89.4480   33.3743   -2.9058 C   0  0  0  0  0  0  0  0  0  0  0  0
  -90.0403   32.2104   -3.3029 C   0  0  0  0  0  0  0  0  0  0  0  0
  -89.5784   30.9763   -2.9247 N   0  0  0  0  0  0  0  0  0  0  0  0
  -88.5117   30.8791   -2.1399 C   0  0  0  0  0  0  0  0  0  0  0  0
  -87.8808   32.0132   -1.7142 C   0  0  0  0  0  0  0  0  0  0  0  0
  -88.3303   33.2442   -2.0829 C   0  0  0  0  0  0  0  0  0  0  0  0
  -86.6938   31.8613   -0.8393 C   0  0  0  0  0  0  0  0  0  0  0  0
  -86.2288   30.7542   -0.1952 C   0  0  0  0  0  0  0  0  0  0  0  0
  -85.1224   30.8823    0.5428 C   0  0  0  0  0  0  0  0  0  0  0  0
  -84.5401   32.1206    0.5947 C   0  0  0  0  0  0  0  0  0  0  0  0
  -85.5572   33.0670   -0.3899 S   0  0  0  0  0  0  0  0  0  0  0  0
  -84.4994   29.7586    1.3018 C   0  0  0  0  0  0  0  0  0  0  0  0
  -83.1434   29.7209    1.5381 C   0  0  0  0  0  0  0  0  0  0  0  0
  -82.6000   28.6666    2.2436 C   0  0  0  0  0  0  0  0  0  0  0  0
  -83.3964   27.6401    2.7212 C   0  0  0  0  0  0  0  0  0  0  0  0
  -84.7092   27.7359    2.4575 N   0  0  0  0  0  0  0  0  0  0  0  0
  -85.2813   28.7309    1.7824 C   0  0  0  0  0  0  0  0  0  0  0  0
  -88.4354   35.2065   -5.0212 O   0  0  0  0  0  0  0  0  0  0  0  0
  -89.3751   35.4853   -4.2542 C   0  0  0  0  0  0  0  0  0  0  0  0
  -89.8858   34.6638   -3.2517 N   0  0  0  0  0  0  0  0  0  0  0  0
  -90.7116   35.0771   -2.6793 H   0  0  0  0  0  0  0  0  0  0  0  0
  -89.9766   36.8623   -4.4847 C   0  0  0  0  0  0  0  0  0  0  0  0
  -91.1511   36.8350   -5.4615 C   0  0  0  0  0  0  0  0  0  0  0  0
  -91.3298   37.1529   -3.9935 C   0  0  0  0  0  0  0  0  0  0  0  0
 18 19  2  0  0  0
 19 20  1  0  0  0
 20  1  1  0  0  0
  1  2  2  0  0  0
  2  3  1  0  0  0
  3  4  2  0  0  0
  4  5  1  0  0  0
  5  6  2  0  0  0
  5  7  1  0  0  0
  7  8  2  0  0  0
  8  9  1  0  0  0
  9 10  2  0  0  0
 10 11  1  0  0  0
  9 12  1  0  0  0
 12 13  2  0  0  0
 13 14  1  0  0  0
 14 15  2  0  0  0
 15 16  1  0  0  0
 16 17  2  0  0  0
 19 22  1  0  0  0
 22 23  1  0  0  0
 23 24  1  0  0  0
  6  1  1  0  0  0
 11  7  1  0  0  0
 17 12  1  0  0  0
 24 22  1  0  0  0
 20 21  1  0  0  0
M  END
> <minimizedAffinity>
-7.90471

> <CNNscore>
0.2488909960

> <CNNaffinity>
6.0404257774

> <CNN_VS>
1.5034075975

> <CNNaffinity_variance>
0.1007359847

$$$$
[H]c1sc(-c2c([H])c([H])c3c(c2[H])C([H])([H])C([H])([H])O3)nc1C(=O)N([H])c1nnc(N2C([H])([H])C([H])([H])C([H])([H])C([H])([H])C2([H])[H])s1


 29 33  0  0  0  0  0  0  0  0999 V2000
  -90.4461   27.0523   -1.4669 O   0  0  0  0  0  0  0  0  0  0  0  0
  -89.9687   26.4051   -0.5017 C   0  0  0  0  0  0  0  0  0  0  0  0
  -90.6008   25.2490   -0.0353 N   0  0  0  0  0  0  0  0  0  0  0  0
  -90.2222   24.6968    0.7640 H   0  0  0  0  0  0  0  0  0  0  0  0
  -91.8111   24.8220   -0.6908 C   0  0  0  0  0  0  0  0  0  0  0  0
  -93.0496   24.8042   -0.2140 N   0  0  0  0  0  0  0  0  0  0  0  0
  -93.9990   24.3943   -0.9333 N   0  0  0  0  0  0  0  0  0  0  0  0
  -93.7662   23.9769   -2.1751 C   0  0  0  0  0  0  0  0  0  0  0  0
  -92.0582   24.2086   -2.2657 S   0  0  0  0  0  0  0  0  0  0  0  0
  -94.6738   23.4811   -3.1473 N   0  0  0  0  0  0  0  0  0  0  0  0
  -95.7860   22.6638   -2.7492 C   0  0  0  0  0  0  0  0  0  0  0  0
  -95.7150   21.3248   -3.4268 C   0  0  0  0  0  0  0  0  0  0  0  0
  -95.2564   21.4433   -4.8422 C   0  0  0  0  0  0  0  0  0  0  0  0
  -95.3006   22.8355   -5.3946 C   0  0  0  0  0  0  0  0  0  0  0  0
  -94.4819   23.7958   -4.5348 C   0  0  0  0  0  0  0  0  0  0  0  0
  -88.7183   26.8531    0.1695 C   0  0  0  0  0  0  0  0  0  0  0  0
  -88.1151   26.0492    1.1102 C   0  0  0  0  0  0  0  0  0  0  0  0
  -86.7642   26.9946    1.5564 S   0  0  0  0  0  0  0  0  0  0  0  0
  -87.0430   28.3328    0.5372 C   0  0  0  0  0  0  0  0  0  0  0  0
  -88.1530   27.9874   -0.0904 N   0  0  0  0  0  0  0  0  0  0  0  0
  -86.2331   29.5556    0.4078 C   0  0  0  0  0  0  0  0  0  0  0  0
  -86.7322   30.7184   -0.1258 C   0  0  0  0  0  0  0  0  0  0  0  0
  -85.9127   31.8466   -0.2217 C   0  0  0  0  0  0  0  0  0  0  0  0
  -84.6116   31.8061    0.2121 C   0  0  0  0  0  0  0  0  0  0  0  0
  -83.6197   32.7822    0.2200 O   0  0  0  0  0  0  0  0  0  0  0  0
  -82.3497   32.1280    0.2845 C   0  0  0  0  0  0  0  0  0  0  0  0
  -82.6959   30.9206    1.1194 C   0  0  0  0  0  0  0  0  0  0  0  0
  -84.1023   30.6462    0.7482 C   0  0  0  0  0  0  0  0  0  0  0  0
  -84.9290   29.5297    0.8381 C   0  0  0  0  0  0  0  0  0  0  0  0
  1  2  2  0  0  0
  2  3  1  0  0  0
  3  5  1  0  0  0
  5  6  2  0  0  0
  6  7  1  0  0  0
  7  8  2  0  0  0
  8  9  1  0  0  0
  8 10  1  0  0  0
 10 11  1  0  0  0
 11 12  1  0  0  0
 12 13  1  0  0  0
 13 14  1  0  0  0
 14 15  1  0  0  0
  2 16  1  0  0  0
 16 17  2  0  0  0
 17 18  1  0  0  0
 18 19  1  0  0  0
 19 20  2  0  0  0
 19 21  1  0  0  0
 21 22  2  0  0  0
 22 23  1  0  0  0
 23 24  2  0  0  0
 24 25  1  0  0  0
 25 26  1  0  0  0
 26 27  1  0  0  0
 27 28  1  0  0  0
 28 29  2  0  0  0
  9  5  1  0  0  0
 15 10  1  0  0  0
 20 16  1  0  0  0
 29 21  1  0  0  0
 28 24  1  0  0  0
  3  4  1  0  0  0
M  END
> <minimizedAffinity>
-6.97160

> <CNNscore>
0.1160054281

> <CNNaffinity>
5.6317000389

> <CNN_VS>
0.6533077955

> <CNNaffinity_variance>
0.4907575250

$$$$
[H]c1sc(-c2c([H])c([H])c3c(c2[H])C([H])([H])C([H])([H])O3)nc1C(=O)N([H])c1nnc(N2C([H])([H])C([H])([H])C([H])([H])C([H])([H])C2([H])[H])s1


 29 33  0  0  0  0  0  0  0  0999 V2000
  -91.4344   32.1533   -3.3637 O   0  0  0  0  0  0  0  0  0  0  0  0
  -90.3516   31.6188   -3.0171 C   0  0  0  0  0  0  0  0  0  0  0  0
  -90.2405   30.2289   -2.9207 N   0  0  0  0  0  0  0  0  0  0  0  0
  -89.3518   29.7643   -2.6350 H   0  0  0  0  0  0  0  0  0  0  0  0
  -91.3992   29.4293   -3.2291 C   0  0  0  0  0  0  0  0  0  0  0  0
  -92.1780   28.7449   -2.4006 N   0  0  0  0  0  0  0  0  0  0  0  0
  -93.1596   28.0938   -2.8470 N   0  0  0  0  0  0  0  0  0  0  0  0
  -93.4216   28.0881   -4.1516 C   0  0  0  0  0  0  0  0  0  0  0  0
  -92.1465   29.0981   -4.7289 S   0  0  0  0  0  0  0  0  0  0  0  0
  -94.4608   27.4325   -4.8621 N   0  0  0  0  0  0  0  0  0  0  0  0
  -95.0462   26.2286   -4.3412 C   0  0  0  0  0  0  0  0  0  0  0  0
  -94.8765   25.1026   -5.3212 C   0  0  0  0  0  0  0  0  0  0  0  0
  -95.0689   25.5592   -6.7291 C   0  0  0  0  0  0  0  0  0  0  0  0
  -95.7171   26.9036   -6.8626 C   0  0  0  0  0  0  0  0  0  0  0  0
  -94.9305   27.9721   -6.1067 C   0  0  0  0  0  0  0  0  0  0  0  0
  -89.1598   32.4520   -2.7004 C   0  0  0  0  0  0  0  0  0  0  0  0
  -89.0870   33.7504   -3.1520 C   0  0  0  0  0  0  0  0  0  0  0  0
  -87.5724   34.2451   -2.5365 S   0  0  0  0  0  0  0  0  0  0  0  0
  -87.1302   32.7956   -1.7551 C   0  0  0  0  0  0  0  0  0  0  0  0
  -88.1624   32.0099   -2.0052 N   0  0  0  0  0  0  0  0  0  0  0  0
  -85.8993   32.5156   -0.9973 C   0  0  0  0  0  0  0  0  0  0  0  0
  -84.7611   33.2721   -1.1322 C   0  0  0  0  0  0  0  0  0  0  0  0
  -83.6237   32.9555   -0.3843 C   0  0  0  0  0  0  0  0  0  0  0  0
  -83.6305   31.8945    0.4859 C   0  0  0  0  0  0  0  0  0  0  0  0
  -82.6388   31.3925    1.3233 O   0  0  0  0  0  0  0  0  0  0  0  0
  -82.9531   30.0294    1.6205 C   0  0  0  0  0  0  0  0  0  0  0  0
  -84.4604   30.0819    1.6274 C   0  0  0  0  0  0  0  0  0  0  0  0
  -84.7656   31.1308    0.6283 C   0  0  0  0  0  0  0  0  0  0  0  0
  -85.8917   31.4567   -0.1225 C   0  0  0  0  0  0  0  0  0  0  0  0
  1  2  2  0  0  0
  2  3  1  0  0  0
  3  5  1  0  0  0
  5  6  2  0  0  0
  6  7  1  0  0  0
  7  8  2  0  0  0
  8  9  1  0  0  0
  8 10  1  0  0  0
 10 11  1  0  0  0
 11 12  1  0  0  0
 12 13  1  0  0  0
 13 14  1  0  0  0
 14 15  1  0  0  0
  2 16  1  0  0  0
 16 17  2  0  0  0
 17 18  1  0  0  0
 18 19  1  0  0  0
 19 20  2  0  0  0
 19 21  1  0  0  0
 21 22  2  0  0  0
 22 23  1  0  0  0
 23 24  2  0  0  0
 24 25  1  0  0  0
 25 26  1  0  0  0
 26 27  1  0  0  0
 27 28  1  0  0  0
 28 29  2  0  0  0
  9  5  1  0  0  0
 15 10  1  0  0  0
 20 16  1  0  0  0
 29 21  1  0  0  0
 28 24  1  0  0  0
  3  4  1  0  0  0
M  END
> <minimizedAffinity>
-7.17540

> <CNNscore>
0.1035708040

> <CNNaffinity>
5.5417771339

> <CNN_VS>
0.5739663243

> <CNNaffinity_variance>
0.1942130625

$$$$
[H]c1sc(-c2c([H])c([H])c3c(c2[H])C([H])([H])C([H])([H])O3)nc1C(=O)N([H])c1nnc(N2C([H])([H])C([H])([H])C([H])([H])C([H])([H])C2([H])[H])s1


 29 33  0  0  0  0  0  0  0  0999 V2000
  -89.9636   29.5811   -3.1156 O   0  0  0  0  0  0  0  0  0  0  0  0
  -91.1113   30.0914   -3.0877 C   0  0  0  0  0  0  0  0  0  0  0  0
  -92.0137   29.7634   -2.0719 N   0  0  0  0  0  0  0  0  0  0  0  0
  -92.9709   30.1748   -2.0294 H   0  0  0  0  0  0  0  0  0  0  0  0
  -91.5917   28.8266   -1.0613 C   0  0  0  0  0  0  0  0  0  0  0  0
  -91.6419   27.5007   -1.0879 N   0  0  0  0  0  0  0  0  0  0  0  0
  -91.2246   26.8316   -0.1055 N   0  0  0  0  0  0  0  0  0  0  0  0
  -90.7313   27.4498    0.9644 C   0  0  0  0  0  0  0  0  0  0  0  0
  -90.9002   29.0969    0.4770 S   0  0  0  0  0  0  0  0  0  0  0  0
  -90.2130   26.9013    2.1666 N   0  0  0  0  0  0  0  0  0  0  0  0
  -89.8134   25.5225    2.2201 C   0  0  0  0  0  0  0  0  0  0  0  0
  -90.5994   24.7947    3.2735 C   0  0  0  0  0  0  0  0  0  0  0  0
  -90.8013   25.6324    4.4923 C   0  0  0  0  0  0  0  0  0  0  0  0
  -89.9180   26.8405    4.5686 C   0  0  0  0  0  0  0  0  0  0  0  0
  -90.0866   27.7252    3.3355 C   0  0  0  0  0  0  0  0  0  0  0  0
  -91.5390   31.0580   -4.1353 C   0  0  0  0  0  0  0  0  0  0  0  0
  -92.7821   30.9407   -4.7149 C   0  0  0  0  0  0  0  0  0  0  0  0
  -92.7752   32.2488   -5.8133 S   0  0  0  0  0  0  0  0  0  0  0  0
  -91.2182   32.8560   -5.4752 C   0  0  0  0  0  0  0  0  0  0  0  0
  -90.7853   32.0279   -4.5413 N   0  0  0  0  0  0  0  0  0  0  0  0
  -90.5472   34.0157   -6.0859 C   0  0  0  0  0  0  0  0  0  0  0  0
  -91.0500   34.6638   -7.1872 C   0  0  0  0  0  0  0  0  0  0  0  0
  -90.3661   35.7596   -7.7209 C   0  0  0  0  0  0  0  0  0  0  0  0
  -89.1945   36.1968   -7.1560 C   0  0  0  0  0  0  0  0  0  0  0  0
  -88.3483   37.2460   -7.5022 O   0  0  0  0  0  0  0  0  0  0  0  0
  -87.0555   36.9768   -6.9533 C   0  0  0  0  0  0  0  0  0  0  0  0
  -87.4321   36.2553   -5.6836 C   0  0  0  0  0  0  0  0  0  0  0  0
  -88.6827   35.5545   -6.0525 C   0  0  0  0  0  0  0  0  0  0  0  0
  -89.3738   34.4644   -5.5308 C   0  0  0  0  0  0  0  0  0  0  0  0
  1  2  2  0  0  0
  2  3  1  0  0  0
  3  5  1  0  0  0
  5  6  2  0  0  0
  6  7  1  0  0  0
  7  8  2  0  0  0
  8  9  1  0  0  0
  8 10  1  0  0  0
 10 11  1  0  0  0
 11 12  1  0  0  0
 12 13  1  0  0  0
 13 14  1  0  0  0
 14 15  1  0  0  0
  2 16  1  0  0  0
 16 17  2  0  0  0
 17 18  1  0  0  0
 18 19  1  0  0  0
 19 20  2  0  0  0
 19 21  1  0  0  0
 21 22  2  0  0  0
 22 23  1  0  0  0
 23 24  2  0  0  0
 24 25  1  0  0  0
 25 26  1  0  0  0
 26 27  1  0  0  0
 27 28  1  0  0  0
 28 29  2  0  0  0
  9  5  1  0  0  0
 15 10  1  0  0  0
 20 16  1  0  0  0
 29 21  1  0  0  0
 28 24  1  0  0  0
  3  4  1  0  0  0
M  END
> <minimizedAffinity>
-6.72716

> <CNNscore>
0.0883358866

> <CNNaffinity>
5.1278691292

> <CNN_VS>
0.4529748559

> <CNNaffinity_variance>
0.2315621078

$$$$
[H]c1sc(-c2c([H])c([H])c3c(c2[H])C([H])([H])C([H])([H])O3)nc1C(=O)N([H])c1nnc(N2C([H])([H])C([H])([H])C([H])([H])C([H])([H])C2([H])[H])s1


 29 33  0  0  0  0  0  0  0  0999 V2000
  -89.4773   30.3681   -3.5670 O   0  0  0  0  0  0  0  0  0  0  0  0
  -90.2522   31.3327   -3.3497 C   0  0  0  0  0  0  0  0  0  0  0  0
  -91.1638   31.2913   -2.2909 N   0  0  0  0  0  0  0  0  0  0  0  0
  -91.8160   32.0804   -2.0925 H   0  0  0  0  0  0  0  0  0  0  0  0
  -91.1891   30.1151   -1.4587 C   0  0  0  0  0  0  0  0  0  0  0  0
  -91.8575   28.9835   -1.6437 N   0  0  0  0  0  0  0  0  0  0  0  0
  -91.7625   28.0479   -0.8056 N   0  0  0  0  0  0  0  0  0  0  0  0
  -90.9920   28.1883    0.2700 C   0  0  0  0  0  0  0  0  0  0  0  0
  -90.3876   29.7845    0.0130 S   0  0  0  0  0  0  0  0  0  0  0  0
  -90.7419   27.2761    1.3283 N   0  0  0  0  0  0  0  0  0  0  0  0
  -90.6436   27.7469    2.6819 C   0  0  0  0  0  0  0  0  0  0  0  0
  -89.2986   27.4015    3.2553 C   0  0  0  0  0  0  0  0  0  0  0  0
  -88.8465   26.0442    2.8299 C   0  0  0  0  0  0  0  0  0  0  0  0
  -89.9249   25.1874    2.2395 C   0  0  0  0  0  0  0  0  0  0  0  0
  -90.5859   25.8768    1.0480 C   0  0  0  0  0  0  0  0  0  0  0  0
  -90.2194   32.5438   -4.2141 C   0  0  0  0  0  0  0  0  0  0  0  0
  -91.1143   32.6740   -5.2520 C   0  0  0  0  0  0  0  0  0  0  0  0
  -90.6668   34.1877   -5.9050 S   0  0  0  0  0  0  0  0  0  0  0  0
  -89.3902   34.5576   -4.8370 C   0  0  0  0  0  0  0  0  0  0  0  0
  -89.3727   33.5059   -4.0378 N   0  0  0  0  0  0  0  0  0  0  0  0
  -88.5363   35.7570   -4.8290 C   0  0  0  0  0  0  0  0  0  0  0  0
  -87.5512   35.9680   -5.7622 C   0  0  0  0  0  0  0  0  0  0  0  0
  -86.7732   37.1275   -5.7013 C   0  0  0  0  0  0  0  0  0  0  0  0
  -86.9826   38.0605   -4.7171 C   0  0  0  0  0  0  0  0  0  0  0  0
  -86.3475   39.2706   -4.4545 O   0  0  0  0  0  0  0  0  0  0  0  0
  -86.5677   39.6018   -3.0809 C   0  0  0  0  0  0  0  0  0  0  0  0
  -87.9458   39.0267   -2.8689 C   0  0  0  0  0  0  0  0  0  0  0  0
  -87.9669   37.8585   -3.7778 C   0  0  0  0  0  0  0  0  0  0  0  0
  -88.7347   36.6995   -3.8497 C   0  0  0  0  0  0  0  0  0  0  0  0
  1  2  2  0  0  0
  2  3  1  0  0  0
  3  5  1  0  0  0
  5  6  2  0  0  0
  6  7  1  0  0  0
  7  8  2  0  0  0
  8  9  1  0  0  0
  8 10  1  0  0  0
 10 11  1  0  0  0
 11 12  1  0  0  0
 12 13  1  0  0  0
 13 14  1  0  0  0
 14 15  1  0  0  0
  2 16  1  0  0  0
 16 17  2  0  0  0
 17 18  1  0  0  0
 18 19  1  0  0  0
 19 20  2  0  0  0
 19 21  1  0  0  0
 21 22  2  0  0  0
 22 23  1  0  0  0
 23 24  2  0  0  0
 24 25  1  0  0  0
 25 26  1  0  0  0
 26 27  1  0  0  0
 27 28  1  0  0  0
 28 29  2  0  0  0
  9  5  1  0  0  0
 15 10  1  0  0  0
 20 16  1  0  0  0
 29 21  1  0  0  0
 28 24  1  0  0  0
  3  4  1  0  0  0
M  END
> <minimizedAffinity>
-6.64378

> <CNNscore>
0.0755922422

> <CNNaffinity>
5.2010664940

> <CNN_VS>
0.3931602836

> <CNNaffinity_variance>
0.0901092067

$$$$
[H]c1sc(-c2c([H])c([H])c3c(c2[H])C([H])([H])C([H])([H])O3)nc1C(=O)N([H])c1nnc(N2C([H])([H])C([H])([H])C([H])([H])C([H])([H])C2([H])[H])s1


 29 33  0  0  0  0  0  0  0  0999 V2000
  -88.1867   31.7187   -3.0511 O   0  0  0  0  0  0  0  0  0  0  0  0
  -89.3115   31.9119   -2.5261 C   0  0  0  0  0  0  0  0  0  0  0  0
  -89.8915   33.1836   -2.5290 N   0  0  0  0  0  0  0  0  0  0  0  0
  -90.8238   33.3664   -2.0992 H   0  0  0  0  0  0  0  0  0  0  0  0
  -89.1651   34.2628   -3.1492 C   0  0  0  0  0  0  0  0  0  0  0  0
  -88.0290   34.8279   -2.7604 N   0  0  0  0  0  0  0  0  0  0  0  0
  -87.5294   35.7708   -3.4298 N   0  0  0  0  0  0  0  0  0  0  0  0
  -88.1375   36.2059   -4.5305 C   0  0  0  0  0  0  0  0  0  0  0  0
  -89.5103   35.1602   -4.5610 S   0  0  0  0  0  0  0  0  0  0  0  0
  -87.7575   37.2411   -5.4242 N   0  0  0  0  0  0  0  0  0  0  0  0
  -88.7564   37.9661   -6.1590 C   0  0  0  0  0  0  0  0  0  0  0  0
  -88.5223   37.8206   -7.6359 C   0  0  0  0  0  0  0  0  0  0  0  0
  -87.0692   37.8656   -7.9739 C   0  0  0  0  0  0  0  0  0  0  0  0
  -86.1918   38.3833   -6.8749 C   0  0  0  0  0  0  0  0  0  0  0  0
  -86.3700   37.5668   -5.5968 C   0  0  0  0  0  0  0  0  0  0  0  0
  -90.0549   30.7917   -1.8878 C   0  0  0  0  0  0  0  0  0  0  0  0
  -91.3386   30.4991   -2.2897 C   0  0  0  0  0  0  0  0  0  0  0  0
  -91.7233   29.1769   -1.2789 S   0  0  0  0  0  0  0  0  0  0  0  0
  -90.2535   29.0775   -0.4205 C   0  0  0  0  0  0  0  0  0  0  0  0
  -89.5461   30.0591   -0.9507 N   0  0  0  0  0  0  0  0  0  0  0  0
  -89.8890   28.1255    0.6420 C   0  0  0  0  0  0  0  0  0  0  0  0
  -88.9722   27.1211    0.4504 C   0  0  0  0  0  0  0  0  0  0  0  0
  -88.6684   26.2485    1.4991 C   0  0  0  0  0  0  0  0  0  0  0  0
  -89.2772   26.3836    2.7214 C   0  0  0  0  0  0  0  0  0  0  0  0
  -89.1416   25.6501    3.8963 O   0  0  0  0  0  0  0  0  0  0  0  0
  -90.3178   25.8488    4.6850 C   0  0  0  0  0  0  0  0  0  0  0  0
  -90.6637   27.2716    4.3234 C   0  0  0  0  0  0  0  0  0  0  0  0
  -90.1967   27.3864    2.9233 C   0  0  0  0  0  0  0  0  0  0  0  0
  -90.4904   28.2488    1.8706 C   0  0  0  0  0  0  0  0  0  0  0  0
  1  2  2  0  0  0
  2  3  1  0  0  0
  3  5  1  0  0  0
  5  6  2  0  0  0
  6  7  1  0  0  0
  7  8  2  0  0  0
  8  9  1  0  0  0
  8 10  1  0  0  0
 10 11  1  0  0  0
 11 12  1  0  0  0
 12 13  1  0  0  0
 13 14  1  0  0  0
 14 15  1  0  0  0
  2 16  1  0  0  0
 16 17  2  0  0  0
 17 18  1  0  0  0
 18 19  1  0  0  0
 19 20  2  0  0  0
 19 21  1  0  0  0
 21 22  2  0  0  0
 22 23  1  0  0  0
 23 24  2  0  0  0
 24 25  1  0  0  0
 25 26  1  0  0  0
 26 27  1  0  0  0
 27 28  1  0  0  0
 28 29  2  0  0  0
  9  5  1  0  0  0
 15 10  1  0  0  0
 20 16  1  0  0  0
 29 21  1  0  0  0
 28 24  1  0  0  0
  3  4  1  0  0  0
M  END
> <minimizedAffinity>
-6.87041

> <CNNscore>
0.0704709068

> <CNNaffinity>
5.4110403061

> <CNN_VS>
0.3813209236

> <CNNaffinity_variance>
0.0810023844

$$$$
[H]c1sc(-c2c([H])c([H])c3c(c2[H])C([H])([H])C([H])([H])O3)nc1C(=O)N([H])c1nnc(N2C([H])([H])C([H])([H])C([H])([H])C([H])([H])C2([H])[H])s1


 29 33  0  0  0  0  0  0  0  0999 V2000
  -87.7915   30.9217   -2.7987 O   0  0  0  0  0  0  0  0  0  0  0  0
  -89.0269   30.7989   -2.6061 C   0  0  0  0  0  0  0  0  0  0  0  0
  -89.9153   31.7986   -3.0125 N   0  0  0  0  0  0  0  0  0  0  0  0
  -90.9440   31.7175   -2.8626 H   0  0  0  0  0  0  0  0  0  0  0  0
  -89.3758   32.9696   -3.6564 C   0  0  0  0  0  0  0  0  0  0  0  0
  -89.1767   33.1859   -4.9506 N   0  0  0  0  0  0  0  0  0  0  0  0
  -88.6905   34.2800   -5.3421 N   0  0  0  0  0  0  0  0  0  0  0  0
  -88.3736   35.2252   -4.4609 C   0  0  0  0  0  0  0  0  0  0  0  0
  -88.8226   34.4418   -2.9900 S   0  0  0  0  0  0  0  0  0  0  0  0
  -87.8213   36.5147   -4.6776 N   0  0  0  0  0  0  0  0  0  0  0  0
  -87.7771   37.4725   -3.6079 C   0  0  0  0  0  0  0  0  0  0  0  0
  -88.5385   38.7106   -3.9879 C   0  0  0  0  0  0  0  0  0  0  0  0
  -88.3231   39.0766   -5.4188 C   0  0  0  0  0  0  0  0  0  0  0  0
  -87.1648   38.3835   -6.0693 C   0  0  0  0  0  0  0  0  0  0  0  0
  -87.3041   36.8660   -5.9699 C   0  0  0  0  0  0  0  0  0  0  0  0
  -89.5756   29.5863   -1.9404 C   0  0  0  0  0  0  0  0  0  0  0  0
  -90.0187   28.5254   -2.6976 C   0  0  0  0  0  0  0  0  0  0  0  0
  -90.5309   27.4306   -1.4907 S   0  0  0  0  0  0  0  0  0  0  0  0
  -90.1572   28.3718   -0.1189 C   0  0  0  0  0  0  0  0  0  0  0  0
  -89.6609   29.4727   -0.6545 N   0  0  0  0  0  0  0  0  0  0  0  0
  -90.3494   28.0215    1.2982 C   0  0  0  0  0  0  0  0  0  0  0  0
  -91.0145   28.8405    2.1773 C   0  0  0  0  0  0  0  0  0  0  0  0
  -91.1644   28.4517    3.5114 C   0  0  0  0  0  0  0  0  0  0  0  0
  -90.6533   27.2579    3.9547 C   0  0  0  0  0  0  0  0  0  0  0  0
  -90.6752   26.6652    5.2137 O   0  0  0  0  0  0  0  0  0  0  0  0
  -89.6063   25.7174    5.2797 C   0  0  0  0  0  0  0  0  0  0  0  0
  -89.5657   25.2371    3.8506 C   0  0  0  0  0  0  0  0  0  0  0  0
  -89.9857   26.4305    3.0820 C   0  0  0  0  0  0  0  0  0  0  0  0
  -89.8433   26.8295    1.7559 C   0  0  0  0  0  0  0  0  0  0  0  0
  1  2  2  0  0  0
  2  3  1  0  0  0
  3  5  1  0  0  0
  5  6  2  0  0  0
  6  7  1  0  0  0
  7  8  2  0  0  0
  8  9  1  0  0  0
  8 10  1  0  0  0
 10 11  1  0  0  0
 11 12  1  0  0  0
 12 13  1  0  0  0
 13 14  1  0  0  0
 14 15  1  0  0  0
  2 16  1  0  0  0
 16 17  2  0  0  0
 17 18  1  0  0  0
 18 19  1  0  0  0
 19 20  2  0  0  0
 19 21  1  0  0  0
 21 22  2  0  0  0
 22 23  1  0  0  0
 23 24  2  0  0  0
 24 25  1  0  0  0
 25 26  1  0  0  0
 26 27  1  0  0  0
 27 28  1  0  0  0
 28 29  2  0  0  0
  9  5  1  0  0  0
 15 10  1  0  0  0
 20 16  1  0  0  0
 29 21  1  0  0  0
 28 24  1  0  0  0
  3  4  1  0  0  0
M  END
> <minimizedAffinity>
-6.79798

> <CNNscore>
0.0666149855

> <CNNaffinity>
5.3906078339

> <CNN_VS>
0.3590952754

> <CNNaffinity_variance>
0.0752095431

$$$$
[H]c1sc(-c2c([H])c([H])c3c(c2[H])C([H])([H])C([H])([H])O3)nc1C(=O)N([H])c1nnc(N2C([H])([H])C([H])([H])C([H])([H])C([H])([H])C2([H])[H])s1


 29 33  0  0  0  0  0  0  0  0999 V2000
  -88.7255   30.3031   -4.0058 O   0  0  0  0  0  0  0  0  0  0  0  0
  -89.6846   31.0774   -3.7632 C   0  0  0  0  0  0  0  0  0  0  0  0
  -89.5509   32.1079   -2.8285 N   0  0  0  0  0  0  0  0  0  0  0  0
  -90.3337   32.7619   -2.6117 H   0  0  0  0  0  0  0  0  0  0  0  0
  -88.2863   32.2565   -2.1537 C   0  0  0  0  0  0  0  0  0  0  0  0
  -87.2751   33.0610   -2.4566 N   0  0  0  0  0  0  0  0  0  0  0  0
  -86.2325   33.0610   -1.7496 N   0  0  0  0  0  0  0  0  0  0  0  0
  -86.1385   32.2547   -0.6953 C   0  0  0  0  0  0  0  0  0  0  0  0
  -87.6729   31.4676   -0.7684 S   0  0  0  0  0  0  0  0  0  0  0  0
  -85.0717   32.0929    0.2269 N   0  0  0  0  0  0  0  0  0  0  0  0
  -83.7859   32.6730   -0.0445 C   0  0  0  0  0  0  0  0  0  0  0  0
  -82.7321   31.6029   -0.0870 C   0  0  0  0  0  0  0  0  0  0  0  0
  -82.9527   30.5656    0.9632 C   0  0  0  0  0  0  0  0  0  0  0  0
  -83.9235   30.9624    2.0335 C   0  0  0  0  0  0  0  0  0  0  0  0
  -85.2754   31.3468    1.4363 C   0  0  0  0  0  0  0  0  0  0  0  0
  -90.9873   30.9168   -4.4647 C   0  0  0  0  0  0  0  0  0  0  0  0
  -91.7121   32.0271   -4.8348 C   0  0  0  0  0  0  0  0  0  0  0  0
  -93.0759   31.3165   -5.5783 S   0  0  0  0  0  0  0  0  0  0  0  0
  -92.6497   29.6779   -5.3771 C   0  0  0  0  0  0  0  0  0  0  0  0
  -91.4883   29.7594   -4.7528 N   0  0  0  0  0  0  0  0  0  0  0  0
  -93.4052   28.4879   -5.8025 C   0  0  0  0  0  0  0  0  0  0  0  0
  -94.3068   28.5172   -6.8380 C   0  0  0  0  0  0  0  0  0  0  0  0
  -94.9934   27.3532   -7.1946 C   0  0  0  0  0  0  0  0  0  0  0  0
  -94.7768   26.1779   -6.5203 C   0  0  0  0  0  0  0  0  0  0  0  0
  -95.3306   24.9122   -6.6881 O   0  0  0  0  0  0  0  0  0  0  0  0
  -95.1764   24.1913   -5.4627 C   0  0  0  0  0  0  0  0  0  0  0  0
  -93.8649   24.7493   -4.9695 C   0  0  0  0  0  0  0  0  0  0  0  0
  -93.8757   26.1381   -5.4818 C   0  0  0  0  0  0  0  0  0  0  0  0
  -93.1985   27.3045   -5.1367 C   0  0  0  0  0  0  0  0  0  0  0  0
  1  2  2  0  0  0
  2  3  1  0  0  0
  3  5  1  0  0  0
  5  6  2  0  0  0
  6  7  1  0  0  0
  7  8  2  0  0  0
  8  9  1  0  0  0
  8 10  1  0  0  0
 10 11  1  0  0  0
 11 12  1  0  0  0
 12 13  1  0  0  0
 13 14  1  0  0  0
 14 15  1  0  0  0
  2 16  1  0  0  0
 16 17  2  0  0  0
 17 18  1  0  0  0
 18 19  1  0  0  0
 19 20  2  0  0  0
 19 21  1  0  0  0
 21 22  2  0  0  0
 22 23  1  0  0  0
 23 24  2  0  0  0
 24 25  1  0  0  0
 25 26  1  0  0  0
 26 27  1  0  0  0
 27 28  1  0  0  0
 28 29  2  0  0  0
  9  5  1  0  0  0
 15 10  1  0  0  0
 20 16  1  0  0  0
 29 21  1  0  0  0
 28 24  1  0  0  0
  3  4  1  0  0  0
M  END
> <minimizedAffinity>
-8.01204

> <CNNscore>
0.0657843947

> <CNNaffinity>
5.1466588974

> <CNN_VS>
0.3385698497

> <CNNaffinity_variance>
0.1858467907

$$$$
[H]c1sc(-c2c([H])c([H])c3c(c2[H])C([H])([H])C([H])([H])O3)nc1C(=O)N([H])c1nnc(N2C([H])([H])C([H])([H])C([H])([H])C([H])([H])C2([H])[H])s1


 29 33  0  0  0  0  0  0  0  0999 V2000
  -87.5216   31.3278   -0.1068 O   0  0  0  0  0  0  0  0  0  0  0  0
  -88.2823   31.4372   -1.1006 C   0  0  0  0  0  0  0  0  0  0  0  0
  -89.3051   30.5106   -1.3218 N   0  0  0  0  0  0  0  0  0  0  0  0
  -89.9478   30.5822   -2.1398 H   0  0  0  0  0  0  0  0  0  0  0  0
  -89.4617   29.4303   -0.3809 C   0  0  0  0  0  0  0  0  0  0  0  0
  -88.8218   28.2683   -0.3395 N   0  0  0  0  0  0  0  0  0  0  0  0
  -89.0876   27.4311    0.5633 N   0  0  0  0  0  0  0  0  0  0  0  0
  -90.0113   27.7063    1.4807 C   0  0  0  0  0  0  0  0  0  0  0  0
  -90.4984   29.2809    0.9683 S   0  0  0  0  0  0  0  0  0  0  0  0
  -90.4639   26.9199    2.5722 N   0  0  0  0  0  0  0  0  0  0  0  0
  -90.9178   27.5511    3.7802 C   0  0  0  0  0  0  0  0  0  0  0  0
  -90.0894   27.0945    4.9474 C   0  0  0  0  0  0  0  0  0  0  0  0
  -89.7632   25.6405    4.8607 C   0  0  0  0  0  0  0  0  0  0  0  0
  -90.5855   24.8780    3.8668 C   0  0  0  0  0  0  0  0  0  0  0  0
  -90.4690   25.4879    2.4717 C   0  0  0  0  0  0  0  0  0  0  0  0
  -88.1136   32.5560   -2.0674 C   0  0  0  0  0  0  0  0  0  0  0  0
  -86.8949   33.1848   -2.1880 C   0  0  0  0  0  0  0  0  0  0  0  0
  -87.2271   34.3531   -3.3889 S   0  0  0  0  0  0  0  0  0  0  0  0
  -88.8681   33.9782   -3.6609 C   0  0  0  0  0  0  0  0  0  0  0  0
  -89.0762   32.9805   -2.8204 N   0  0  0  0  0  0  0  0  0  0  0  0
  -89.7987   34.6212   -4.6034 C   0  0  0  0  0  0  0  0  0  0  0  0
  -90.5268   35.7384   -4.2753 C   0  0  0  0  0  0  0  0  0  0  0  0
  -91.3944   36.3029   -5.2145 C   0  0  0  0  0  0  0  0  0  0  0  0
  -91.5278   35.7524   -6.4644 C   0  0  0  0  0  0  0  0  0  0  0  0
  -92.3138   36.1280   -7.5496 O   0  0  0  0  0  0  0  0  0  0  0  0
  -92.4830   34.9869   -8.3948 C   0  0  0  0  0  0  0  0  0  0  0  0
  -91.1596   34.2907   -8.1979 C   0  0  0  0  0  0  0  0  0  0  0  0
  -90.8027   34.6336   -6.8028 C   0  0  0  0  0  0  0  0  0  0  0  0
  -89.9422   34.0812   -5.8581 C   0  0  0  0  0  0  0  0  0  0  0  0
  1  2  2  0  0  0
  2  3  1  0  0  0
  3  5  1  0  0  0
  5  6  2  0  0  0
  6  7  1  0  0  0
  7  8  2  0  0  0
  8  9  1  0  0  0
  8 10  1  0  0  0
 10 11  1  0  0  0
 11 12  1  0  0  0
 12 13  1  0  0  0
 13 14  1  0  0  0
 14 15  1  0  0  0
  2 16  1  0  0  0
 16 17  2  0  0  0
 17 18  1  0  0  0
 18 19  1  0  0  0
 19 20  2  0  0  0
 19 21  1  0  0  0
 21 22  2  0  0  0
 22 23  1  0  0  0
 23 24  2  0  0  0
 24 25  1  0  0  0
 25 26  1  0  0  0
 26 27  1  0  0  0
 27 28  1  0  0  0
 28 29  2  0  0  0
  9  5  1  0  0  0
 15 10  1  0  0  0
 20 16  1  0  0  0
 29 21  1  0  0  0
 28 24  1  0  0  0
  3  4  1  0  0  0
M  END
> <minimizedAffinity>
-6.76844

> <CNNscore>
0.0624307580

> <CNNaffinity>
5.2452530861

> <CNN_VS>
0.3274651170

> <CNNaffinity_variance>
0.0710249096

$$$$
[H]c1sc(-c2c([H])c([H])c3c(c2[H])C([H])([H])C([H])([H])O3)nc1C(=O)N([H])c1nnc(N2C([H])([H])C([H])([H])C([H])([H])C([H])([H])C2([H])[H])s1


 29 33  0  0  0  0  0  0  0  0999 V2000
  -91.7549   29.7572   -1.9560 O   0  0  0  0  0  0  0  0  0  0  0  0
  -90.5229   29.5115   -1.9644 C   0  0  0  0  0  0  0  0  0  0  0  0
  -90.0445   28.2769   -2.4122 N   0  0  0  0  0  0  0  0  0  0  0  0
  -89.0264   28.0518   -2.4277 H   0  0  0  0  0  0  0  0  0  0  0  0
  -91.0011   27.2976   -2.8623 C   0  0  0  0  0  0  0  0  0  0  0  0
  -91.5321   27.1521   -4.0699 N   0  0  0  0  0  0  0  0  0  0  0  0
  -92.3625   26.2307   -4.2895 N   0  0  0  0  0  0  0  0  0  0  0  0
  -92.7124   25.3979   -3.3125 C   0  0  0  0  0  0  0  0  0  0  0  0
  -91.7588   26.0219   -2.0161 S   0  0  0  0  0  0  0  0  0  0  0  0
  -93.6174   24.3047   -3.3371 N   0  0  0  0  0  0  0  0  0  0  0  0
  -93.8417   23.5237   -2.1525 C   0  0  0  0  0  0  0  0  0  0  0  0
  -93.4877   22.0855   -2.4042 C   0  0  0  0  0  0  0  0  0  0  0  0
  -93.9092   21.6408   -3.7653 C   0  0  0  0  0  0  0  0  0  0  0  0
  -94.8765   22.5602   -4.4469 C   0  0  0  0  0  0  0  0  0  0  0  0
  -94.3126   23.9757   -4.5492 C   0  0  0  0  0  0  0  0  0  0  0  0
  -89.5418   30.5287   -1.4979 C   0  0  0  0  0  0  0  0  0  0  0  0
  -89.8399   31.8691   -1.5951 C   0  0  0  0  0  0  0  0  0  0  0  0
  -88.4311   32.5836   -0.9453 S   0  0  0  0  0  0  0  0  0  0  0  0
  -87.5622   31.1589   -0.5950 C   0  0  0  0  0  0  0  0  0  0  0  0
  -88.3936   30.2124   -0.9927 N   0  0  0  0  0  0  0  0  0  0  0  0
  -86.2215   31.0407    0.0019 C   0  0  0  0  0  0  0  0  0  0  0  0
  -85.2424   31.9844   -0.1896 C   0  0  0  0  0  0  0  0  0  0  0  0
  -83.9886   31.8152    0.4044 C   0  0  0  0  0  0  0  0  0  0  0  0
  -83.7234   30.7140    1.1788 C   0  0  0  0  0  0  0  0  0  0  0  0
  -82.5723   30.3321    1.8614 O   0  0  0  0  0  0  0  0  0  0  0  0
  -82.6281   28.9192    2.0756 C   0  0  0  0  0  0  0  0  0  0  0  0
  -84.1130   28.7177    2.2468 C   0  0  0  0  0  0  0  0  0  0  0  0
  -84.6974   29.7631    1.3768 C   0  0  0  0  0  0  0  0  0  0  0  0
  -85.9419   29.9436    0.7796 C   0  0  0  0  0  0  0  0  0  0  0  0
  1  2  2  0  0  0
  2  3  1  0  0  0
  3  5  1  0  0  0
  5  6  2  0  0  0
  6  7  1  0  0  0
  7  8  2  0  0  0
  8  9  1  0  0  0
  8 10  1  0  0  0
 10 11  1  0  0  0
 11 12  1  0  0  0
 12 13  1  0  0  0
 13 14  1  0  0  0
 14 15  1  0  0  0
  2 16  1  0  0  0
 16 17  2  0  0  0
 17 18  1  0  0  0
 18 19  1  0  0  0
 19 20  2  0  0  0
 19 21  1  0  0  0
 21 22  2  0  0  0
 22 23  1  0  0  0
 23 24  2  0  0  0
 24 25  1  0  0  0
 25 26  1  0  0  0
 26 27  1  0  0  0
 27 28  1  0  0  0
 28 29  2  0  0  0
  9  5  1  0  0  0
 15 10  1  0  0  0
 20 16  1  0  0  0
 29 21  1  0  0  0
 28 24  1  0  0  0
  3  4  1  0  0  0
M  END
> <minimizedAffinity>
-7.71488

> <CNNscore>
0.0604272187

> <CNNaffinity>
5.4536714554

> <CNN_VS>
0.3295502067

> <CNNaffinity_variance>
0.1550398469

$$$$
[H]OC([H])([H])[C@@]([H])(N([H])c1nn2c(-c3c([H])c([H])c([H])c(Cl)c3[H])c([H])nc2c([H])c1[H])C([H])([H])C([H])([H])[H]


 24 26  0  0  0  0  0  0  0  0999 V2000
  -87.8307   27.7979    0.5565 C   0  0  0  0  0  0  0  0  0  0  0  0
  -87.7488   26.6259    1.2610 C   0  0  0  0  0  0  0  0  0  0  0  0
  -86.6148   26.3430    1.9808 C   0  0  0  0  0  0  0  0  0  0  0  0
  -85.5843   27.2603    1.9701 C   0  0  0  0  0  0  0  0  0  0  0  0
  -84.3761   27.2886    2.5505 N   0  0  0  0  0  0  0  0  0  0  0  0
  -83.7681   28.4315    2.2038 C   0  0  0  0  0  0  0  0  0  0  0  0
  -84.6049   29.1637    1.3763 C   0  0  0  0  0  0  0  0  0  0  0  0
  -85.7165   28.4148    1.2515 N   0  0  0  0  0  0  0  0  0  0  0  0
  -86.8115   28.6578    0.5731 N   0  0  0  0  0  0  0  0  0  0  0  0
  -84.2569   30.4662    0.8108 C   0  0  0  0  0  0  0  0  0  0  0  0
  -82.9063   30.8265    0.6940 C   0  0  0  0  0  0  0  0  0  0  0  0
  -82.4811   32.0148    0.1816 C   0  0  0  0  0  0  0  0  0  0  0  0
  -83.3952   32.9434   -0.2582 C   0  0  0  0  0  0  0  0  0  0  0  0
  -84.7286   32.6207   -0.1576 C   0  0  0  0  0  0  0  0  0  0  0  0
  -85.8975   33.7876   -0.7108 Cl  0  0  0  0  0  0  0  0  0  0  0  0
  -85.1482   31.3941    0.3720 C   0  0  0  0  0  0  0  0  0  0  0  0
  -88.9767   28.1102   -0.2113 N   0  0  0  0  0  0  0  0  0  0  0  0
  -89.6550   28.7985    0.1651 H   0  0  0  0  0  0  0  0  0  0  0  0
  -89.2163   27.5067   -1.4740 C   0  0  0  0  0  0  0  0  0  0  0  0
  -89.1394   28.4939   -2.6236 C   0  0  0  0  0  0  0  0  0  0  0  0
  -87.9394   28.3267   -3.3399 O   0  0  0  0  0  0  0  0  0  0  0  0
  -88.0397   28.9371   -4.1383 H   0  0  0  0  0  0  0  0  0  0  0  0
  -90.9137   26.3634   -2.9230 C   0  0  0  0  0  0  0  0  0  0  0  0
  -90.6138   26.9046   -1.5648 C   0  0  0  0  0  0  0  0  0  0  0  0
 23 24  1  0  0  0
 24 19  1  0  0  0
 19 20  1  0  0  0
 20 21  1  0  0  0
 19 17  1  0  0  0
 17  1  1  0  0  0
  1  2  1  0  0  0
  2  3  2  0  0  0
  3  4  1  0  0  0
  4  5  2  0  0  0
  5  6  1  0  0  0
  6  7  2  0  0  0
  7 10  1  0  0  0
 10 11  2  0  0  0
 11 12  1  0  0  0
 12 13  2  0  0  0
 13 14  1  0  0  0
 14 15  1  0  0  0
 14 16  2  0  0  0
  7  8  1  0  0  0
  8  9  1  0  0  0
  9  1  2  0  0  0
  8  4  1  0  0  0
 16 10  1  0  0  0
 21 22  1  0  0  0
 17 18  1  0  0  0
M  END
> <minimizedAffinity>
-7.94749

> <CNNscore>
0.7812911868

> <CNNaffinity>
6.2701058388

> <CNN_VS>
4.8987784386

> <CNNaffinity_variance>
0.1683228612

$$$$
[H]OC([H])([H])[C@@]([H])(N([H])c1nn2c(-c3c([H])c([H])c([H])c(Cl)c3[H])c([H])nc2c([H])c1[H])C([H])([H])C([H])([H])[H]


 24 26  0  0  0  0  0  0  0  0999 V2000
  -87.8200   32.3013   -0.8268 C   0  0  0  0  0  0  0  0  0  0  0  0
  -87.5582   33.4654   -1.4999 C   0  0  0  0  0  0  0  0  0  0  0  0
  -86.2656   33.9153   -1.6030 C   0  0  0  0  0  0  0  0  0  0  0  0
  -85.2623   33.1702   -1.0185 C   0  0  0  0  0  0  0  0  0  0  0  0
  -83.9331   33.3256   -0.9381 N   0  0  0  0  0  0  0  0  0  0  0  0
  -83.4288   32.2947   -0.2460 C   0  0  0  0  0  0  0  0  0  0  0  0
  -84.4591   31.4484    0.1324 C   0  0  0  0  0  0  0  0  0  0  0  0
  -85.5766   32.0157   -0.3590 N   0  0  0  0  0  0  0  0  0  0  0  0
  -86.8206   31.6108   -0.2765 N   0  0  0  0  0  0  0  0  0  0  0  0
  -84.2652   30.2211    0.9030 C   0  0  0  0  0  0  0  0  0  0  0  0
  -83.0257   29.9818    1.5145 C   0  0  0  0  0  0  0  0  0  0  0  0
  -82.7468   28.8708    2.2517 C   0  0  0  0  0  0  0  0  0  0  0  0
  -83.7073   27.9031    2.4319 C   0  0  0  0  0  0  0  0  0  0  0  0
  -84.9343   28.1076    1.8450 C   0  0  0  0  0  0  0  0  0  0  0  0
  -86.1604   26.8900    2.0650 Cl  0  0  0  0  0  0  0  0  0  0  0  0
  -85.2039   29.2560    1.0901 C   0  0  0  0  0  0  0  0  0  0  0  0
  -89.1427   31.8209   -0.6853 N   0  0  0  0  0  0  0  0  0  0  0  0
  -89.8521   32.4387   -0.2490 H   0  0  0  0  0  0  0  0  0  0  0  0
  -89.5160   30.5228   -1.1231 C   0  0  0  0  0  0  0  0  0  0  0  0
  -90.7180   30.5356   -2.0489 C   0  0  0  0  0  0  0  0  0  0  0  0
  -90.9883   31.8444   -2.4906 O   0  0  0  0  0  0  0  0  0  0  0  0
  -91.7164   31.7281   -3.1808 H   0  0  0  0  0  0  0  0  0  0  0  0
  -88.8788   28.6061    0.3630 C   0  0  0  0  0  0  0  0  0  0  0  0
  -89.9226   29.6221    0.0376 C   0  0  0  0  0  0  0  0  0  0  0  0
 23 24  1  0  0  0
 24 19  1  0  0  0
 19 20  1  0  0  0
 20 21  1  0  0  0
 19 17  1  0  0  0
 17  1  1  0  0  0
  1  2  1  0  0  0
  2  3  2  0  0  0
  3  4  1  0  0  0
  4  5  2  0  0  0
  5  6  1  0  0  0
  6  7  2  0  0  0
  7 10  1  0  0  0
 10 11  2  0  0  0
 11 12  1  0  0  0
 12 13  2  0  0  0
 13 14  1  0  0  0
 14 15  1  0  0  0
 14 16  2  0  0  0
  7  8  1  0  0  0
  8  9  1  0  0  0
  9  1  2  0  0  0
  8  4  1  0  0  0
 16 10  1  0  0  0
 21 22  1  0  0  0
 17 18  1  0  0  0
M  END
> <minimizedAffinity>
-8.37606

> <CNNscore>
0.7680264711

> <CNNaffinity>
6.3191041946

> <CNN_VS>
4.8532390594

> <CNNaffinity_variance>
0.1291730702

$$$$
[H]OC([H])([H])[C@@]([H])(N([H])c1nn2c(-c3c([H])c([H])c([H])c(Cl)c3[H])c([H])nc2c([H])c1[H])C([H])([H])C([H])([H])[H]


 24 26  0  0  0  0  0  0  0  0999 V2000
  -87.4938   31.9965   -1.4491 C   0  0  0  0  0  0  0  0  0  0  0  0
  -87.2508   33.2369   -1.9772 C   0  0  0  0  0  0  0  0  0  0  0  0
  -86.0461   33.8515   -1.7433 C   0  0  0  0  0  0  0  0  0  0  0  0
  -85.1098   33.1905   -0.9754 C   0  0  0  0  0  0  0  0  0  0  0  0
  -83.8705   33.5029   -0.5703 N   0  0  0  0  0  0  0  0  0  0  0  0
  -83.3992   32.4880    0.1671 C   0  0  0  0  0  0  0  0  0  0  0  0
  -84.3588   31.4908    0.2420 C   0  0  0  0  0  0  0  0  0  0  0  0
  -85.4015   31.9541   -0.4724 N   0  0  0  0  0  0  0  0  0  0  0  0
  -86.5611   31.3918   -0.7123 N   0  0  0  0  0  0  0  0  0  0  0  0
  -84.1766   30.2365    0.9707 C   0  0  0  0  0  0  0  0  0  0  0  0
  -82.9330   29.9555    1.5555 C   0  0  0  0  0  0  0  0  0  0  0  0
  -82.6642   28.8168    2.2531 C   0  0  0  0  0  0  0  0  0  0  0  0
  -83.6398   27.8615    2.4175 C   0  0  0  0  0  0  0  0  0  0  0  0
  -84.8714   28.1068    1.8560 C   0  0  0  0  0  0  0  0  0  0  0  0
  -86.1166   26.9053    2.0563 Cl  0  0  0  0  0  0  0  0  0  0  0  0
  -85.1304   29.2832    1.1417 C   0  0  0  0  0  0  0  0  0  0  0  0
  -88.7320   31.3447   -1.6546 N   0  0  0  0  0  0  0  0  0  0  0  0
  -89.5385   31.6101   -1.0593 H   0  0  0  0  0  0  0  0  0  0  0  0
  -88.8925   30.3437   -2.6488 C   0  0  0  0  0  0  0  0  0  0  0  0
  -88.5476   28.9538   -2.1474 C   0  0  0  0  0  0  0  0  0  0  0  0
  -88.2460   28.0999   -3.2250 O   0  0  0  0  0  0  0  0  0  0  0  0
  -87.9203   27.2509   -2.7854 H   0  0  0  0  0  0  0  0  0  0  0  0
  -88.6112   31.4068   -4.9024 C   0  0  0  0  0  0  0  0  0  0  0  0
  -87.9732   30.5707   -3.8434 C   0  0  0  0  0  0  0  0  0  0  0  0
 23 24  1  0  0  0
 24 19  1  0  0  0
 19 20  1  0  0  0
 20 21  1  0  0  0
 19 17  1  0  0  0
 17  1  1  0  0  0
  1  2  1  0  0  0
  2  3  2  0  0  0
  3  4  1  0  0  0
  4  5  2  0  0  0
  5  6  1  0  0  0
  6  7  2  0  0  0
  7 10  1  0  0  0
 10 11  2  0  0  0
 11 12  1  0  0  0
 12 13  2  0  0  0
 13 14  1  0  0  0
 14 15  1  0  0  0
 14 16  2  0  0  0
  7  8  1  0  0  0
  8  9  1  0  0  0
  9  1  2  0  0  0
  8  4  1  0  0  0
 16 10  1  0  0  0
 21 22  1  0  0  0
 17 18  1  0  0  0
M  END
> <minimizedAffinity>
-8.73836

> <CNNscore>
0.7599141598

> <CNNaffinity>
6.3376884460

> <CNN_VS>
4.8160991669

> <CNNaffinity_variance>
0.1990503371

$$$$
[H]OC([H])([H])[C@@]([H])(N([H])c1nn2c(-c3c([H])c([H])c([H])c(Cl)c3[H])c([H])nc2c([H])c1[H])C([H])([H])C([H])([H])[H]


 24 26  0  0  0  0  0  0  0  0999 V2000
  -85.2876   29.3332    1.3728 C   0  0  0  0  0  0  0  0  0  0  0  0
  -84.0030   29.2534    1.8418 C   0  0  0  0  0  0  0  0  0  0  0  0
  -83.0972   30.2310    1.5134 C   0  0  0  0  0  0  0  0  0  0  0  0
  -83.5172   31.2734    0.7131 C   0  0  0  0  0  0  0  0  0  0  0  0
  -82.9012   32.3583    0.2224 N   0  0  0  0  0  0  0  0  0  0  0  0
  -83.7859   33.0523   -0.5068 C   0  0  0  0  0  0  0  0  0  0  0  0
  -85.0083   32.3995   -0.4882 C   0  0  0  0  0  0  0  0  0  0  0  0
  -84.8099   31.3065    0.2722 N   0  0  0  0  0  0  0  0  0  0  0  0
  -85.6529   30.3582    0.6018 N   0  0  0  0  0  0  0  0  0  0  0  0
  -86.2011   32.8816   -1.1827 C   0  0  0  0  0  0  0  0  0  0  0  0
  -87.4689   32.5607   -0.6755 C   0  0  0  0  0  0  0  0  0  0  0  0
  -88.6377   32.9614   -1.2491 C   0  0  0  0  0  0  0  0  0  0  0  0
  -88.6190   33.7259   -2.3921 C   0  0  0  0  0  0  0  0  0  0  0  0
  -87.3911   34.0582   -2.9153 C   0  0  0  0  0  0  0  0  0  0  0  0
  -87.3525   35.0261   -4.3630 Cl  0  0  0  0  0  0  0  0  0  0  0  0
  -86.1990   33.6375   -2.3125 C   0  0  0  0  0  0  0  0  0  0  0  0
  -86.2396   28.3322    1.6761 N   0  0  0  0  0  0  0  0  0  0  0  0
  -86.3097   27.9924    2.6534 H   0  0  0  0  0  0  0  0  0  0  0  0
  -87.0927   27.7874    0.6804 C   0  0  0  0  0  0  0  0  0  0  0  0
  -88.4973   28.3590    0.7300 C   0  0  0  0  0  0  0  0  0  0  0  0
  -88.6419   29.3982   -0.2083 O   0  0  0  0  0  0  0  0  0  0  0  0
  -89.6258   29.6244   -0.1787 H   0  0  0  0  0  0  0  0  0  0  0  0
  -88.6946   25.9047    1.1016 C   0  0  0  0  0  0  0  0  0  0  0  0
  -87.2741   26.2826    0.8428 C   0  0  0  0  0  0  0  0  0  0  0  0
 23 24  1  0  0  0
 24 19  1  0  0  0
 19 20  1  0  0  0
 20 21  1  0  0  0
 19 17  1  0  0  0
 17  1  1  0  0  0
  1  2  1  0  0  0
  2  3  2  0  0  0
  3  4  1  0  0  0
  4  5  2  0  0  0
  5  6  1  0  0  0
  6  7  2  0  0  0
  7 10  1  0  0  0
 10 11  2  0  0  0
 11 12  1  0  0  0
 12 13  2  0  0  0
 13 14  1  0  0  0
 14 15  1  0  0  0
 14 16  2  0  0  0
  7  8  1  0  0  0
  8  9  1  0  0  0
  9  1  2  0  0  0
  8  4  1  0  0  0
 16 10  1  0  0  0
 21 22  1  0  0  0
 17 18  1  0  0  0
M  END
> <minimizedAffinity>
-7.65672

> <CNNscore>
0.6786346436

> <CNNaffinity>
6.2094812393

> <CNN_VS>
4.2139692307

> <CNNaffinity_variance>
0.1722509563

$$$$
[H]OC([H])([H])[C@@]([H])(N([H])c1nn2c(-c3c([H])c([H])c([H])c(Cl)c3[H])c([H])nc2c([H])c1[H])C([H])([H])C([H])([H])[H]


 24 26  0  0  0  0  0  0  0  0999 V2000
  -84.7495   30.5008    1.5246 C   0  0  0  0  0  0  0  0  0  0  0  0
  -83.4913   31.0009    1.7328 C   0  0  0  0  0  0  0  0  0  0  0  0
  -83.0463   32.0578    0.9787 C   0  0  0  0  0  0  0  0  0  0  0  0
  -83.8922   32.5869    0.0258 C   0  0  0  0  0  0  0  0  0  0  0  0
  -83.7691   33.5920   -0.8529 N   0  0  0  0  0  0  0  0  0  0  0  0
  -84.9088   33.6833   -1.5520 C   0  0  0  0  0  0  0  0  0  0  0  0
  -85.7944   32.7109   -1.1148 C   0  0  0  0  0  0  0  0  0  0  0  0
  -85.1381   32.0517   -0.1418 N   0  0  0  0  0  0  0  0  0  0  0  0
  -85.5358   31.0417    0.5932 N   0  0  0  0  0  0  0  0  0  0  0  0
  -87.1370   32.5248   -1.6627 C   0  0  0  0  0  0  0  0  0  0  0  0
  -88.2491   32.6612   -0.8187 C   0  0  0  0  0  0  0  0  0  0  0  0
  -89.5376   32.5074   -1.2330 C   0  0  0  0  0  0  0  0  0  0  0  0
  -89.8085   32.2007   -2.5460 C   0  0  0  0  0  0  0  0  0  0  0  0
  -88.7395   32.0601   -3.4001 C   0  0  0  0  0  0  0  0  0  0  0  0
  -89.0679   31.6716   -5.0660 Cl  0  0  0  0  0  0  0  0  0  0  0  0
  -87.4208   32.2217   -2.9571 C   0  0  0  0  0  0  0  0  0  0  0  0
  -85.2308   29.3998    2.2707 N   0  0  0  0  0  0  0  0  0  0  0  0
  -85.6719   29.5782    3.1921 H   0  0  0  0  0  0  0  0  0  0  0  0
  -85.1231   28.0682    1.7898 C   0  0  0  0  0  0  0  0  0  0  0  0
  -86.4632   27.3617    1.7047 C   0  0  0  0  0  0  0  0  0  0  0  0
  -86.4466   26.1764    2.4637 O   0  0  0  0  0  0  0  0  0  0  0  0
  -87.4026   25.8517    2.4379 H   0  0  0  0  0  0  0  0  0  0  0  0
  -82.8337   27.5812    2.6894 C   0  0  0  0  0  0  0  0  0  0  0  0
  -84.2752   27.1948    2.7075 C   0  0  0  0  0  0  0  0  0  0  0  0
 23 24  1  0  0  0
 24 19  1  0  0  0
 19 20  1  0  0  0
 20 21  1  0  0  0
 19 17  1  0  0  0
 17  1  1  0  0  0
  1  2  1  0  0  0
  2  3  2  0  0  0
  3  4  1  0  0  0
  4  5  2  0  0  0
  5  6  1  0  0  0
  6  7  2  0  0  0
  7 10  1  0  0  0
 10 11  2  0  0  0
 11 12  1  0  0  0
 12 13  2  0  0  0
 13 14  1  0  0  0
 14 15  1  0  0  0
 14 16  2  0  0  0
  7  8  1  0  0  0
  8  9  1  0  0  0
  9  1  2  0  0  0
  8  4  1  0  0  0
 16 10  1  0  0  0
 21 22  1  0  0  0
 17 18  1  0  0  0
M  END
> <minimizedAffinity>
-7.18569

> <CNNscore>
0.6786173582

> <CNNaffinity>
6.4288558960

> <CNN_VS>
4.3627333641

> <CNNaffinity_variance>
0.2335351259

$$$$
[H]OC([H])([H])[C@@]([H])(N([H])c1nn2c(-c3c([H])c([H])c([H])c(Cl)c3[H])c([H])nc2c([H])c1[H])C([H])([H])C([H])([H])[H]


 24 26  0  0  0  0  0  0  0  0999 V2000
  -84.9543   28.4245    1.8009 C   0  0  0  0  0  0  0  0  0  0  0  0
  -83.6765   28.2748    2.2711 C   0  0  0  0  0  0  0  0  0  0  0  0
  -82.7453   29.2548    2.0335 C   0  0  0  0  0  0  0  0  0  0  0  0
  -83.1334   30.3706    1.3210 C   0  0  0  0  0  0  0  0  0  0  0  0
  -82.4878   31.4781    0.9284 N   0  0  0  0  0  0  0  0  0  0  0  0
  -83.3492   32.2520    0.2538 C   0  0  0  0  0  0  0  0  0  0  0  0
  -84.5865   31.6292    0.2079 C   0  0  0  0  0  0  0  0  0  0  0  0
  -84.4207   30.4716    0.8746 N   0  0  0  0  0  0  0  0  0  0  0  0
  -85.2885   29.5193    1.1166 N   0  0  0  0  0  0  0  0  0  0  0  0
  -85.7612   32.1965   -0.4524 C   0  0  0  0  0  0  0  0  0  0  0  0
  -85.6022   33.2856   -1.3219 C   0  0  0  0  0  0  0  0  0  0  0  0
  -86.6322   33.8833   -1.9832 C   0  0  0  0  0  0  0  0  0  0  0  0
  -87.9179   33.4241   -1.8175 C   0  0  0  0  0  0  0  0  0  0  0  0
  -88.1080   32.3567   -0.9710 C   0  0  0  0  0  0  0  0  0  0  0  0
  -89.7314   31.7645   -0.7515 Cl  0  0  0  0  0  0  0  0  0  0  0  0
  -87.0373   31.7541   -0.2989 C   0  0  0  0  0  0  0  0  0  0  0  0
  -85.9321   27.4244    2.0113 N   0  0  0  0  0  0  0  0  0  0  0  0
  -85.6801   26.5944    2.5796 H   0  0  0  0  0  0  0  0  0  0  0  0
  -87.2385   27.5315    1.4656 C   0  0  0  0  0  0  0  0  0  0  0  0
  -88.3175   27.0569    2.4209 C   0  0  0  0  0  0  0  0  0  0  0  0
  -88.3125   25.6525    2.5146 O   0  0  0  0  0  0  0  0  0  0  0  0
  -88.9738   25.4504    3.2508 H   0  0  0  0  0  0  0  0  0  0  0  0
  -87.4832   27.4857   -1.0297 C   0  0  0  0  0  0  0  0  0  0  0  0
  -87.4104   26.6712    0.2189 C   0  0  0  0  0  0  0  0  0  0  0  0
 23 24  1  0  0  0
 24 19  1  0  0  0
 19 20  1  0  0  0
 20 21  1  0  0  0
 19 17  1  0  0  0
 17  1  1  0  0  0
  1  2  1  0  0  0
  2  3  2  0  0  0
  3  4  1  0  0  0
  4  5  2  0  0  0
  5  6  1  0  0  0
  6  7  2  0  0  0
  7 10  1  0  0  0
 10 11  2  0  0  0
 11 12  1  0  0  0
 12 13  2  0  0  0
 13 14  1  0  0  0
 14 15  1  0  0  0
 14 16  2  0  0  0
  7  8  1  0  0  0
  8  9  1  0  0  0
  9  1  2  0  0  0
  8  4  1  0  0  0
 16 10  1  0  0  0
 21 22  1  0  0  0
 17 18  1  0  0  0
M  END
> <minimizedAffinity>
-8.23481

> <CNNscore>
0.6119287610

> <CNNaffinity>
6.4553704262

> <CNN_VS>
3.9502267838

> <CNNaffinity_variance>
0.1117322296

$$$$
[H]OC([H])([H])[C@@]([H])(N([H])c1nn2c(-c3c([H])c([H])c([H])c(Cl)c3[H])c([H])nc2c([H])c1[H])C([H])([H])C([H])([H])[H]


 24 26  0  0  0  0  0  0  0  0999 V2000
  -86.5374   28.3394    1.1851 C   0  0  0  0  0  0  0  0  0  0  0  0
  -85.3876   28.0830    1.8842 C   0  0  0  0  0  0  0  0  0  0  0  0
  -84.4037   29.0378    1.9486 C   0  0  0  0  0  0  0  0  0  0  0  0
  -84.6095   30.2377    1.2995 C   0  0  0  0  0  0  0  0  0  0  0  0
  -83.8699   31.3484    1.1694 N   0  0  0  0  0  0  0  0  0  0  0  0
  -84.5549   32.2265    0.4240 C   0  0  0  0  0  0  0  0  0  0  0  0
  -85.7713   31.6700    0.0611 C   0  0  0  0  0  0  0  0  0  0  0  0
  -85.7746   30.4436    0.6163 N   0  0  0  0  0  0  0  0  0  0  0  0
  -86.6966   29.5129    0.5719 N   0  0  0  0  0  0  0  0  0  0  0  0
  -86.7707   32.3560   -0.7563 C   0  0  0  0  0  0  0  0  0  0  0  0
  -88.1305   32.0726   -0.5613 C   0  0  0  0  0  0  0  0  0  0  0  0
  -89.1354   32.6576   -1.2708 C   0  0  0  0  0  0  0  0  0  0  0  0
  -88.8440   33.5850   -2.2438 C   0  0  0  0  0  0  0  0  0  0  0  0
  -87.5193   33.8855   -2.4599 C   0  0  0  0  0  0  0  0  0  0  0  0
  -87.1357   35.0583   -3.6893 Cl  0  0  0  0  0  0  0  0  0  0  0  0
  -86.4987   33.2742   -1.7210 C   0  0  0  0  0  0  0  0  0  0  0  0
  -87.5617   27.3695    1.0826 N   0  0  0  0  0  0  0  0  0  0  0  0
  -87.4402   26.5867    0.4134 H   0  0  0  0  0  0  0  0  0  0  0  0
  -88.7419   27.4446    1.8684 C   0  0  0  0  0  0  0  0  0  0  0  0
  -89.3098   26.0801    2.2117 C   0  0  0  0  0  0  0  0  0  0  0  0
  -88.4906   25.4253    3.1506 O   0  0  0  0  0  0  0  0  0  0  0  0
  -89.0098   24.5946    3.3963 H   0  0  0  0  0  0  0  0  0  0  0  0
  -91.0040   28.5118    2.0473 C   0  0  0  0  0  0  0  0  0  0  0  0
  -89.8691   28.1684    1.1408 C   0  0  0  0  0  0  0  0  0  0  0  0
 23 24  1  0  0  0
 24 19  1  0  0  0
 19 20  1  0  0  0
 20 21  1  0  0  0
 19 17  1  0  0  0
 17  1  1  0  0  0
  1  2  1  0  0  0
  2  3  2  0  0  0
  3  4  1  0  0  0
  4  5  2  0  0  0
  5  6  1  0  0  0
  6  7  2  0  0  0
  7 10  1  0  0  0
 10 11  2  0  0  0
 11 12  1  0  0  0
 12 13  2  0  0  0
 13 14  1  0  0  0
 14 15  1  0  0  0
 14 16  2  0  0  0
  7  8  1  0  0  0
  8  9  1  0  0  0
  9  1  2  0  0  0
  8  4  1  0  0  0
 16 10  1  0  0  0
 21 22  1  0  0  0
 17 18  1  0  0  0
M  END
> <minimizedAffinity>
-7.46579

> <CNNscore>
0.5871292353

> <CNNaffinity>
6.2848415375

> <CNN_VS>
3.6900141239

> <CNNaffinity_variance>
0.1165594459

$$$$
[H]OC([H])([H])[C@@]([H])(N([H])c1nn2c(-c3c([H])c([H])c([H])c(Cl)c3[H])c([H])nc2c([H])c1[H])C([H])([H])C([H])([H])[H]


 24 26  0  0  0  0  0  0  0  0999 V2000
  -86.3871   27.5716    1.4147 C   0  0  0  0  0  0  0  0  0  0  0  0
  -85.3613   27.0008    2.1207 C   0  0  0  0  0  0  0  0  0  0  0  0
  -84.2010   27.7053    2.3238 C   0  0  0  0  0  0  0  0  0  0  0  0
  -84.1071   28.9798    1.8041 C   0  0  0  0  0  0  0  0  0  0  0  0
  -83.1404   29.9087    1.8229 N   0  0  0  0  0  0  0  0  0  0  0  0
  -83.5771   30.9857    1.1556 C   0  0  0  0  0  0  0  0  0  0  0  0
  -84.8615   30.7485    0.6917 C   0  0  0  0  0  0  0  0  0  0  0  0
  -85.1596   29.5035    1.1079 N   0  0  0  0  0  0  0  0  0  0  0  0
  -86.2555   28.8068    0.9295 N   0  0  0  0  0  0  0  0  0  0  0  0
  -85.6418   31.7151   -0.0791 C   0  0  0  0  0  0  0  0  0  0  0  0
  -84.9818   32.7649   -0.7350 C   0  0  0  0  0  0  0  0  0  0  0  0
  -85.6184   33.7140   -1.4762 C   0  0  0  0  0  0  0  0  0  0  0  0
  -86.9862   33.6783   -1.6155 C   0  0  0  0  0  0  0  0  0  0  0  0
  -87.6636   32.6610   -0.9845 C   0  0  0  0  0  0  0  0  0  0  0  0
  -89.3964   32.6035   -1.1525 Cl  0  0  0  0  0  0  0  0  0  0  0  0
  -86.9930   31.6933   -0.2262 C   0  0  0  0  0  0  0  0  0  0  0  0
  -87.5878   26.8651    1.1706 N   0  0  0  0  0  0  0  0  0  0  0  0
  -87.5727   26.0766    0.4973 H   0  0  0  0  0  0  0  0  0  0  0  0
  -88.8019   27.2097    1.8213 C   0  0  0  0  0  0  0  0  0  0  0  0
  -89.4482   26.0318    2.5263 C   0  0  0  0  0  0  0  0  0  0  0  0
  -88.4916   25.3140    3.2685 O   0  0  0  0  0  0  0  0  0  0  0  0
  -89.0348   24.6364    3.7841 H   0  0  0  0  0  0  0  0  0  0  0  0
  -90.8784   28.5767    1.4932 C   0  0  0  0  0  0  0  0  0  0  0  0
  -89.8563   27.7076    0.8393 C   0  0  0  0  0  0  0  0  0  0  0  0
 23 24  1  0  0  0
 24 19  1  0  0  0
 19 20  1  0  0  0
 20 21  1  0  0  0
 19 17  1  0  0  0
 17  1  1  0  0  0
  1  2  1  0  0  0
  2  3  2  0  0  0
  3  4  1  0  0  0
  4  5  2  0  0  0
  5  6  1  0  0  0
  6  7  2  0  0  0
  7 10  1  0  0  0
 10 11  2  0  0  0
 11 12  1  0  0  0
 12 13  2  0  0  0
 13 14  1  0  0  0
 14 15  1  0  0  0
 14 16  2  0  0  0
  7  8  1  0  0  0
  8  9  1  0  0  0
  9  1  2  0  0  0
  8  4  1  0  0  0
 16 10  1  0  0  0
 21 22  1  0  0  0
 17 18  1  0  0  0
M  END
> <minimizedAffinity>
-7.47317

> <CNNscore>
0.5810770392

> <CNNaffinity>
6.3223543167

> <CNN_VS>
3.6737749577

> <CNNaffinity_variance>
0.0291534867

$$$$
[H]OC([H])([H])[C@@]([H])(N([H])c1nn2c(-c3c([H])c([H])c([H])c(Cl)c3[H])c([H])nc2c([H])c1[H])C([H])([H])C([H])([H])[H]


 24 26  0  0  0  0  0  0  0  0999 V2000
  -85.1908   30.9236    0.0847 C   0  0  0  0  0  0  0  0  0  0  0  0
  -84.5048   32.0688   -0.2228 C   0  0  0  0  0  0  0  0  0  0  0  0
  -85.1621   33.1158   -0.8191 C   0  0  0  0  0  0  0  0  0  0  0  0
  -86.5076   32.9772   -1.0910 C   0  0  0  0  0  0  0  0  0  0  0  0
  -87.4180   33.7868   -1.6505 N   0  0  0  0  0  0  0  0  0  0  0  0
  -88.5952   33.1467   -1.6724 C   0  0  0  0  0  0  0  0  0  0  0  0
  -88.4436   31.8881   -1.1121 C   0  0  0  0  0  0  0  0  0  0  0  0
  -87.1454   31.8142   -0.7635 N   0  0  0  0  0  0  0  0  0  0  0  0
  -86.4915   30.8307   -0.1948 N   0  0  0  0  0  0  0  0  0  0  0  0
  -89.5304   30.9198   -0.9756 C   0  0  0  0  0  0  0  0  0  0  0  0
  -90.3633   30.6615   -2.0743 C   0  0  0  0  0  0  0  0  0  0  0  0
  -91.4005   29.7789   -2.0474 C   0  0  0  0  0  0  0  0  0  0  0  0
  -91.6822   29.0798   -0.8971 C   0  0  0  0  0  0  0  0  0  0  0  0
  -90.8838   29.3101    0.1991 C   0  0  0  0  0  0  0  0  0  0  0  0
  -91.2291   28.4315    1.6629 Cl  0  0  0  0  0  0  0  0  0  0  0  0
  -89.8213   30.2213    0.1538 C   0  0  0  0  0  0  0  0  0  0  0  0
  -84.5388   29.8193    0.6810 N   0  0  0  0  0  0  0  0  0  0  0  0
  -84.4815   28.9299    0.1508 H   0  0  0  0  0  0  0  0  0  0  0  0
  -83.9670   29.9015    1.9781 C   0  0  0  0  0  0  0  0  0  0  0  0
  -83.1889   28.6560    2.3597 C   0  0  0  0  0  0  0  0  0  0  0  0
  -84.0452   27.6909    2.9223 O   0  0  0  0  0  0  0  0  0  0  0  0
  -83.4619   26.8733    3.0287 H   0  0  0  0  0  0  0  0  0  0  0  0
  -85.0485   31.4213    3.6540 C   0  0  0  0  0  0  0  0  0  0  0  0
  -85.0275   30.0510    3.0628 C   0  0  0  0  0  0  0  0  0  0  0  0
 23 24  1  0  0  0
 24 19  1  0  0  0
 19 20  1  0  0  0
 20 21  1  0  0  0
 19 17  1  0  0  0
 17  1  1  0  0  0
  1  2  1  0  0  0
  2  3  2  0  0  0
  3  4  1  0  0  0
  4  5  2  0  0  0
  5  6  1  0  0  0
  6  7  2  0  0  0
  7 10  1  0  0  0
 10 11  2  0  0  0
 11 12  1  0  0  0
 12 13  2  0  0  0
 13 14  1  0  0  0
 14 15  1  0  0  0
 14 16  2  0  0  0
  7  8  1  0  0  0
  8  9  1  0  0  0
  9  1  2  0  0  0
  8  4  1  0  0  0
 16 10  1  0  0  0
 21 22  1  0  0  0
 17 18  1  0  0  0
M  END
> <minimizedAffinity>
-7.01646

> <CNNscore>
0.4576992095

> <CNNaffinity>
6.3607201576

> <CNN_VS>
2.9112966061

> <CNNaffinity_variance>
0.1986207813

$$$$
[H]c1nc(N([H])C(=O)c2nc(-c3c([H])c([H])c4c(c3[H])C([H])([H])C([H])([H])O4)sc2[H])c([H])c(C#N)c1[H]


 26 29  0  0  0  0  0  0  0  0999 V2000
  -84.3986   28.9339    1.6800 C   0  0  0  0  0  0  0  0  0  0  0  0
  -83.1846   29.4993    2.0215 C   0  0  0  0  0  0  0  0  0  0  0  0
  -83.2809   31.0196    1.2564 S   0  0  0  0  0  0  0  0  0  0  0  0
  -84.8340   30.8526    0.5569 C   0  0  0  0  0  0  0  0  0  0  0  0
  -85.1892   29.6587    0.9421 N   0  0  0  0  0  0  0  0  0  0  0  0
  -85.5779   31.8333   -0.2768 C   0  0  0  0  0  0  0  0  0  0  0  0
  -85.0675   33.0805   -0.5314 C   0  0  0  0  0  0  0  0  0  0  0  0
  -85.7703   33.9973   -1.3157 C   0  0  0  0  0  0  0  0  0  0  0  0
  -86.9967   33.6729   -1.8552 C   0  0  0  0  0  0  0  0  0  0  0  0
  -87.9206   34.3643   -2.6641 O   0  0  0  0  0  0  0  0  0  0  0  0
  -89.2105   33.7768   -2.4204 C   0  0  0  0  0  0  0  0  0  0  0  0
  -88.8041   32.3270   -2.2808 C   0  0  0  0  0  0  0  0  0  0  0  0
  -87.4966   32.4189   -1.5919 C   0  0  0  0  0  0  0  0  0  0  0  0
  -86.7999   31.5046   -0.8121 C   0  0  0  0  0  0  0  0  0  0  0  0
  -83.8594   26.8925    2.7194 O   0  0  0  0  0  0  0  0  0  0  0  0
  -84.7855   27.5925    2.1299 C   0  0  0  0  0  0  0  0  0  0  0  0
  -86.0162   26.9753    2.0140 N   0  0  0  0  0  0  0  0  0  0  0  0
  -86.1139   25.9662    2.4584 H   0  0  0  0  0  0  0  0  0  0  0  0
  -87.1441   27.3266    1.2447 C   0  0  0  0  0  0  0  0  0  0  0  0
  -87.1514   27.6198   -0.0789 C   0  0  0  0  0  0  0  0  0  0  0  0
  -88.2927   28.0433   -0.7548 C   0  0  0  0  0  0  0  0  0  0  0  0
  -89.4512   28.1566   -0.0160 C   0  0  0  0  0  0  0  0  0  0  0  0
  -89.4318   27.8510    1.3380 C   0  0  0  0  0  0  0  0  0  0  0  0
  -88.3269   27.4545    1.9370 N   0  0  0  0  0  0  0  0  0  0  0  0
  -88.2685   28.3480   -2.1522 C   0  0  0  0  0  0  0  0  0  0  0  0
  -88.2303   28.5994   -3.2817 N   0  0  0  0  0  0  0  0  0  0  0  0
 15 16  2  0  0  0
 16 17  1  0  0  0
 17 19  1  0  0  0
 19 20  2  0  0  0
 20 21  1  0  0  0
 21 22  2  0  0  0
 22 23  1  0  0  0
 23 24  2  0  0  0
 21 25  1  0  0  0
 25 26  3  0  0  0
 16  1  1  0  0  0
  1  2  2  0  0  0
  2  3  1  0  0  0
  3  4  1  0  0  0
  4  5  2  0  0  0
  4  6  1  0  0  0
  6  7  2  0  0  0
  7  8  1  0  0  0
  8  9  2  0  0  0
  9 10  1  0  0  0
 10 11  1  0  0  0
 11 12  1  0  0  0
 12 13  1  0  0  0
 13 14  2  0  0  0
 24 19  1  0  0  0
  5  1  1  0  0  0
 14  6  1  0  0  0
 13  9  1  0  0  0
 17 18  1  0  0  0
M  END
> <minimizedAffinity>
-8.34030

> <CNNscore>
0.7714279890

> <CNNaffinity>
7.0410184860

> <CNN_VS>
5.4316387177

> <CNNaffinity_variance>
0.3911898136

$$$$
[H]c1nc(N([H])C(=O)c2nc(-c3c([H])c([H])c4c(c3[H])C([H])([H])C([H])([H])O4)sc2[H])c([H])c(C#N)c1[H]


 26 29  0  0  0  0  0  0  0  0999 V2000
  -87.5717   28.3079    0.1851 C   0  0  0  0  0  0  0  0  0  0  0  0
  -87.7041   27.4917   -0.9223 C   0  0  0  0  0  0  0  0  0  0  0  0
  -87.6420   28.6216   -2.1972 S   0  0  0  0  0  0  0  0  0  0  0  0
  -87.4544   30.0446   -1.2649 C   0  0  0  0  0  0  0  0  0  0  0  0
  -87.4495   29.5834   -0.0453 N   0  0  0  0  0  0  0  0  0  0  0  0
  -87.3286   31.4471   -1.7417 C   0  0  0  0  0  0  0  0  0  0  0  0
  -86.7357   32.4103   -0.9661 C   0  0  0  0  0  0  0  0  0  0  0  0
  -86.6197   33.7259   -1.4194 C   0  0  0  0  0  0  0  0  0  0  0  0
  -87.0986   34.0917   -2.6593 C   0  0  0  0  0  0  0  0  0  0  0  0
  -87.1285   35.3054   -3.3745 O   0  0  0  0  0  0  0  0  0  0  0  0
  -88.2256   35.2176   -4.3004 C   0  0  0  0  0  0  0  0  0  0  0  0
  -88.1083   33.7617   -4.6918 C   0  0  0  0  0  0  0  0  0  0  0  0
  -87.6907   33.1157   -3.4265 C   0  0  0  0  0  0  0  0  0  0  0  0
  -87.8076   31.8061   -2.9785 C   0  0  0  0  0  0  0  0  0  0  0  0
  -88.7039   27.3678    2.0217 O   0  0  0  0  0  0  0  0  0  0  0  0
  -87.5591   27.7706    1.5499 C   0  0  0  0  0  0  0  0  0  0  0  0
  -86.4806   27.6299    2.4019 N   0  0  0  0  0  0  0  0  0  0  0  0
  -86.6772   27.1604    3.3849 H   0  0  0  0  0  0  0  0  0  0  0  0
  -85.1782   28.1636    2.3209 C   0  0  0  0  0  0  0  0  0  0  0  0
  -84.8456   29.4006    1.8771 C   0  0  0  0  0  0  0  0  0  0  0  0
  -83.5273   29.8287    1.7442 C   0  0  0  0  0  0  0  0  0  0  0  0
  -82.5401   28.9306    2.0905 C   0  0  0  0  0  0  0  0  0  0  0  0
  -82.8934   27.6678    2.5461 C   0  0  0  0  0  0  0  0  0  0  0  0
  -84.1556   27.3049    2.6548 N   0  0  0  0  0  0  0  0  0  0  0  0
  -83.2074   31.1399    1.2704 C   0  0  0  0  0  0  0  0  0  0  0  0
  -82.9480   32.1943    0.8688 N   0  0  0  0  0  0  0  0  0  0  0  0
 15 16  2  0  0  0
 16 17  1  0  0  0
 17 19  1  0  0  0
 19 20  2  0  0  0
 20 21  1  0  0  0
 21 22  2  0  0  0
 22 23  1  0  0  0
 23 24  2  0  0  0
 21 25  1  0  0  0
 25 26  3  0  0  0
 16  1  1  0  0  0
  1  2  2  0  0  0
  2  3  1  0  0  0
  3  4  1  0  0  0
  4  5  2  0  0  0
  4  6  1  0  0  0
  6  7  2  0  0  0
  7  8  1  0  0  0
  8  9  2  0  0  0
  9 10  1  0  0  0
 10 11  1  0  0  0
 11 12  1  0  0  0
 12 13  1  0  0  0
 13 14  2  0  0  0
 24 19  1  0  0  0
  5  1  1  0  0  0
 14  6  1  0  0  0
 13  9  1  0  0  0
 17 18  1  0  0  0
M  END
> <minimizedAffinity>
-8.81270

> <CNNscore>
0.6559696198

> <CNNaffinity>
6.8577013016

> <CNN_VS>
4.4984436035

> <CNNaffinity_variance>
0.3224557340

$$$$
[H]c1nc(N([H])C(=O)c2nc(-c3c([H])c([H])c4c(c3[H])C([H])([H])C([H])([H])O4)sc2[H])c([H])c(C#N)c1[H]


 26 29  0  0  0  0  0  0  0  0999 V2000
  -87.2458   32.4033   -2.5805 C   0  0  0  0  0  0  0  0  0  0  0  0
  -87.6029   32.2138   -3.9021 C   0  0  0  0  0  0  0  0  0  0  0  0
  -88.1454   30.5978   -3.8880 S   0  0  0  0  0  0  0  0  0  0  0  0
  -87.8915   30.2603   -2.2294 C   0  0  0  0  0  0  0  0  0  0  0  0
  -87.4119   31.3876   -1.7831 N   0  0  0  0  0  0  0  0  0  0  0  0
  -88.1576   28.9944   -1.4968 C   0  0  0  0  0  0  0  0  0  0  0  0
  -88.7480   27.9244   -2.1192 C   0  0  0  0  0  0  0  0  0  0  0  0
  -88.9951   26.7376   -1.4263 C   0  0  0  0  0  0  0  0  0  0  0  0
  -88.6520   26.6099   -0.0973 C   0  0  0  0  0  0  0  0  0  0  0  0
  -88.7705   25.5693    0.8455 O   0  0  0  0  0  0  0  0  0  0  0  0
  -88.7940   26.1841    2.1454 C   0  0  0  0  0  0  0  0  0  0  0  0
  -87.7940   27.2951    1.9162 C   0  0  0  0  0  0  0  0  0  0  0  0
  -88.0606   27.6907    0.5144 C   0  0  0  0  0  0  0  0  0  0  0  0
  -87.8135   28.8726   -0.1721 C   0  0  0  0  0  0  0  0  0  0  0  0
  -87.1587   34.7526   -2.6875 O   0  0  0  0  0  0  0  0  0  0  0  0
  -86.7162   33.6816   -2.0938 C   0  0  0  0  0  0  0  0  0  0  0  0
  -85.8077   33.8969   -1.0754 N   0  0  0  0  0  0  0  0  0  0  0  0
  -85.5663   34.9500   -0.8343 H   0  0  0  0  0  0  0  0  0  0  0  0
  -84.9653   32.9920   -0.3980 C   0  0  0  0  0  0  0  0  0  0  0  0
  -85.3366   32.1316    0.5817 C   0  0  0  0  0  0  0  0  0  0  0  0
  -84.4302   31.3265    1.2666 C   0  0  0  0  0  0  0  0  0  0  0  0
  -83.1036   31.4315    0.9059 C   0  0  0  0  0  0  0  0  0  0  0  0
  -82.7361   32.3142   -0.1006 C   0  0  0  0  0  0  0  0  0  0  0  0
  -83.6290   33.0584   -0.7215 N   0  0  0  0  0  0  0  0  0  0  0  0
  -84.8520   30.4297    2.2980 C   0  0  0  0  0  0  0  0  0  0  0  0
  -85.1749   29.7011    3.1378 N   0  0  0  0  0  0  0  0  0  0  0  0
 15 16  2  0  0  0
 16 17  1  0  0  0
 17 19  1  0  0  0
 19 20  2  0  0  0
 20 21  1  0  0  0
 21 22  2  0  0  0
 22 23  1  0  0  0
 23 24  2  0  0  0
 21 25  1  0  0  0
 25 26  3  0  0  0
 16  1  1  0  0  0
  1  2  2  0  0  0
  2  3  1  0  0  0
  3  4  1  0  0  0
  4  5  2  0  0  0
  4  6  1  0  0  0
  6  7  2  0  0  0
  7  8  1  0  0  0
  8  9  2  0  0  0
  9 10  1  0  0  0
 10 11  1  0  0  0
 11 12  1  0  0  0
 12 13  1  0  0  0
 13 14  2  0  0  0
 24 19  1  0  0  0
  5  1  1  0  0  0
 14  6  1  0  0  0
 13  9  1  0  0  0
 17 18  1  0  0  0
M  END
> <minimizedAffinity>
-8.37827

> <CNNscore>
0.6351767778

> <CNNaffinity>
6.8229055405

> <CNN_VS>
4.3337512016

> <CNNaffinity_variance>
0.2059189379

$$$$
[H]c1nc(N([H])C(=O)c2nc(-c3c([H])c([H])c4c(c3[H])C([H])([H])C([H])([H])O4)sc2[H])c([H])c(C#N)c1[H]


 26 29  0  0  0  0  0  0  0  0999 V2000
  -85.9505   32.4496   -0.7288 C   0  0  0  0  0  0  0  0  0  0  0  0
  -86.8777   33.4226   -1.0503 C   0  0  0  0  0  0  0  0  0  0  0  0
  -88.2884   32.4951   -1.2862 S   0  0  0  0  0  0  0  0  0  0  0  0
  -87.6297   30.9478   -0.9680 C   0  0  0  0  0  0  0  0  0  0  0  0
  -86.3830   31.2219   -0.7021 N   0  0  0  0  0  0  0  0  0  0  0  0
  -88.3199   29.6313   -0.9917 C   0  0  0  0  0  0  0  0  0  0  0  0
  -88.9599   29.1853   -2.1197 C   0  0  0  0  0  0  0  0  0  0  0  0
  -89.6062   27.9476   -2.1363 C   0  0  0  0  0  0  0  0  0  0  0  0
  -89.6181   27.1408   -1.0186 C   0  0  0  0  0  0  0  0  0  0  0  0
  -90.1700   25.8757   -0.7343 O   0  0  0  0  0  0  0  0  0  0  0  0
  -90.3669   25.8164    0.6891 C   0  0  0  0  0  0  0  0  0  0  0  0
  -89.1304   26.5579    1.1451 C   0  0  0  0  0  0  0  0  0  0  0  0
  -88.9724   27.6004    0.1054 C   0  0  0  0  0  0  0  0  0  0  0  0
  -88.3286   28.8311    0.1253 C   0  0  0  0  0  0  0  0  0  0  0  0
  -83.9748   33.6312   -1.2179 O   0  0  0  0  0  0  0  0  0  0  0  0
  -84.5537   32.7772   -0.4235 C   0  0  0  0  0  0  0  0  0  0  0  0
  -83.7707   32.2983    0.6092 N   0  0  0  0  0  0  0  0  0  0  0  0
  -82.7442   32.7049    0.6890 H   0  0  0  0  0  0  0  0  0  0  0  0
  -83.9816   31.2160    1.4877 C   0  0  0  0  0  0  0  0  0  0  0  0
  -83.1935   30.1200    1.6122 C   0  0  0  0  0  0  0  0  0  0  0  0
  -83.5120   29.0481    2.4418 C   0  0  0  0  0  0  0  0  0  0  0  0
  -84.6874   29.1384    3.1568 C   0  0  0  0  0  0  0  0  0  0  0  0
  -85.4846   30.2669    3.0229 C   0  0  0  0  0  0  0  0  0  0  0  0
  -85.1437   31.2580    2.2240 N   0  0  0  0  0  0  0  0  0  0  0  0
  -82.6612   27.9034    2.5503 C   0  0  0  0  0  0  0  0  0  0  0  0
  -81.9747   26.9773    2.6573 N   0  0  0  0  0  0  0  0  0  0  0  0
 15 16  2  0  0  0
 16 17  1  0  0  0
 17 19  1  0  0  0
 19 20  2  0  0  0
 20 21  1  0  0  0
 21 22  2  0  0  0
 22 23  1  0  0  0
 23 24  2  0  0  0
 21 25  1  0  0  0
 25 26  3  0  0  0
 16  1  1  0  0  0
  1  2  2  0  0  0
  2  3  1  0  0  0
  3  4  1  0  0  0
  4  5  2  0  0  0
  4  6  1  0  0  0
  6  7  2  0  0  0
  7  8  1  0  0  0
  8  9  2  0  0  0
  9 10  1  0  0  0
 10 11  1  0  0  0
 11 12  1  0  0  0
 12 13  1  0  0  0
 13 14  2  0  0  0
 24 19  1  0  0  0
  5  1  1  0  0  0
 14  6  1  0  0  0
 13  9  1  0  0  0
 17 18  1  0  0  0
M  END
> <minimizedAffinity>
-8.00116

> <CNNscore>
0.6231194139

> <CNNaffinity>
6.8917417526

> <CNN_VS>
4.2943782806

> <CNNaffinity_variance>
0.2869094312

$$$$
[H]c1nc(N([H])C(=O)c2nc(-c3c([H])c([H])c4c(c3[H])C([H])([H])C([H])([H])O4)sc2[H])c([H])c(C#N)c1[H]


 26 29  0  0  0  0  0  0  0  0999 V2000
  -84.5609   30.9371    0.6133 C   0  0  0  0  0  0  0  0  0  0  0  0
  -83.4401   31.7098    0.3750 C   0  0  0  0  0  0  0  0  0  0  0  0
  -84.0727   32.9453   -0.6146 S   0  0  0  0  0  0  0  0  0  0  0  0
  -85.7000   32.4177   -0.6684 C   0  0  0  0  0  0  0  0  0  0  0  0
  -85.6706   31.3394    0.0641 N   0  0  0  0  0  0  0  0  0  0  0  0
  -86.8474   33.0441   -1.3764 C   0  0  0  0  0  0  0  0  0  0  0  0
  -88.1255   32.5749   -1.2114 C   0  0  0  0  0  0  0  0  0  0  0  0
  -89.1995   33.1675   -1.8784 C   0  0  0  0  0  0  0  0  0  0  0  0
  -89.0034   34.2407   -2.7212 C   0  0  0  0  0  0  0  0  0  0  0  0
  -89.8621   35.0296   -3.5124 O   0  0  0  0  0  0  0  0  0  0  0  0
  -89.0638   35.5782   -4.5755 C   0  0  0  0  0  0  0  0  0  0  0  0
  -87.7829   35.8436   -3.8169 C   0  0  0  0  0  0  0  0  0  0  0  0
  -87.7167   34.7010   -2.8773 C   0  0  0  0  0  0  0  0  0  0  0  0
  -86.6463   34.1137   -2.2152 C   0  0  0  0  0  0  0  0  0  0  0  0
  -83.5861   29.7019    2.3633 O   0  0  0  0  0  0  0  0  0  0  0  0
  -84.5113   29.7318    1.4477 C   0  0  0  0  0  0  0  0  0  0  0  0
  -85.3297   28.6201    1.3909 N   0  0  0  0  0  0  0  0  0  0  0  0
  -85.1505   27.8277    2.1428 H   0  0  0  0  0  0  0  0  0  0  0  0
  -86.2506   28.2147    0.4034 C   0  0  0  0  0  0  0  0  0  0  0  0
  -86.5324   28.8729   -0.7478 C   0  0  0  0  0  0  0  0  0  0  0  0
  -87.5191   28.4555   -1.6371 C   0  0  0  0  0  0  0  0  0  0  0  0
  -88.2207   27.3164   -1.3033 C   0  0  0  0  0  0  0  0  0  0  0  0
  -87.9211   26.6497   -0.1232 C   0  0  0  0  0  0  0  0  0  0  0  0
  -86.9786   27.0823    0.6901 N   0  0  0  0  0  0  0  0  0  0  0  0
  -87.7954   29.1728   -2.8434 C   0  0  0  0  0  0  0  0  0  0  0  0
  -88.0002   29.7533   -3.8239 N   0  0  0  0  0  0  0  0  0  0  0  0
 15 16  2  0  0  0
 16 17  1  0  0  0
 17 19  1  0  0  0
 19 20  2  0  0  0
 20 21  1  0  0  0
 21 22  2  0  0  0
 22 23  1  0  0  0
 23 24  2  0  0  0
 21 25  1  0  0  0
 25 26  3  0  0  0
 16  1  1  0  0  0
  1  2  2  0  0  0
  2  3  1  0  0  0
  3  4  1  0  0  0
  4  5  2  0  0  0
  4  6  1  0  0  0
  6  7  2  0  0  0
  7  8  1  0  0  0
  8  9  2  0  0  0
  9 10  1  0  0  0
 10 11  1  0  0  0
 11 12  1  0  0  0
 12 13  1  0  0  0
 13 14  2  0  0  0
 24 19  1  0  0  0
  5  1  1  0  0  0
 14  6  1  0  0  0
 13  9  1  0  0  0
 17 18  1  0  0  0
M  END
> <minimizedAffinity>
-8.23315

> <CNNscore>
0.5932456255

> <CNNaffinity>
6.5984792709

> <CNN_VS>
3.9145190716

> <CNNaffinity_variance>
0.0662456304

$$$$
[H]c1nc(N([H])C(=O)c2nc(-c3c([H])c([H])c4c(c3[H])C([H])([H])C([H])([H])O4)sc2[H])c([H])c(C#N)c1[H]


 26 29  0  0  0  0  0  0  0  0999 V2000
  -88.1992   30.1397   -1.5965 C   0  0  0  0  0  0  0  0  0  0  0  0
  -87.8356   29.5039   -2.7684 C   0  0  0  0  0  0  0  0  0  0  0  0
  -87.8603   30.7915   -3.8853 S   0  0  0  0  0  0  0  0  0  0  0  0
  -88.3242   32.0448   -2.8160 C   0  0  0  0  0  0  0  0  0  0  0  0
  -88.4333   31.4178   -1.6781 N   0  0  0  0  0  0  0  0  0  0  0  0
  -88.5423   33.4829   -3.1235 C   0  0  0  0  0  0  0  0  0  0  0  0
  -87.5559   34.4119   -2.9117 C   0  0  0  0  0  0  0  0  0  0  0  0
  -87.7661   35.7612   -3.2028 C   0  0  0  0  0  0  0  0  0  0  0  0
  -88.9717   36.1957   -3.7111 C   0  0  0  0  0  0  0  0  0  0  0  0
  -89.4720   37.4563   -4.0933 O   0  0  0  0  0  0  0  0  0  0  0  0
  -90.9044   37.3880   -3.9833 C   0  0  0  0  0  0  0  0  0  0  0  0
  -91.1262   35.9716   -4.4644 C   0  0  0  0  0  0  0  0  0  0  0  0
  -89.9519   35.2533   -3.9186 C   0  0  0  0  0  0  0  0  0  0  0  0
  -89.7459   33.9104   -3.6300 C   0  0  0  0  0  0  0  0  0  0  0  0
  -89.4795   28.9286   -0.0367 O   0  0  0  0  0  0  0  0  0  0  0  0
  -88.3082   29.4200   -0.3230 C   0  0  0  0  0  0  0  0  0  0  0  0
  -87.3197   29.1893    0.6143 N   0  0  0  0  0  0  0  0  0  0  0  0
  -87.5995   28.5843    1.4981 H   0  0  0  0  0  0  0  0  0  0  0  0
  -86.0377   29.7602    0.7476 C   0  0  0  0  0  0  0  0  0  0  0  0
  -85.6246   30.9355    0.2129 C   0  0  0  0  0  0  0  0  0  0  0  0
  -84.3143   31.3954    0.3151 C   0  0  0  0  0  0  0  0  0  0  0  0
  -83.4228   30.5968    0.9995 C   0  0  0  0  0  0  0  0  0  0  0  0
  -83.8583   29.3968    1.5448 C   0  0  0  0  0  0  0  0  0  0  0  0
  -85.1092   29.0004    1.4222 N   0  0  0  0  0  0  0  0  0  0  0  0
  -83.9076   32.6393   -0.2622 C   0  0  0  0  0  0  0  0  0  0  0  0
  -83.5615   33.6381   -0.7345 N   0  0  0  0  0  0  0  0  0  0  0  0
 15 16  2  0  0  0
 16 17  1  0  0  0
 17 19  1  0  0  0
 19 20  2  0  0  0
 20 21  1  0  0  0
 21 22  2  0  0  0
 22 23  1  0  0  0
 23 24  2  0  0  0
 21 25  1  0  0  0
 25 26  3  0  0  0
 16  1  1  0  0  0
  1  2  2  0  0  0
  2  3  1  0  0  0
  3  4  1  0  0  0
  4  5  2  0  0  0
  4  6  1  0  0  0
  6  7  2  0  0  0
  7  8  1  0  0  0
  8  9  2  0  0  0
  9 10  1  0  0  0
 10 11  1  0  0  0
 11 12  1  0  0  0
 12 13  1  0  0  0
 13 14  2  0  0  0
 24 19  1  0  0  0
  5  1  1  0  0  0
 14  6  1  0  0  0
 13  9  1  0  0  0
 17 18  1  0  0  0
M  END
> <minimizedAffinity>
-7.67231

> <CNNscore>
0.5208935142

> <CNNaffinity>
6.4729790688

> <CNN_VS>
3.3717327118

> <CNNaffinity_variance>
0.2686115801

$$$$
[H]c1nc(N([H])C(=O)c2nc(-c3c([H])c([H])c4c(c3[H])C([H])([H])C([H])([H])O4)sc2[H])c([H])c(C#N)c1[H]


 26 29  0  0  0  0  0  0  0  0999 V2000
  -87.6817   30.7290   -1.1465 C   0  0  0  0  0  0  0  0  0  0  0  0
  -87.7595   30.2157   -2.4273 C   0  0  0  0  0  0  0  0  0  0  0  0
  -88.3397   28.6395   -2.1362 S   0  0  0  0  0  0  0  0  0  0  0  0
  -88.4484   28.7213   -0.4301 C   0  0  0  0  0  0  0  0  0  0  0  0
  -88.0403   29.9340   -0.1799 N   0  0  0  0  0  0  0  0  0  0  0  0
  -88.8986   27.6655    0.5149 C   0  0  0  0  0  0  0  0  0  0  0  0
  -89.1168   26.3795    0.0912 C   0  0  0  0  0  0  0  0  0  0  0  0
  -89.5391   25.3918    0.9834 C   0  0  0  0  0  0  0  0  0  0  0  0
  -89.7481   25.6834    2.3144 C   0  0  0  0  0  0  0  0  0  0  0  0
  -90.1626   24.9235    3.4264 O   0  0  0  0  0  0  0  0  0  0  0  0
  -90.7455   25.8427    4.3664 C   0  0  0  0  0  0  0  0  0  0  0  0
  -89.8153   27.0198    4.1770 C   0  0  0  0  0  0  0  0  0  0  0  0
  -89.5254   26.9770    2.7255 C   0  0  0  0  0  0  0  0  0  0  0  0
  -89.1053   27.9617    1.8406 C   0  0  0  0  0  0  0  0  0  0  0  0
  -87.9721   33.0543   -1.3647 O   0  0  0  0  0  0  0  0  0  0  0  0
  -87.2288   32.0993   -0.8843 C   0  0  0  0  0  0  0  0  0  0  0  0
  -86.1115   32.5094   -0.1826 N   0  0  0  0  0  0  0  0  0  0  0  0
  -85.9682   33.6005   -0.0628 H   0  0  0  0  0  0  0  0  0  0  0  0
  -84.9894   31.7767    0.2553 C   0  0  0  0  0  0  0  0  0  0  0  0
  -85.0113   30.6672    1.0339 C   0  0  0  0  0  0  0  0  0  0  0  0
  -83.8556   30.0451    1.4990 C   0  0  0  0  0  0  0  0  0  0  0  0
  -82.6515   30.6067    1.1306 C   0  0  0  0  0  0  0  0  0  0  0  0
  -82.6421   31.7413    0.3309 C   0  0  0  0  0  0  0  0  0  0  0  0
  -83.7618   32.2977   -0.0856 N   0  0  0  0  0  0  0  0  0  0  0  0
  -83.9107   28.8763    2.3217 C   0  0  0  0  0  0  0  0  0  0  0  0
  -83.9722   27.9255    2.9794 N   0  0  0  0  0  0  0  0  0  0  0  0
 15 16  2  0  0  0
 16 17  1  0  0  0
 17 19  1  0  0  0
 19 20  2  0  0  0
 20 21  1  0  0  0
 21 22  2  0  0  0
 22 23  1  0  0  0
 23 24  2  0  0  0
 21 25  1  0  0  0
 25 26  3  0  0  0
 16  1  1  0  0  0
  1  2  2  0  0  0
  2  3  1  0  0  0
  3  4  1  0  0  0
  4  5  2  0  0  0
  4  6  1  0  0  0
  6  7  2  0  0  0
  7  8  1  0  0  0
  8  9  2  0  0  0
  9 10  1  0  0  0
 10 11  1  0  0  0
 11 12  1  0  0  0
 12 13  1  0  0  0
 13 14  2  0  0  0
 24 19  1  0  0  0
  5  1  1  0  0  0
 14  6  1  0  0  0
 13  9  1  0  0  0
 17 18  1  0  0  0
M  END
> <minimizedAffinity>
-8.42640

> <CNNscore>
0.4026950598

> <CNNaffinity>
6.6364822388

> <CNN_VS>
2.6724786758

> <CNNaffinity_variance>
0.1878910959

$$$$
[H]c1nc(N([H])C(=O)c2nc(-c3c([H])c([H])c4c(c3[H])C([H])([H])C([H])([H])O4)sc2[H])c([H])c(C#N)c1[H]


 26 29  0  0  0  0  0  0  0  0999 V2000
  -87.4738   32.6753   -2.6657 C   0  0  0  0  0  0  0  0  0  0  0  0
  -87.0063   33.9540   -2.4286 C   0  0  0  0  0  0  0  0  0  0  0  0
  -86.0704   33.7275   -1.0219 S   0  0  0  0  0  0  0  0  0  0  0  0
  -86.3229   32.0470   -0.8183 C   0  0  0  0  0  0  0  0  0  0  0  0
  -87.0990   31.7551   -1.8245 N   0  0  0  0  0  0  0  0  0  0  0  0
  -85.7838   31.1576    0.2440 C   0  0  0  0  0  0  0  0  0  0  0  0
  -84.8984   31.6262    1.1807 C   0  0  0  0  0  0  0  0  0  0  0  0
  -84.3958   30.7865    2.1767 C   0  0  0  0  0  0  0  0  0  0  0  0
  -84.7763   29.4632    2.2447 C   0  0  0  0  0  0  0  0  0  0  0  0
  -84.4511   28.3975    3.1074 O   0  0  0  0  0  0  0  0  0  0  0  0
  -84.6690   27.1820    2.3702 C   0  0  0  0  0  0  0  0  0  0  0  0
  -85.9065   27.5762    1.5957 C   0  0  0  0  0  0  0  0  0  0  0  0
  -85.6647   29.0067    1.2991 C   0  0  0  0  0  0  0  0  0  0  0  0
  -86.1665   29.8395    0.3072 C   0  0  0  0  0  0  0  0  0  0  0  0
  -88.5031   31.1004   -4.0795 O   0  0  0  0  0  0  0  0  0  0  0  0
  -88.3391   32.3632   -3.8083 C   0  0  0  0  0  0  0  0  0  0  0  0
  -89.0122   33.2426   -4.6344 N   0  0  0  0  0  0  0  0  0  0  0  0
  -89.6513   32.7996   -5.4223 H   0  0  0  0  0  0  0  0  0  0  0  0
  -88.8795   34.6383   -4.7828 C   0  0  0  0  0  0  0  0  0  0  0  0
  -87.9905   35.2780   -5.5818 C   0  0  0  0  0  0  0  0  0  0  0  0
  -87.8594   36.6639   -5.6118 C   0  0  0  0  0  0  0  0  0  0  0  0
  -88.6878   37.3885   -4.7813 C   0  0  0  0  0  0  0  0  0  0  0  0
  -89.5957   36.7222   -3.9697 C   0  0  0  0  0  0  0  0  0  0  0  0
  -89.6843   35.4073   -3.9733 N   0  0  0  0  0  0  0  0  0  0  0  0
  -86.9099   37.3104   -6.4641 C   0  0  0  0  0  0  0  0  0  0  0  0
  -86.1312   37.8171   -7.1549 N   0  0  0  0  0  0  0  0  0  0  0  0
 15 16  2  0  0  0
 16 17  1  0  0  0
 17 19  1  0  0  0
 19 20  2  0  0  0
 20 21  1  0  0  0
 21 22  2  0  0  0
 22 23  1  0  0  0
 23 24  2  0  0  0
 21 25  1  0  0  0
 25 26  3  0  0  0
 16  1  1  0  0  0
  1  2  2  0  0  0
  2  3  1  0  0  0
  3  4  1  0  0  0
  4  5  2  0  0  0
  4  6  1  0  0  0
  6  7  2  0  0  0
  7  8  1  0  0  0
  8  9  2  0  0  0
  9 10  1  0  0  0
 10 11  1  0  0  0
 11 12  1  0  0  0
 12 13  1  0  0  0
 13 14  2  0  0  0
 24 19  1  0  0  0
  5  1  1  0  0  0
 14  6  1  0  0  0
 13  9  1  0  0  0
 17 18  1  0  0  0
M  END
> <minimizedAffinity>
-7.64350

> <CNNscore>
0.3342471123

> <CNNaffinity>
6.0913867950

> <CNN_VS>
2.0360283852

> <CNNaffinity_variance>
0.0951444060

$$$$
[H]c1nc(N([H])C(=O)c2nc(-c3c([H])c([H])c4c(c3[H])C([H])([H])C([H])([H])O4)sc2[H])c([H])c(C#N)c1[H]


 26 29  0  0  0  0  0  0  0  0999 V2000
  -87.7307   29.5577   -0.5209 C   0  0  0  0  0  0  0  0  0  0  0  0
  -87.3810   28.7615   -1.5951 C   0  0  0  0  0  0  0  0  0  0  0  0
  -88.0001   27.2456   -1.1212 S   0  0  0  0  0  0  0  0  0  0  0  0
  -88.6576   27.7027    0.3914 C   0  0  0  0  0  0  0  0  0  0  0  0
  -88.3713   28.9734    0.4502 N   0  0  0  0  0  0  0  0  0  0  0  0
  -89.3738   26.8522    1.3782 C   0  0  0  0  0  0  0  0  0  0  0  0
  -89.7945   27.3602    2.5806 C   0  0  0  0  0  0  0  0  0  0  0  0
  -90.4673   26.5568    3.5034 C   0  0  0  0  0  0  0  0  0  0  0  0
  -90.7266   25.2308    3.2302 C   0  0  0  0  0  0  0  0  0  0  0  0
  -91.3661   24.1951    3.9402 O   0  0  0  0  0  0  0  0  0  0  0  0
  -90.8328   22.9559    3.4420 C   0  0  0  0  0  0  0  0  0  0  0  0
  -90.7006   23.3098    1.9777 C   0  0  0  0  0  0  0  0  0  0  0  0
  -90.2992   24.7345    2.0206 C   0  0  0  0  0  0  0  0  0  0  0  0
  -89.6297   25.5310    1.1006 C   0  0  0  0  0  0  0  0  0  0  0  0
  -88.2731   31.7916   -1.0249 O   0  0  0  0  0  0  0  0  0  0  0  0
  -87.4084   30.9879   -0.4757 C   0  0  0  0  0  0  0  0  0  0  0  0
  -86.3014   31.5960    0.0844 N   0  0  0  0  0  0  0  0  0  0  0  0
  -86.2657   32.7018    0.0478 H   0  0  0  0  0  0  0  0  0  0  0  0
  -85.0862   31.0416    0.5353 C   0  0  0  0  0  0  0  0  0  0  0  0
  -84.9411   29.8833    1.2245 C   0  0  0  0  0  0  0  0  0  0  0  0
  -83.7145   29.4409    1.7129 C   0  0  0  0  0  0  0  0  0  0  0  0
  -82.6179   30.2389    1.4648 C   0  0  0  0  0  0  0  0  0  0  0  0
  -82.7788   31.4214    0.7556 C   0  0  0  0  0  0  0  0  0  0  0  0
  -83.9604   31.8016    0.3129 N   0  0  0  0  0  0  0  0  0  0  0  0
  -83.5932   28.2147    2.4395 C   0  0  0  0  0  0  0  0  0  0  0  0
  -83.4999   27.2316    3.0438 N   0  0  0  0  0  0  0  0  0  0  0  0
 15 16  2  0  0  0
 16 17  1  0  0  0
 17 19  1  0  0  0
 19 20  2  0  0  0
 20 21  1  0  0  0
 21 22  2  0  0  0
 22 23  1  0  0  0
 23 24  2  0  0  0
 21 25  1  0  0  0
 25 26  3  0  0  0
 16  1  1  0  0  0
  1  2  2  0  0  0
  2  3  1  0  0  0
  3  4  1  0  0  0
  4  5  2  0  0  0
  4  6  1  0  0  0
  6  7  2  0  0  0
  7  8  1  0  0  0
  8  9  2  0  0  0
  9 10  1  0  0  0
 10 11  1  0  0  0
 11 12  1  0  0  0
 12 13  1  0  0  0
 13 14  2  0  0  0
 24 19  1  0  0  0
  5  1  1  0  0  0
 14  6  1  0  0  0
 13  9  1  0  0  0
 17 18  1  0  0  0
M  END
> <minimizedAffinity>
-8.79314

> <CNNscore>
0.3283526897

> <CNNaffinity>
6.4251747131

> <CNN_VS>
2.1097233295

> <CNNaffinity_variance>
0.1143686548

$$$$
[H]c1sc(-c2c([H])c([H])c3c(c2[H])C([H])([H])C([H])([H])O3)nc1C(=O)N([H])c1nc2c([H])c(C(=O)N3C([H])([H])C([H])([H])N(C([H])([H])C4([H])OC([H])([H])C([H])([H])C4([H])[H])C([H])([H])C3([H])[H])c([H])c([H])c2n1[H]


 42 48  0  0  0  0  0  0  0  0999 V2000
  -87.6720   33.3260   -2.6490 C   0  0  0  0  0  0  0  0  0  0  0  0
  -88.8493   33.9191   -2.9553 N   0  0  0  0  0  0  0  0  0  0  0  0
  -88.5918   35.0229   -3.6694 C   0  0  0  0  0  0  0  0  0  0  0  0
  -89.4814   35.9714   -4.2172 C   0  0  0  0  0  0  0  0  0  0  0  0
  -89.0318   37.0333   -4.9146 C   0  0  0  0  0  0  0  0  0  0  0  0
  -87.6352   37.1319   -5.0596 C   0  0  0  0  0  0  0  0  0  0  0  0
  -86.7703   36.2144   -4.5304 C   0  0  0  0  0  0  0  0  0  0  0  0
  -87.2364   35.1374   -3.8214 C   0  0  0  0  0  0  0  0  0  0  0  0
  -86.6963   34.0905   -3.1907 N   0  0  0  0  0  0  0  0  0  0  0  0
  -85.6723   33.8963   -3.1278 H   0  0  0  0  0  0  0  0  0  0  0  0
  -89.8558   38.0602   -5.4718 C   0  0  0  0  0  0  0  0  0  0  0  0
  -90.4249   38.8292   -4.5470 O   0  0  0  0  0  0  0  0  0  0  0  0
  -90.1744   38.4037   -6.7930 N   0  0  0  0  0  0  0  0  0  0  0  0
  -91.0571   39.5892   -6.9266 C   0  0  0  0  0  0  0  0  0  0  0  0
  -92.0374   39.4757   -8.0450 C   0  0  0  0  0  0  0  0  0  0  0  0
  -91.8693   38.3219   -8.8581 N   0  0  0  0  0  0  0  0  0  0  0  0
  -90.4971   38.1452   -9.2192 C   0  0  0  0  0  0  0  0  0  0  0  0
  -89.7464   37.7057   -7.9532 C   0  0  0  0  0  0  0  0  0  0  0  0
  -92.4657   37.1188   -8.3956 C   0  0  0  0  0  0  0  0  0  0  0  0
  -92.6774   36.1170   -9.5073 C   0  0  0  0  0  0  0  0  0  0  0  0
  -94.1461   35.9794   -9.7254 C   0  0  0  0  0  0  0  0  0  0  0  0
  -94.3836   34.4967   -9.7690 C   0  0  0  0  0  0  0  0  0  0  0  0
  -93.0172   33.9200   -9.6539 C   0  0  0  0  0  0  0  0  0  0  0  0
  -92.1833   34.8829   -9.1153 O   0  0  0  0  0  0  0  0  0  0  0  0
  -85.7967   33.0749   -0.6793 O   0  0  0  0  0  0  0  0  0  0  0  0
  -86.4981   32.0588   -0.8828 C   0  0  0  0  0  0  0  0  0  0  0  0
  -87.4867   32.1387   -1.8992 N   0  0  0  0  0  0  0  0  0  0  0  0
  -88.0898   31.3211   -2.1011 H   0  0  0  0  0  0  0  0  0  0  0  0
  -86.3019   30.8163   -0.0909 C   0  0  0  0  0  0  0  0  0  0  0  0
  -85.0749   30.5360    0.4672 C   0  0  0  0  0  0  0  0  0  0  0  0
  -85.3835   29.0483    1.2457 S   0  0  0  0  0  0  0  0  0  0  0  0
  -87.0487   28.8787    0.8128 C   0  0  0  0  0  0  0  0  0  0  0  0
  -87.2532   29.9658    0.1070 N   0  0  0  0  0  0  0  0  0  0  0  0
  -87.9659   27.7851    1.1605 C   0  0  0  0  0  0  0  0  0  0  0  0
  -87.9230   27.2100    2.4108 C   0  0  0  0  0  0  0  0  0  0  0  0
  -88.8161   26.1738    2.7222 C   0  0  0  0  0  0  0  0  0  0  0  0
  -89.7345   25.7350    1.7750 C   0  0  0  0  0  0  0  0  0  0  0  0
  -90.6825   24.7362    1.8993 O   0  0  0  0  0  0  0  0  0  0  0  0
  -91.3005   24.5152    0.6696 C   0  0  0  0  0  0  0  0  0  0  0  0
  -90.8497   25.6332   -0.2221 C   0  0  0  0  0  0  0  0  0  0  0  0
  -89.7704   26.3158    0.5281 C   0  0  0  0  0  0  0  0  0  0  0  0
  -88.8636   27.3465    0.2539 C   0  0  0  0  0  0  0  0  0  0  0  0
 25 26  2  0  0  0
 26 27  1  0  0  0
 27  1  1  0  0  0
  1  2  2  0  0  0
  2  3  1  0  0  0
  3  4  2  0  0  0
  4  5  1  0  0  0
  5  6  2  0  0  0
  6  7  1  0  0  0
  7  8  2  0  0  0
  8  9  1  0  0  0
  5 11  1  0  0  0
 11 12  2  0  0  0
 11 13  1  0  0  0
 13 14  1  0  0  0
 14 15  1  0  0  0
 15 16  1  0  0  0
 16 19  1  0  0  0
 19 20  1  0  0  0
 20 21  1  0  0  0
 21 22  1  0  0  0
 22 23  1  0  0  0
 23 24  1  0  0  0
 16 17  1  0  0  0
 17 18  1  0  0  0
 26 29  1  0  0  0
 29 30  2  0  0  0
 30 31  1  0  0  0
 31 32  1  0  0  0
 32 33  2  0  0  0
 32 34  1  0  0  0
 34 35  2  0  0  0
 35 36  1  0  0  0
 36 37  2  0  0  0
 37 38  1  0  0  0
 38 39  1  0  0  0
 39 40  1  0  0  0
 40 41  1  0  0  0
 41 42  2  0  0  0
  9  1  1  0  0  0
 18 13  1  0  0  0
 33 29  1  0  0  0
 42 34  1  0  0  0
  8  3  1  0  0  0
 24 20  1  0  0  0
 41 37  1  0  0  0
 27 28  1  0  0  0
  9 10  1  0  0  0
M  END
> <minimizedAffinity>
-7.30018

> <CNNscore>
0.1265307516

> <CNNaffinity>
6.2124819756

> <CNN_VS>
0.7860699892

> <CNNaffinity_variance>
0.0382702127

$$$$
[H]c1sc(-c2c([H])c([H])c3c(c2[H])C([H])([H])C([H])([H])O3)nc1C(=O)N([H])c1nc2c([H])c(C(=O)N3C([H])([H])C([H])([H])N(C([H])([H])C4([H])OC([H])([H])C([H])([H])C4([H])[H])C([H])([H])C3([H])[H])c([H])c([H])c2n1[H]


 42 48  0  0  0  0  0  0  0  0999 V2000
  -91.3952   27.2219   -1.8804 C   0  0  0  0  0  0  0  0  0  0  0  0
  -91.1960   26.0818   -2.5818 N   0  0  0  0  0  0  0  0  0  0  0  0
  -92.2640   25.2910   -2.4126 C   0  0  0  0  0  0  0  0  0  0  0  0
  -92.5287   24.0076   -2.9360 C   0  0  0  0  0  0  0  0  0  0  0  0
  -93.6736   23.3565   -2.6507 C   0  0  0  0  0  0  0  0  0  0  0  0
  -94.5763   24.0325   -1.8085 C   0  0  0  0  0  0  0  0  0  0  0  0
  -94.3232   25.2764   -1.2999 C   0  0  0  0  0  0  0  0  0  0  0  0
  -93.1553   25.9312   -1.5946 C   0  0  0  0  0  0  0  0  0  0  0  0
  -92.6035   27.1076   -1.2830 N   0  0  0  0  0  0  0  0  0  0  0  0
  -93.0437   27.8280   -0.6686 H   0  0  0  0  0  0  0  0  0  0  0  0
  -94.0081   22.0430   -3.1052 C   0  0  0  0  0  0  0  0  0  0  0  0
  -93.1019   21.1292   -2.7670 O   0  0  0  0  0  0  0  0  0  0  0  0
  -95.0971   21.5433   -3.8327 N   0  0  0  0  0  0  0  0  0  0  0  0
  -95.0660   20.0772   -4.0612 C   0  0  0  0  0  0  0  0  0  0  0  0
  -95.5974   19.6734   -5.3952 C   0  0  0  0  0  0  0  0  0  0  0  0
  -96.1539   20.7398   -6.1526 N   0  0  0  0  0  0  0  0  0  0  0  0
  -97.0339   21.5323   -5.3514 C   0  0  0  0  0  0  0  0  0  0  0  0
  -96.1626   22.3193   -4.3609 C   0  0  0  0  0  0  0  0  0  0  0  0
  -95.2480   21.5324   -6.9063 C   0  0  0  0  0  0  0  0  0  0  0  0
  -95.5937   21.5602   -8.3773 C   0  0  0  0  0  0  0  0  0  0  0  0
  -96.2548   22.8650   -8.6673 C   0  0  0  0  0  0  0  0  0  0  0  0
  -97.4749   22.5007   -9.4642 C   0  0  0  0  0  0  0  0  0  0  0  0
  -97.3582   21.0268   -9.6286 C   0  0  0  0  0  0  0  0  0  0  0  0
  -96.4983   20.5481   -8.6569 O   0  0  0  0  0  0  0  0  0  0  0  0
  -92.0331   29.7384   -2.7290 O   0  0  0  0  0  0  0  0  0  0  0  0
  -90.8911   29.6147   -2.2325 C   0  0  0  0  0  0  0  0  0  0  0  0
  -90.5113   28.3239   -1.7782 N   0  0  0  0  0  0  0  0  0  0  0  0
  -89.5750   28.1763   -1.3604 H   0  0  0  0  0  0  0  0  0  0  0  0
  -89.9685   30.7751   -2.1245 C   0  0  0  0  0  0  0  0  0  0  0  0
  -90.3328   32.0008   -2.6348 C   0  0  0  0  0  0  0  0  0  0  0  0
  -88.9655   32.9505   -2.2565 S   0  0  0  0  0  0  0  0  0  0  0  0
  -88.0208   31.7312   -1.4755 C   0  0  0  0  0  0  0  0  0  0  0  0
  -88.8119   30.6875   -1.5569 N   0  0  0  0  0  0  0  0  0  0  0  0
  -86.6812   31.8644   -0.8875 C   0  0  0  0  0  0  0  0  0  0  0  0
  -85.9513   33.0177   -1.0695 C   0  0  0  0  0  0  0  0  0  0  0  0
  -84.6784   33.1247   -0.4894 C   0  0  0  0  0  0  0  0  0  0  0  0
  -84.1625   32.0746    0.2617 C   0  0  0  0  0  0  0  0  0  0  0  0
  -82.9395   31.9992    0.9023 O   0  0  0  0  0  0  0  0  0  0  0  0
  -82.7552   30.7184    1.4203 C   0  0  0  0  0  0  0  0  0  0  0  0
  -84.0776   30.0258    1.2804 C   0  0  0  0  0  0  0  0  0  0  0  0
  -84.8992   30.9259    0.4385 C   0  0  0  0  0  0  0  0  0  0  0  0
  -86.1647   30.8555   -0.1557 C   0  0  0  0  0  0  0  0  0  0  0  0
 25 26  2  0  0  0
 26 27  1  0  0  0
 27  1  1  0  0  0
  1  2  2  0  0  0
  2  3  1  0  0  0
  3  4  2  0  0  0
  4  5  1  0  0  0
  5  6  2  0  0  0
  6  7  1  0  0  0
  7  8  2  0  0  0
  8  9  1  0  0  0
  5 11  1  0  0  0
 11 12  2  0  0  0
 11 13  1  0  0  0
 13 14  1  0  0  0
 14 15  1  0  0  0
 15 16  1  0  0  0
 16 19  1  0  0  0
 19 20  1  0  0  0
 20 21  1  0  0  0
 21 22  1  0  0  0
 22 23  1  0  0  0
 23 24  1  0  0  0
 16 17  1  0  0  0
 17 18  1  0  0  0
 26 29  1  0  0  0
 29 30  2  0  0  0
 30 31  1  0  0  0
 31 32  1  0  0  0
 32 33  2  0  0  0
 32 34  1  0  0  0
 34 35  2  0  0  0
 35 36  1  0  0  0
 36 37  2  0  0  0
 37 38  1  0  0  0
 38 39  1  0  0  0
 39 40  1  0  0  0
 40 41  1  0  0  0
 41 42  2  0  0  0
  9  1  1  0  0  0
 18 13  1  0  0  0
 33 29  1  0  0  0
 42 34  1  0  0  0
  8  3  1  0  0  0
 24 20  1  0  0  0
 41 37  1  0  0  0
 27 28  1  0  0  0
  9 10  1  0  0  0
M  END
> <minimizedAffinity>
-7.49730

> <CNNscore>
0.0900794268

> <CNNaffinity>
6.0631837845

> <CNN_VS>
0.5461681485

> <CNNaffinity_variance>
0.3966872692

$$$$
[H]c1sc(-c2c([H])c([H])c3c(c2[H])C([H])([H])C([H])([H])O3)nc1C(=O)N([H])c1nc2c([H])c(C(=O)N3C([H])([H])C([H])([H])N(C([H])([H])C4([H])OC([H])([H])C([H])([H])C4([H])[H])C([H])([H])C3([H])[H])c([H])c([H])c2n1[H]


 42 48  0  0  0  0  0  0  0  0999 V2000
  -88.0153   34.0759   -3.9859 C   0  0  0  0  0  0  0  0  0  0  0  0
  -88.5435   32.9907   -4.5980 N   0  0  0  0  0  0  0  0  0  0  0  0
  -89.0393   32.1760   -3.6573 C   0  0  0  0  0  0  0  0  0  0  0  0
  -89.6861   30.9292   -3.7928 C   0  0  0  0  0  0  0  0  0  0  0  0
  -90.1215   30.2447   -2.7167 C   0  0  0  0  0  0  0  0  0  0  0  0
  -89.8928   30.8478   -1.4657 C   0  0  0  0  0  0  0  0  0  0  0  0
  -89.2668   32.0561   -1.3308 C   0  0  0  0  0  0  0  0  0  0  0  0
  -88.8261   32.7453   -2.4310 C   0  0  0  0  0  0  0  0  0  0  0  0
  -88.2002   33.9041   -2.6569 N   0  0  0  0  0  0  0  0  0  0  0  0
  -87.9000   34.5737   -1.9141 H   0  0  0  0  0  0  0  0  0  0  0  0
  -90.7517   28.9620   -2.7574 C   0  0  0  0  0  0  0  0  0  0  0  0
  -89.8847   27.9605   -2.8827 O   0  0  0  0  0  0  0  0  0  0  0  0
  -92.0949   28.5663   -2.6928 N   0  0  0  0  0  0  0  0  0  0  0  0
  -92.3083   27.0982   -2.7344 C   0  0  0  0  0  0  0  0  0  0  0  0
  -93.5303   26.6978   -3.4902 C   0  0  0  0  0  0  0  0  0  0  0  0
  -94.3365   27.7861   -3.9219 N   0  0  0  0  0  0  0  0  0  0  0  0
  -94.5455   28.7211   -2.8605 C   0  0  0  0  0  0  0  0  0  0  0  0
  -93.2105   29.4418   -2.6195 C   0  0  0  0  0  0  0  0  0  0  0  0
  -93.9609   28.4210   -5.1354 C   0  0  0  0  0  0  0  0  0  0  0  0
  -95.1550   28.7964   -5.9823 C   0  0  0  0  0  0  0  0  0  0  0  0
  -95.7776   27.5359   -6.4794 C   0  0  0  0  0  0  0  0  0  0  0  0
  -95.9883   27.7730   -7.9478 C   0  0  0  0  0  0  0  0  0  0  0  0
  -95.5426   29.1788   -8.1427 C   0  0  0  0  0  0  0  0  0  0  0  0
  -94.7296   29.5280   -7.0797 O   0  0  0  0  0  0  0  0  0  0  0  0
  -88.5450   36.6736   -3.3289 O   0  0  0  0  0  0  0  0  0  0  0  0
  -87.6901   36.5130   -4.2285 C   0  0  0  0  0  0  0  0  0  0  0  0
  -87.3814   35.1796   -4.6075 N   0  0  0  0  0  0  0  0  0  0  0  0
  -86.6796   35.0005   -5.3479 H   0  0  0  0  0  0  0  0  0  0  0  0
  -87.0253   37.6744   -4.8753 C   0  0  0  0  0  0  0  0  0  0  0  0
  -87.7726   38.7406   -5.3229 C   0  0  0  0  0  0  0  0  0  0  0  0
  -86.5633   39.7657   -5.9566 S   0  0  0  0  0  0  0  0  0  0  0  0
  -85.1886   38.7753   -5.6125 C   0  0  0  0  0  0  0  0  0  0  0  0
  -85.7458   37.7348   -5.0393 N   0  0  0  0  0  0  0  0  0  0  0  0
  -83.7765   39.0568   -5.9037 C   0  0  0  0  0  0  0  0  0  0  0  0
  -83.3918   39.4651   -7.1611 C   0  0  0  0  0  0  0  0  0  0  0  0
  -82.0385   39.7374   -7.4117 C   0  0  0  0  0  0  0  0  0  0  0  0
  -81.0980   39.5957   -6.3976 C   0  0  0  0  0  0  0  0  0  0  0  0
  -79.7342   39.8157   -6.4570 O   0  0  0  0  0  0  0  0  0  0  0  0
  -79.1386   39.4179   -5.2612 C   0  0  0  0  0  0  0  0  0  0  0  0
  -80.2671   39.1476   -4.3117 C   0  0  0  0  0  0  0  0  0  0  0  0
  -81.4916   39.1874   -5.1439 C   0  0  0  0  0  0  0  0  0  0  0  0
  -82.8502   38.9245   -4.9317 C   0  0  0  0  0  0  0  0  0  0  0  0
 25 26  2  0  0  0
 26 27  1  0  0  0
 27  1  1  0  0  0
  1  2  2  0  0  0
  2  3  1  0  0  0
  3  4  2  0  0  0
  4  5  1  0  0  0
  5  6  2  0  0  0
  6  7  1  0  0  0
  7  8  2  0  0  0
  8  9  1  0  0  0
  5 11  1  0  0  0
 11 12  2  0  0  0
 11 13  1  0  0  0
 13 14  1  0  0  0
 14 15  1  0  0  0
 15 16  1  0  0  0
 16 19  1  0  0  0
 19 20  1  0  0  0
 20 21  1  0  0  0
 21 22  1  0  0  0
 22 23  1  0  0  0
 23 24  1  0  0  0
 16 17  1  0  0  0
 17 18  1  0  0  0
 26 29  1  0  0  0
 29 30  2  0  0  0
 30 31  1  0  0  0
 31 32  1  0  0  0
 32 33  2  0  0  0
 32 34  1  0  0  0
 34 35  2  0  0  0
 35 36  1  0  0  0
 36 37  2  0  0  0
 37 38  1  0  0  0
 38 39  1  0  0  0
 39 40  1  0  0  0
 40 41  1  0  0  0
 41 42  2  0  0  0
  9  1  1  0  0  0
 18 13  1  0  0  0
 33 29  1  0  0  0
 42 34  1  0  0  0
  8  3  1  0  0  0
 24 20  1  0  0  0
 41 37  1  0  0  0
 27 28  1  0  0  0
  9 10  1  0  0  0
M  END
> <minimizedAffinity>
-7.50479

> <CNNscore>
0.0655739531

> <CNNaffinity>
5.6161241531

> <CNN_VS>
0.3682714701

> <CNNaffinity_variance>
0.1263841987

$$$$
[H]c1sc(-c2c([H])c([H])c3c(c2[H])C([H])([H])C([H])([H])O3)nc1C(=O)N([H])c1nc2c([H])c(C(=O)N3C([H])([H])C([H])([H])N(C([H])([H])C4([H])OC([H])([H])C([H])([H])C4([H])[H])C([H])([H])C3([H])[H])c([H])c([H])c2n1[H]


 42 48  0  0  0  0  0  0  0  0999 V2000
  -90.6380   32.9953   -4.1123 C   0  0  0  0  0  0  0  0  0  0  0  0
  -91.5561   32.0030   -4.0497 N   0  0  0  0  0  0  0  0  0  0  0  0
  -92.3322   32.0777   -5.1391 C   0  0  0  0  0  0  0  0  0  0  0  0
  -93.4221   31.2703   -5.5278 C   0  0  0  0  0  0  0  0  0  0  0  0
  -94.0921   31.5014   -6.6740 C   0  0  0  0  0  0  0  0  0  0  0  0
  -93.6383   32.5858   -7.4481 C   0  0  0  0  0  0  0  0  0  0  0  0
  -92.5821   33.3700   -7.0746 C   0  0  0  0  0  0  0  0  0  0  0  0
  -91.9066   33.1283   -5.9063 C   0  0  0  0  0  0  0  0  0  0  0  0
  -90.8718   33.6728   -5.2596 N   0  0  0  0  0  0  0  0  0  0  0  0
  -90.3280   34.4989   -5.5944 H   0  0  0  0  0  0  0  0  0  0  0  0
  -95.2275   30.7599   -7.1270 C   0  0  0  0  0  0  0  0  0  0  0  0
  -96.2665   31.5338   -7.4305 O   0  0  0  0  0  0  0  0  0  0  0  0
  -95.4496   29.3877   -7.3075 N   0  0  0  0  0  0  0  0  0  0  0  0
  -96.7903   29.0449   -7.8438 C   0  0  0  0  0  0  0  0  0  0  0  0
  -97.3519   27.7852   -7.2760 C   0  0  0  0  0  0  0  0  0  0  0  0
  -96.4592   27.0742   -6.4284 N   0  0  0  0  0  0  0  0  0  0  0  0
  -95.1663   26.9588   -7.0280 C   0  0  0  0  0  0  0  0  0  0  0  0
  -94.5254   28.3545   -6.9995 C   0  0  0  0  0  0  0  0  0  0  0  0
  -96.3911   27.4928   -5.0731 C   0  0  0  0  0  0  0  0  0  0  0  0
  -95.8613   26.4096   -4.1620 C   0  0  0  0  0  0  0  0  0  0  0  0
  -97.0128   25.5588   -3.7451 C   0  0  0  0  0  0  0  0  0  0  0  0
  -96.8615   25.4222   -2.2568 C   0  0  0  0  0  0  0  0  0  0  0  0
  -95.5906   26.1392   -1.9672 C   0  0  0  0  0  0  0  0  0  0  0  0
  -95.3200   26.9882   -3.0250 O   0  0  0  0  0  0  0  0  0  0  0  0
  -88.4096   31.4517   -3.7788 O   0  0  0  0  0  0  0  0  0  0  0  0
  -88.4867   32.4493   -3.0273 C   0  0  0  0  0  0  0  0  0  0  0  0
  -89.6289   33.2826   -3.1608 N   0  0  0  0  0  0  0  0  0  0  0  0
  -89.7334   34.1191   -2.5589 H   0  0  0  0  0  0  0  0  0  0  0  0
  -87.4233   32.7482   -2.0327 C   0  0  0  0  0  0  0  0  0  0  0  0
  -87.1373   34.0517   -1.6936 C   0  0  0  0  0  0  0  0  0  0  0  0
  -85.8862   33.8427   -0.5510 S   0  0  0  0  0  0  0  0  0  0  0  0
  -85.8074   32.1158   -0.5775 C   0  0  0  0  0  0  0  0  0  0  0  0
  -86.7385   31.8194   -1.4532 N   0  0  0  0  0  0  0  0  0  0  0  0
  -84.9140   31.2401    0.1926 C   0  0  0  0  0  0  0  0  0  0  0  0
  -83.5816   31.5561    0.3363 C   0  0  0  0  0  0  0  0  0  0  0  0
  -82.7508   30.7090    1.0850 C   0  0  0  0  0  0  0  0  0  0  0  0
  -83.2715   29.5627    1.6749 C   0  0  0  0  0  0  0  0  0  0  0  0
  -82.6128   28.6181    2.4401 O   0  0  0  0  0  0  0  0  0  0  0  0
  -83.4682   27.5526    2.7154 C   0  0  0  0  0  0  0  0  0  0  0  0
  -84.8305   27.9962    2.2731 C   0  0  0  0  0  0  0  0  0  0  0  0
  -84.6044   29.2550    1.5262 C   0  0  0  0  0  0  0  0  0  0  0  0
  -85.4021   30.1237    0.7720 C   0  0  0  0  0  0  0  0  0  0  0  0
 25 26  2  0  0  0
 26 27  1  0  0  0
 27  1  1  0  0  0
  1  2  2  0  0  0
  2  3  1  0  0  0
  3  4  2  0  0  0
  4  5  1  0  0  0
  5  6  2  0  0  0
  6  7  1  0  0  0
  7  8  2  0  0  0
  8  9  1  0  0  0
  5 11  1  0  0  0
 11 12  2  0  0  0
 11 13  1  0  0  0
 13 14  1  0  0  0
 14 15  1  0  0  0
 15 16  1  0  0  0
 16 19  1  0  0  0
 19 20  1  0  0  0
 20 21  1  0  0  0
 21 22  1  0  0  0
 22 23  1  0  0  0
 23 24  1  0  0  0
 16 17  1  0  0  0
 17 18  1  0  0  0
 26 29  1  0  0  0
 29 30  2  0  0  0
 30 31  1  0  0  0
 31 32  1  0  0  0
 32 33  2  0  0  0
 32 34  1  0  0  0
 34 35  2  0  0  0
 35 36  1  0  0  0
 36 37  2  0  0  0
 37 38  1  0  0  0
 38 39  1  0  0  0
 39 40  1  0  0  0
 40 41  1  0  0  0
 41 42  2  0  0  0
  9  1  1  0  0  0
 18 13  1  0  0  0
 33 29  1  0  0  0
 42 34  1  0  0  0
  8  3  1  0  0  0
 24 20  1  0  0  0
 41 37  1  0  0  0
 27 28  1  0  0  0
  9 10  1  0  0  0
M  END
> <minimizedAffinity>
-8.23155

> <CNNscore>
0.0621996485

> <CNNaffinity>
6.1409864426

> <CNN_VS>
0.3819671869

> <CNNaffinity_variance>
0.2846375704

$$$$
[H]c1sc(-c2c([H])c([H])c3c(c2[H])C([H])([H])C([H])([H])O3)nc1C(=O)N([H])c1nc2c([H])c(C(=O)N3C([H])([H])C([H])([H])N(C([H])([H])C4([H])OC([H])([H])C([H])([H])C4([H])[H])C([H])([H])C3([H])[H])c([H])c([H])c2n1[H]


 42 48  0  0  0  0  0  0  0  0999 V2000
  -90.6121   30.9901   -4.2797 C   0  0  0  0  0  0  0  0  0  0  0  0
  -91.2360   29.8016   -4.1076 N   0  0  0  0  0  0  0  0  0  0  0  0
  -92.3841   29.8246   -4.7974 C   0  0  0  0  0  0  0  0  0  0  0  0
  -93.3765   28.8305   -4.9315 C   0  0  0  0  0  0  0  0  0  0  0  0
  -94.4799   29.0375   -5.6771 C   0  0  0  0  0  0  0  0  0  0  0  0
  -94.5752   30.2932   -6.3058 C   0  0  0  0  0  0  0  0  0  0  0  0
  -93.6152   31.2586   -6.1783 C   0  0  0  0  0  0  0  0  0  0  0  0
  -92.4961   31.0399   -5.4169 C   0  0  0  0  0  0  0  0  0  0  0  0
  -91.4031   31.7339   -5.0866 N   0  0  0  0  0  0  0  0  0  0  0  0
  -91.1953   32.7059   -5.4062 H   0  0  0  0  0  0  0  0  0  0  0  0
  -95.5506   28.1039   -5.8386 C   0  0  0  0  0  0  0  0  0  0  0  0
  -96.7331   28.6034   -5.4885 O   0  0  0  0  0  0  0  0  0  0  0  0
  -95.5879   26.7771   -6.2892 N   0  0  0  0  0  0  0  0  0  0  0  0
  -96.9453   26.1787   -6.3343 C   0  0  0  0  0  0  0  0  0  0  0  0
  -96.9691   24.7340   -5.9641 C   0  0  0  0  0  0  0  0  0  0  0  0
  -95.6851   24.1586   -5.7616 N   0  0  0  0  0  0  0  0  0  0  0  0
  -94.7935   24.5095   -6.8229 C   0  0  0  0  0  0  0  0  0  0  0  0
  -94.4593   26.0001   -6.6622 C   0  0  0  0  0  0  0  0  0  0  0  0
  -95.0974   24.3359   -4.4810 C   0  0  0  0  0  0  0  0  0  0  0  0
  -93.8830   23.4593   -4.2787 C   0  0  0  0  0  0  0  0  0  0  0  0
  -94.3110   22.2549   -3.5107 C   0  0  0  0  0  0  0  0  0  0  0  0
  -93.2863   22.1190   -2.4206 C   0  0  0  0  0  0  0  0  0  0  0  0
  -92.3180   23.2099   -2.7127 C   0  0  0  0  0  0  0  0  0  0  0  0
  -92.9438   24.1412   -3.5213 O   0  0  0  0  0  0  0  0  0  0  0  0
  -90.3384   31.8355   -1.6970 O   0  0  0  0  0  0  0  0  0  0  0  0
  -89.2833   31.8207   -2.3696 C   0  0  0  0  0  0  0  0  0  0  0  0
  -89.3741   31.3905   -3.7200 N   0  0  0  0  0  0  0  0  0  0  0  0
  -88.5253   31.3625   -4.3132 H   0  0  0  0  0  0  0  0  0  0  0  0
  -87.9860   32.2387   -1.7767 C   0  0  0  0  0  0  0  0  0  0  0  0
  -87.5567   33.5414   -1.8956 C   0  0  0  0  0  0  0  0  0  0  0  0
  -86.0658   33.4889   -1.0655 S   0  0  0  0  0  0  0  0  0  0  0  0
  -86.0840   31.8181   -0.6215 C   0  0  0  0  0  0  0  0  0  0  0  0
  -87.2230   31.4176   -1.1353 N   0  0  0  0  0  0  0  0  0  0  0  0
  -85.0681   31.0726    0.1335 C   0  0  0  0  0  0  0  0  0  0  0  0
  -83.7705   31.5292    0.1951 C   0  0  0  0  0  0  0  0  0  0  0  0
  -82.8207   30.8048    0.9308 C   0  0  0  0  0  0  0  0  0  0  0  0
  -83.1899   29.6379    1.5905 C   0  0  0  0  0  0  0  0  0  0  0  0
  -82.4001   28.7997    2.3556 O   0  0  0  0  0  0  0  0  0  0  0  0
  -83.1253   27.6652    2.7158 C   0  0  0  0  0  0  0  0  0  0  0  0
  -84.5462   27.9475    2.3289 C   0  0  0  0  0  0  0  0  0  0  0  0
  -84.4890   29.1893    1.5237 C   0  0  0  0  0  0  0  0  0  0  0  0
  -85.4084   29.9383    0.7798 C   0  0  0  0  0  0  0  0  0  0  0  0
 25 26  2  0  0  0
 26 27  1  0  0  0
 27  1  1  0  0  0
  1  2  2  0  0  0
  2  3  1  0  0  0
  3  4  2  0  0  0
  4  5  1  0  0  0
  5  6  2  0  0  0
  6  7  1  0  0  0
  7  8  2  0  0  0
  8  9  1  0  0  0
  5 11  1  0  0  0
 11 12  2  0  0  0
 11 13  1  0  0  0
 13 14  1  0  0  0
 14 15  1  0  0  0
 15 16  1  0  0  0
 16 19  1  0  0  0
 19 20  1  0  0  0
 20 21  1  0  0  0
 21 22  1  0  0  0
 22 23  1  0  0  0
 23 24  1  0  0  0
 16 17  1  0  0  0
 17 18  1  0  0  0
 26 29  1  0  0  0
 29 30  2  0  0  0
 30 31  1  0  0  0
 31 32  1  0  0  0
 32 33  2  0  0  0
 32 34  1  0  0  0
 34 35  2  0  0  0
 35 36  1  0  0  0
 36 37  2  0  0  0
 37 38  1  0  0  0
 38 39  1  0  0  0
 39 40  1  0  0  0
 40 41  1  0  0  0
 41 42  2  0  0  0
  9  1  1  0  0  0
 18 13  1  0  0  0
 33 29  1  0  0  0
 42 34  1  0  0  0
  8  3  1  0  0  0
 24 20  1  0  0  0
 41 37  1  0  0  0
 27 28  1  0  0  0
  9 10  1  0  0  0
M  END
> <minimizedAffinity>
-9.09056

> <CNNscore>
0.0600454174

> <CNNaffinity>
6.1625723839

> <CNN_VS>
0.3700342178

> <CNNaffinity_variance>
0.1681050211

$$$$
[H]c1sc(-c2c([H])c([H])c3c(c2[H])C([H])([H])C([H])([H])O3)nc1C(=O)N([H])c1nc2c([H])c(C(=O)N3C([H])([H])C([H])([H])N(C([H])([H])C4([H])OC([H])([H])C([H])([H])C4([H])[H])C([H])([H])C3([H])[H])c([H])c([H])c2n1[H]


 42 48  0  0  0  0  0  0  0  0999 V2000
  -88.1284   34.0241   -3.6312 C   0  0  0  0  0  0  0  0  0  0  0  0
  -88.7140   32.8769   -4.0462 N   0  0  0  0  0  0  0  0  0  0  0  0
  -89.1333   32.2034   -2.9667 C   0  0  0  0  0  0  0  0  0  0  0  0
  -89.7976   30.9616   -2.8794 C   0  0  0  0  0  0  0  0  0  0  0  0
  -90.1443   30.4341   -1.6888 C   0  0  0  0  0  0  0  0  0  0  0  0
  -89.8058   31.1940   -0.5533 C   0  0  0  0  0  0  0  0  0  0  0  0
  -89.1625   32.3979   -0.6343 C   0  0  0  0  0  0  0  0  0  0  0  0
  -88.8126   32.9268   -1.8499 C   0  0  0  0  0  0  0  0  0  0  0  0
  -88.2004   34.0338   -2.2804 N   0  0  0  0  0  0  0  0  0  0  0  0
  -87.8336   34.7906   -1.6617 H   0  0  0  0  0  0  0  0  0  0  0  0
  -90.7842   29.1690   -1.5045 C   0  0  0  0  0  0  0  0  0  0  0  0
  -92.1087   29.2636   -1.4201 O   0  0  0  0  0  0  0  0  0  0  0  0
  -90.2844   27.8639   -1.3955 N   0  0  0  0  0  0  0  0  0  0  0  0
  -91.3241   26.8154   -1.2463 C   0  0  0  0  0  0  0  0  0  0  0  0
  -90.9200   25.7045   -0.3367 C   0  0  0  0  0  0  0  0  0  0  0  0
  -89.5758   25.7790    0.1196 N   0  0  0  0  0  0  0  0  0  0  0  0
  -88.6814   26.0469   -0.9633 C   0  0  0  0  0  0  0  0  0  0  0  0
  -88.9108   27.5037   -1.3932 C   0  0  0  0  0  0  0  0  0  0  0  0
  -89.3254   26.6081    1.2452 C   0  0  0  0  0  0  0  0  0  0  0  0
  -90.4386   26.5453    2.2654 C   0  0  0  0  0  0  0  0  0  0  0  0
  -90.4215   27.8192    3.0403 C   0  0  0  0  0  0  0  0  0  0  0  0
  -90.5034   27.3879    4.4769 C   0  0  0  0  0  0  0  0  0  0  0  0
  -90.6430   25.9094    4.3909 C   0  0  0  0  0  0  0  0  0  0  0  0
  -90.1977   25.5028    3.1462 O   0  0  0  0  0  0  0  0  0  0  0  0
  -88.5312   36.6979   -3.2457 O   0  0  0  0  0  0  0  0  0  0  0  0
  -87.7813   36.4025   -4.2029 C   0  0  0  0  0  0  0  0  0  0  0  0
  -87.5424   35.0238   -4.4458 N   0  0  0  0  0  0  0  0  0  0  0  0
  -86.9278   34.7342   -5.2278 H   0  0  0  0  0  0  0  0  0  0  0  0
  -87.1661   37.4554   -5.0527 C   0  0  0  0  0  0  0  0  0  0  0  0
  -87.9608   38.2998   -5.7950 C   0  0  0  0  0  0  0  0  0  0  0  0
  -86.7949   39.2861   -6.5582 S   0  0  0  0  0  0  0  0  0  0  0  0
  -85.3754   38.5634   -5.8861 C   0  0  0  0  0  0  0  0  0  0  0  0
  -85.8879   37.6231   -5.1280 N   0  0  0  0  0  0  0  0  0  0  0  0
  -83.9736   38.9313   -6.1266 C   0  0  0  0  0  0  0  0  0  0  0  0
  -83.5928   39.4762   -7.3324 C   0  0  0  0  0  0  0  0  0  0  0  0
  -82.2499   39.8285   -7.5343 C   0  0  0  0  0  0  0  0  0  0  0  0
  -81.3157   39.6283   -6.5243 C   0  0  0  0  0  0  0  0  0  0  0  0
  -79.9622   39.9104   -6.5408 O   0  0  0  0  0  0  0  0  0  0  0  0
  -79.3635   39.4233   -5.3801 C   0  0  0  0  0  0  0  0  0  0  0  0
  -80.4898   39.0143   -4.4789 C   0  0  0  0  0  0  0  0  0  0  0  0
  -81.7054   39.0833   -5.3223 C   0  0  0  0  0  0  0  0  0  0  0  0
  -83.0536   38.7440   -5.1578 C   0  0  0  0  0  0  0  0  0  0  0  0
 25 26  2  0  0  0
 26 27  1  0  0  0
 27  1  1  0  0  0
  1  2  2  0  0  0
  2  3  1  0  0  0
  3  4  2  0  0  0
  4  5  1  0  0  0
  5  6  2  0  0  0
  6  7  1  0  0  0
  7  8  2  0  0  0
  8  9  1  0  0  0
  5 11  1  0  0  0
 11 12  2  0  0  0
 11 13  1  0  0  0
 13 14  1  0  0  0
 14 15  1  0  0  0
 15 16  1  0  0  0
 16 19  1  0  0  0
 19 20  1  0  0  0
 20 21  1  0  0  0
 21 22  1  0  0  0
 22 23  1  0  0  0
 23 24  1  0  0  0
 16 17  1  0  0  0
 17 18  1  0  0  0
 26 29  1  0  0  0
 29 30  2  0  0  0
 30 31  1  0  0  0
 31 32  1  0  0  0
 32 33  2  0  0  0
 32 34  1  0  0  0
 34 35  2  0  0  0
 35 36  1  0  0  0
 36 37  2  0  0  0
 37 38  1  0  0  0
 38 39  1  0  0  0
 39 40  1  0  0  0
 40 41  1  0  0  0
 41 42  2  0  0  0
  9  1  1  0  0  0
 18 13  1  0  0  0
 33 29  1  0  0  0
 42 34  1  0  0  0
  8  3  1  0  0  0
 24 20  1  0  0  0
 41 37  1  0  0  0
 27 28  1  0  0  0
  9 10  1  0  0  0
M  END
> <minimizedAffinity>
-8.84707

> <CNNscore>
0.0588311404

> <CNNaffinity>
5.9497361183

> <CNN_VS>
0.3500297666

> <CNNaffinity_variance>
0.0762486011

$$$$
[H]c1sc(-c2c([H])c([H])c3c(c2[H])C([H])([H])C([H])([H])O3)nc1C(=O)N([H])c1nc2c([H])c(C(=O)N3C([H])([H])C([H])([H])N(C([H])([H])C4([H])OC([H])([H])C([H])([H])C4([H])[H])C([H])([H])C3([H])[H])c([H])c([H])c2n1[H]


 42 48  0  0  0  0  0  0  0  0999 V2000
  -90.6540   26.5478   -2.6561 C   0  0  0  0  0  0  0  0  0  0  0  0
  -91.1952   27.4623   -3.4941 N   0  0  0  0  0  0  0  0  0  0  0  0
  -92.2837   26.9236   -4.0595 C   0  0  0  0  0  0  0  0  0  0  0  0
  -93.1817   27.4773   -4.9966 C   0  0  0  0  0  0  0  0  0  0  0  0
  -94.2342   26.7741   -5.4591 C   0  0  0  0  0  0  0  0  0  0  0  0
  -94.3774   25.4690   -4.9517 C   0  0  0  0  0  0  0  0  0  0  0  0
  -93.5092   24.9295   -4.0433 C   0  0  0  0  0  0  0  0  0  0  0  0
  -92.4404   25.6517   -3.5787 C   0  0  0  0  0  0  0  0  0  0  0  0
  -91.4345   25.4450   -2.7239 N   0  0  0  0  0  0  0  0  0  0  0  0
  -91.2783   24.5612   -2.1903 H   0  0  0  0  0  0  0  0  0  0  0  0
  -95.1707   27.2402   -6.4336 C   0  0  0  0  0  0  0  0  0  0  0  0
  -95.3175   26.4018   -7.4563 O   0  0  0  0  0  0  0  0  0  0  0  0
  -95.9522   28.4011   -6.5140 N   0  0  0  0  0  0  0  0  0  0  0  0
  -96.8349   28.4695   -7.7052 C   0  0  0  0  0  0  0  0  0  0  0  0
  -96.9732   29.8460   -8.2626 C   0  0  0  0  0  0  0  0  0  0  0  0
  -96.3468   30.8592   -7.4868 N   0  0  0  0  0  0  0  0  0  0  0  0
  -96.6723   30.7183   -6.1017 C   0  0  0  0  0  0  0  0  0  0  0  0
  -95.9332   29.4748   -5.5849 C   0  0  0  0  0  0  0  0  0  0  0  0
  -94.9571   31.0616   -7.6977 C   0  0  0  0  0  0  0  0  0  0  0  0
  -94.6414   32.4717   -8.1406 C   0  0  0  0  0  0  0  0  0  0  0  0
  -94.5917   32.4827   -9.6309 C   0  0  0  0  0  0  0  0  0  0  0  0
  -93.3244   33.2189   -9.9605 C   0  0  0  0  0  0  0  0  0  0  0  0
  -92.8050   33.6344   -8.6298 C   0  0  0  0  0  0  0  0  0  0  0  0
  -93.3910   32.8345   -7.6657 O   0  0  0  0  0  0  0  0  0  0  0  0
  -90.7188   26.8568    0.0569 O   0  0  0  0  0  0  0  0  0  0  0  0
  -89.5768   26.8584   -0.4546 C   0  0  0  0  0  0  0  0  0  0  0  0
  -89.4904   26.7030   -1.8636 N   0  0  0  0  0  0  0  0  0  0  0  0
  -88.5649   26.6984   -2.3288 H   0  0  0  0  0  0  0  0  0  0  0  0
  -88.3585   27.0181    0.3819 C   0  0  0  0  0  0  0  0  0  0  0  0
  -88.0849   26.1187    1.3878 C   0  0  0  0  0  0  0  0  0  0  0  0
  -86.6218   26.7374    2.0131 S   0  0  0  0  0  0  0  0  0  0  0  0
  -86.4521   28.0965    0.9580 C   0  0  0  0  0  0  0  0  0  0  0  0
  -87.5200   27.9839    0.2038 N   0  0  0  0  0  0  0  0  0  0  0  0
  -85.3784   29.0989    0.9410 C   0  0  0  0  0  0  0  0  0  0  0  0
  -84.2362   28.9099    1.6864 C   0  0  0  0  0  0  0  0  0  0  0  0
  -83.2207   29.8770    1.6458 C   0  0  0  0  0  0  0  0  0  0  0  0
  -83.3695   31.0136    0.8591 C   0  0  0  0  0  0  0  0  0  0  0  0
  -82.4855   32.0641    0.6952 O   0  0  0  0  0  0  0  0  0  0  0  0
  -83.0810   33.0691   -0.0652 C   0  0  0  0  0  0  0  0  0  0  0  0
  -84.3512   32.4792   -0.6007 C   0  0  0  0  0  0  0  0  0  0  0  0
  -84.5144   31.1941    0.1172 C   0  0  0  0  0  0  0  0  0  0  0  0
  -85.5058   30.2080    0.1834 C   0  0  0  0  0  0  0  0  0  0  0  0
 25 26  2  0  0  0
 26 27  1  0  0  0
 27  1  1  0  0  0
  1  2  2  0  0  0
  2  3  1  0  0  0
  3  4  2  0  0  0
  4  5  1  0  0  0
  5  6  2  0  0  0
  6  7  1  0  0  0
  7  8  2  0  0  0
  8  9  1  0  0  0
  5 11  1  0  0  0
 11 12  2  0  0  0
 11 13  1  0  0  0
 13 14  1  0  0  0
 14 15  1  0  0  0
 15 16  1  0  0  0
 16 19  1  0  0  0
 19 20  1  0  0  0
 20 21  1  0  0  0
 21 22  1  0  0  0
 22 23  1  0  0  0
 23 24  1  0  0  0
 16 17  1  0  0  0
 17 18  1  0  0  0
 26 29  1  0  0  0
 29 30  2  0  0  0
 30 31  1  0  0  0
 31 32  1  0  0  0
 32 33  2  0  0  0
 32 34  1  0  0  0
 34 35  2  0  0  0
 35 36  1  0  0  0
 36 37  2  0  0  0
 37 38  1  0  0  0
 38 39  1  0  0  0
 39 40  1  0  0  0
 40 41  1  0  0  0
 41 42  2  0  0  0
  9  1  1  0  0  0
 18 13  1  0  0  0
 33 29  1  0  0  0
 42 34  1  0  0  0
  8  3  1  0  0  0
 24 20  1  0  0  0
 41 37  1  0  0  0
 27 28  1  0  0  0
  9 10  1  0  0  0
M  END
> <minimizedAffinity>
-8.67357

> <CNNscore>
0.0570711903

> <CNNaffinity>
5.7786121368

> <CNN_VS>
0.3297922611

> <CNNaffinity_variance>
0.1277335584

$$$$
[H]c1sc(-c2c([H])c([H])c3c(c2[H])C([H])([H])C([H])([H])O3)nc1C(=O)N([H])c1nc2c([H])c(C(=O)N3C([H])([H])C([H])([H])N(C([H])([H])C4([H])OC([H])([H])C([H])([H])C4([H])[H])C([H])([H])C3([H])[H])c([H])c([H])c2n1[H]


 42 48  0  0  0  0  0  0  0  0999 V2000
  -88.0023   32.4692   -3.5247 C   0  0  0  0  0  0  0  0  0  0  0  0
  -89.1191   32.6226   -4.2733 N   0  0  0  0  0  0  0  0  0  0  0  0
  -88.9897   33.7411   -4.9990 C   0  0  0  0  0  0  0  0  0  0  0  0
  -89.8804   34.3243   -5.9251 C   0  0  0  0  0  0  0  0  0  0  0  0
  -89.5743   35.4692   -6.5667 C   0  0  0  0  0  0  0  0  0  0  0  0
  -88.3238   36.0365   -6.2574 C   0  0  0  0  0  0  0  0  0  0  0  0
  -87.4581   35.4738   -5.3608 C   0  0  0  0  0  0  0  0  0  0  0  0
  -87.7780   34.3093   -4.7117 C   0  0  0  0  0  0  0  0  0  0  0  0
  -87.1934   33.5153   -3.8100 N   0  0  0  0  0  0  0  0  0  0  0  0
  -86.2519   33.6823   -3.3906 H   0  0  0  0  0  0  0  0  0  0  0  0
  -90.4287   36.1483   -7.4901 C   0  0  0  0  0  0  0  0  0  0  0  0
  -90.6018   37.4330   -7.1900 O   0  0  0  0  0  0  0  0  0  0  0  0
  -91.1113   35.7200   -8.6371 N   0  0  0  0  0  0  0  0  0  0  0  0
  -91.8729   36.7851   -9.3358 C   0  0  0  0  0  0  0  0  0  0  0  0
  -93.1609   36.3087   -9.9179 C   0  0  0  0  0  0  0  0  0  0  0  0
  -93.3685   34.9062   -9.8148 N   0  0  0  0  0  0  0  0  0  0  0  0
  -92.2028   34.1847  -10.2211 C   0  0  0  0  0  0  0  0  0  0  0  0
  -91.1386   34.3895   -9.1326 C   0  0  0  0  0  0  0  0  0  0  0  0
  -93.9024   34.4250   -8.5900 C   0  0  0  0  0  0  0  0  0  0  0  0
  -94.3975   33.0011   -8.6978 C   0  0  0  0  0  0  0  0  0  0  0  0
  -95.8854   33.0256   -8.6022 C   0  0  0  0  0  0  0  0  0  0  0  0
  -96.2169   31.9528   -7.6043 C   0  0  0  0  0  0  0  0  0  0  0  0
  -94.8935   31.3555   -7.2802 C   0  0  0  0  0  0  0  0  0  0  0  0
  -93.9100   32.2622   -7.6315 O   0  0  0  0  0  0  0  0  0  0  0  0
  -87.0340   32.8966   -1.0068 O   0  0  0  0  0  0  0  0  0  0  0  0
  -87.2265   31.6977   -1.3095 C   0  0  0  0  0  0  0  0  0  0  0  0
  -87.7277   31.4234   -2.6097 N   0  0  0  0  0  0  0  0  0  0  0  0
  -87.9019   30.4451   -2.9023 H   0  0  0  0  0  0  0  0  0  0  0  0
  -86.9400   30.6041   -0.3446 C   0  0  0  0  0  0  0  0  0  0  0  0
  -85.7704   30.6087    0.3819 C   0  0  0  0  0  0  0  0  0  0  0  0
  -85.9358   29.1842    1.3081 S   0  0  0  0  0  0  0  0  0  0  0  0
  -87.4776   28.6755    0.7140 C   0  0  0  0  0  0  0  0  0  0  0  0
  -87.7586   29.6251   -0.1469 N   0  0  0  0  0  0  0  0  0  0  0  0
  -88.2437   27.4813    1.0949 C   0  0  0  0  0  0  0  0  0  0  0  0
  -88.7524   26.6419    0.1292 C   0  0  0  0  0  0  0  0  0  0  0  0
  -89.4721   25.5023    0.5185 C   0  0  0  0  0  0  0  0  0  0  0  0
  -89.6673   25.2262    1.8671 C   0  0  0  0  0  0  0  0  0  0  0  0
  -90.3435   24.1621    2.4347 O   0  0  0  0  0  0  0  0  0  0  0  0
  -90.4293   24.3384    3.8147 C   0  0  0  0  0  0  0  0  0  0  0  0
  -89.5286   25.4930    4.1369 C   0  0  0  0  0  0  0  0  0  0  0  0
  -89.1551   26.0707    2.8252 C   0  0  0  0  0  0  0  0  0  0  0  0
  -88.4429   27.1979    2.3988 C   0  0  0  0  0  0  0  0  0  0  0  0
 25 26  2  0  0  0
 26 27  1  0  0  0
 27  1  1  0  0  0
  1  2  2  0  0  0
  2  3  1  0  0  0
  3  4  2  0  0  0
  4  5  1  0  0  0
  5  6  2  0  0  0
  6  7  1  0  0  0
  7  8  2  0  0  0
  8  9  1  0  0  0
  5 11  1  0  0  0
 11 12  2  0  0  0
 11 13  1  0  0  0
 13 14  1  0  0  0
 14 15  1  0  0  0
 15 16  1  0  0  0
 16 19  1  0  0  0
 19 20  1  0  0  0
 20 21  1  0  0  0
 21 22  1  0  0  0
 22 23  1  0  0  0
 23 24  1  0  0  0
 16 17  1  0  0  0
 17 18  1  0  0  0
 26 29  1  0  0  0
 29 30  2  0  0  0
 30 31  1  0  0  0
 31 32  1  0  0  0
 32 33  2  0  0  0
 32 34  1  0  0  0
 34 35  2  0  0  0
 35 36  1  0  0  0
 36 37  2  0  0  0
 37 38  1  0  0  0
 38 39  1  0  0  0
 39 40  1  0  0  0
 40 41  1  0  0  0
 41 42  2  0  0  0
  9  1  1  0  0  0
 18 13  1  0  0  0
 33 29  1  0  0  0
 42 34  1  0  0  0
  8  3  1  0  0  0
 24 20  1  0  0  0
 41 37  1  0  0  0
 27 28  1  0  0  0
  9 10  1  0  0  0
M  END
> <minimizedAffinity>
-8.09250

> <CNNscore>
0.0487401821

> <CNNaffinity>
5.6789522171

> <CNN_VS>
0.2767931521

> <CNNaffinity_variance>
0.1318468153

$$$$
[H]c1sc(-c2c([H])c([H])c3c(c2[H])C([H])([H])C([H])([H])O3)nc1C(=O)N([H])c1nc2c([H])c(C(=O)N3C([H])([H])C([H])([H])N(C([H])([H])C4([H])OC([H])([H])C([H])([H])C4([H])[H])C([H])([H])C3([H])[H])c([H])c([H])c2n1[H]


 42 48  0  0  0  0  0  0  0  0999 V2000
  -93.5077   27.6927   -2.7837 C   0  0  0  0  0  0  0  0  0  0  0  0
  -93.6151   28.6943   -3.6874 N   0  0  0  0  0  0  0  0  0  0  0  0
  -94.5886   28.3793   -4.5520 C   0  0  0  0  0  0  0  0  0  0  0  0
  -95.0737   29.0972   -5.6657 C   0  0  0  0  0  0  0  0  0  0  0  0
  -96.0727   28.6139   -6.4303 C   0  0  0  0  0  0  0  0  0  0  0  0
  -96.5940   27.3632   -6.0492 C   0  0  0  0  0  0  0  0  0  0  0  0
  -96.1265   26.6651   -4.9703 C   0  0  0  0  0  0  0  0  0  0  0  0
  -95.1092   27.1638   -4.1983 C   0  0  0  0  0  0  0  0  0  0  0  0
  -94.4341   26.7647   -3.1165 N   0  0  0  0  0  0  0  0  0  0  0  0
  -94.6005   25.8684   -2.6075 H   0  0  0  0  0  0  0  0  0  0  0  0
  -96.6003   29.2534   -7.5950 C   0  0  0  0  0  0  0  0  0  0  0  0
  -96.8800   28.3989   -8.5758 O   0  0  0  0  0  0  0  0  0  0  0  0
  -96.8733   30.5953   -7.8948 N   0  0  0  0  0  0  0  0  0  0  0  0
  -97.4640   30.8197   -9.2377 C   0  0  0  0  0  0  0  0  0  0  0  0
  -96.9917   32.0747   -9.8911 C   0  0  0  0  0  0  0  0  0  0  0  0
  -96.1689   32.8911   -9.0683 N   0  0  0  0  0  0  0  0  0  0  0  0
  -96.7419   33.0497   -7.7679 C   0  0  0  0  0  0  0  0  0  0  0  0
  -96.6085   31.7013   -7.0444 C   0  0  0  0  0  0  0  0  0  0  0  0
  -94.7884   32.5624   -9.0142 C   0  0  0  0  0  0  0  0  0  0  0  0
  -93.9476   33.4625   -9.8900 C   0  0  0  0  0  0  0  0  0  0  0  0
  -92.5830   33.5364   -9.2935 C   0  0  0  0  0  0  0  0  0  0  0  0
  -92.2556   35.0024   -9.2811 C   0  0  0  0  0  0  0  0  0  0  0  0
  -93.4291   35.6285   -9.9475 C   0  0  0  0  0  0  0  0  0  0  0  0
  -94.4868   34.7392   -9.8901 O   0  0  0  0  0  0  0  0  0  0  0  0
  -91.3983   25.9589   -2.7158 O   0  0  0  0  0  0  0  0  0  0  0  0
  -91.5148   26.6992   -1.7137 C   0  0  0  0  0  0  0  0  0  0  0  0
  -92.5982   27.6173   -1.7005 N   0  0  0  0  0  0  0  0  0  0  0  0
  -92.7323   28.2492   -0.8908 H   0  0  0  0  0  0  0  0  0  0  0  0
  -90.5557   26.6186   -0.5809 C   0  0  0  0  0  0  0  0  0  0  0  0
  -90.7889   25.7544    0.4652 C   0  0  0  0  0  0  0  0  0  0  0  0
  -89.4309   26.0431    1.4585 S   0  0  0  0  0  0  0  0  0  0  0  0
  -88.6555   27.2410    0.4824 C   0  0  0  0  0  0  0  0  0  0  0  0
  -89.4838   27.3369   -0.5308 N   0  0  0  0  0  0  0  0  0  0  0  0
  -87.3969   27.9494    0.7508 C   0  0  0  0  0  0  0  0  0  0  0  0
  -87.2056   29.2315    0.2866 C   0  0  0  0  0  0  0  0  0  0  0  0
  -85.9987   29.8906    0.5646 C   0  0  0  0  0  0  0  0  0  0  0  0
  -85.0080   29.2524    1.3023 C   0  0  0  0  0  0  0  0  0  0  0  0
  -83.7669   29.7380    1.6706 O   0  0  0  0  0  0  0  0  0  0  0  0
  -83.0252   28.7271    2.2794 C   0  0  0  0  0  0  0  0  0  0  0  0
  -83.9831   27.5960    2.5057 C   0  0  0  0  0  0  0  0  0  0  0  0
  -85.2080   27.9711    1.7625 C   0  0  0  0  0  0  0  0  0  0  0  0
  -86.4245   27.3455    1.4650 C   0  0  0  0  0  0  0  0  0  0  0  0
 25 26  2  0  0  0
 26 27  1  0  0  0
 27  1  1  0  0  0
  1  2  2  0  0  0
  2  3  1  0  0  0
  3  4  2  0  0  0
  4  5  1  0  0  0
  5  6  2  0  0  0
  6  7  1  0  0  0
  7  8  2  0  0  0
  8  9  1  0  0  0
  5 11  1  0  0  0
 11 12  2  0  0  0
 11 13  1  0  0  0
 13 14  1  0  0  0
 14 15  1  0  0  0
 15 16  1  0  0  0
 16 19  1  0  0  0
 19 20  1  0  0  0
 20 21  1  0  0  0
 21 22  1  0  0  0
 22 23  1  0  0  0
 23 24  1  0  0  0
 16 17  1  0  0  0
 17 18  1  0  0  0
 26 29  1  0  0  0
 29 30  2  0  0  0
 30 31  1  0  0  0
 31 32  1  0  0  0
 32 33  2  0  0  0
 32 34  1  0  0  0
 34 35  2  0  0  0
 35 36  1  0  0  0
 36 37  2  0  0  0
 37 38  1  0  0  0
 38 39  1  0  0  0
 39 40  1  0  0  0
 40 41  1  0  0  0
 41 42  2  0  0  0
  9  1  1  0  0  0
 18 13  1  0  0  0
 33 29  1  0  0  0
 42 34  1  0  0  0
  8  3  1  0  0  0
 24 20  1  0  0  0
 41 37  1  0  0  0
 27 28  1  0  0  0
  9 10  1  0  0  0
M  END
> <minimizedAffinity>
-7.29143

> <CNNscore>
0.0478084497

> <CNNaffinity>
5.6023168564

> <CNN_VS>
0.2678380907

> <CNNaffinity_variance>
0.2811225951

$$$$
[H]c1nc([H])c([H])c(-c2nc(N([H])C(=O)c3nc(-c4c([H])c([H])c5c(c4[H])C([H])([H])C([H])([H])O5)sc3[H])n([H])n2)c1[H]


 30 34  0  0  0  0  0  0  0  0999 V2000
  -87.3093   32.7707   -1.1828 O   0  0  0  0  0  0  0  0  0  0  0  0
  -86.7344   33.5319   -1.9689 C   0  0  0  0  0  0  0  0  0  0  0  0
  -85.3355   33.6988   -1.8909 N   0  0  0  0  0  0  0  0  0  0  0  0
  -84.8532   34.3503   -2.5656 H   0  0  0  0  0  0  0  0  0  0  0  0
  -84.5819   32.9954   -0.9122 C   0  0  0  0  0  0  0  0  0  0  0  0
  -84.9165   31.8327   -0.3469 N   0  0  0  0  0  0  0  0  0  0  0  0
  -83.9755   31.4555    0.5357 C   0  0  0  0  0  0  0  0  0  0  0  0
  -83.0458   32.4242    0.4986 N   0  0  0  0  0  0  0  0  0  0  0  0
  -83.4027   33.3602   -0.3737 N   0  0  0  0  0  0  0  0  0  0  0  0
  -82.8863   34.2411   -0.6269 H   0  0  0  0  0  0  0  0  0  0  0  0
  -84.0092   30.2412    1.3364 C   0  0  0  0  0  0  0  0  0  0  0  0
  -85.1956   29.7152    1.7807 C   0  0  0  0  0  0  0  0  0  0  0  0
  -85.1678   28.5612    2.5367 C   0  0  0  0  0  0  0  0  0  0  0  0
  -84.0176   27.9319    2.8547 N   0  0  0  0  0  0  0  0  0  0  0  0
  -82.8511   28.4498    2.4175 C   0  0  0  0  0  0  0  0  0  0  0  0
  -82.8426   29.5896    1.6677 C   0  0  0  0  0  0  0  0  0  0  0  0
  -87.5349   34.2588   -2.9847 C   0  0  0  0  0  0  0  0  0  0  0  0
  -87.2500   35.5648   -3.3203 C   0  0  0  0  0  0  0  0  0  0  0  0
  -88.4402   35.8982   -4.4976 S   0  0  0  0  0  0  0  0  0  0  0  0
  -89.2233   34.3819   -4.4988 C   0  0  0  0  0  0  0  0  0  0  0  0
  -88.5365   33.7038   -3.6030 N   0  0  0  0  0  0  0  0  0  0  0  0
  -90.3867   33.9278   -5.3021 C   0  0  0  0  0  0  0  0  0  0  0  0
  -91.3685   33.1512   -4.7380 C   0  0  0  0  0  0  0  0  0  0  0  0
  -92.4513   32.7300   -5.4907 C   0  0  0  0  0  0  0  0  0  0  0  0
  -92.5416   33.0936   -6.8123 C   0  0  0  0  0  0  0  0  0  0  0  0
  -93.5292   32.7914   -7.7573 O   0  0  0  0  0  0  0  0  0  0  0  0
  -93.3637   33.6095   -8.9068 C   0  0  0  0  0  0  0  0  0  0  0  0
  -91.9362   34.1038   -8.8378 C   0  0  0  0  0  0  0  0  0  0  0  0
  -91.5631   33.8807   -7.4159 C   0  0  0  0  0  0  0  0  0  0  0  0
  -90.4963   34.2788   -6.6214 C   0  0  0  0  0  0  0  0  0  0  0  0
  1  2  2  0  0  0
  2  3  1  0  0  0
  3  5  1  0  0  0
  5  6  2  0  0  0
  6  7  1  0  0  0
  7  8  2  0  0  0
  8  9  1  0  0  0
  7 11  1  0  0  0
 11 12  2  0  0  0
 12 13  1  0  0  0
 13 14  2  0  0  0
 14 15  1  0  0  0
 15 16  2  0  0  0
  2 17  1  0  0  0
 17 18  2  0  0  0
 18 19  1  0  0  0
 19 20  1  0  0  0
 20 21  2  0  0  0
 20 22  1  0  0  0
 22 23  2  0  0  0
 23 24  1  0  0  0
 24 25  2  0  0  0
 25 26  1  0  0  0
 26 27  1  0  0  0
 27 28  1  0  0  0
 28 29  1  0  0  0
 29 30  2  0  0  0
  9  5  1  0  0  0
 16 11  1  0  0  0
 21 17  1  0  0  0
 30 22  1  0  0  0
 29 25  1  0  0  0
  3  4  1  0  0  0
  9 10  1  0  0  0
M  END
> <minimizedAffinity>
-8.43992

> <CNNscore>
0.8454772234

> <CNNaffinity>
6.7818284035

> <CNN_VS>
5.7338814735

> <CNNaffinity_variance>
0.1653210670

$$$$
[H]c1nc([H])c([H])c(-c2nc(N([H])C(=O)c3nc(-c4c([H])c([H])c5c(c4[H])C([H])([H])C([H])([H])O5)sc3[H])n([H])n2)c1[H]


 30 34  0  0  0  0  0  0  0  0999 V2000
  -87.7828   30.5781   -2.0419 O   0  0  0  0  0  0  0  0  0  0  0  0
  -87.8679   31.8005   -2.2052 C   0  0  0  0  0  0  0  0  0  0  0  0
  -87.0000   32.6660   -1.5063 N   0  0  0  0  0  0  0  0  0  0  0  0
  -87.0797   33.7075   -1.6517 H   0  0  0  0  0  0  0  0  0  0  0  0
  -86.0266   32.1399   -0.6139 C   0  0  0  0  0  0  0  0  0  0  0  0
  -85.9790   30.8888   -0.1495 N   0  0  0  0  0  0  0  0  0  0  0  0
  -84.9265   30.7363    0.6725 C   0  0  0  0  0  0  0  0  0  0  0  0
  -84.3229   31.9359    0.7022 N   0  0  0  0  0  0  0  0  0  0  0  0
  -84.9801   32.7919   -0.0724 N   0  0  0  0  0  0  0  0  0  0  0  0
  -84.7563   33.8033   -0.2561 H   0  0  0  0  0  0  0  0  0  0  0  0
  -84.5648   29.5059    1.3595 C   0  0  0  0  0  0  0  0  0  0  0  0
  -83.3361   29.3564    1.9507 C   0  0  0  0  0  0  0  0  0  0  0  0
  -83.0471   28.1674    2.5885 C   0  0  0  0  0  0  0  0  0  0  0  0
  -83.9279   27.1474    2.6519 N   0  0  0  0  0  0  0  0  0  0  0  0
  -85.1361   27.2951    2.0702 C   0  0  0  0  0  0  0  0  0  0  0  0
  -85.4545   28.4577    1.4312 C   0  0  0  0  0  0  0  0  0  0  0  0
  -88.8889   32.3339   -3.1400 C   0  0  0  0  0  0  0  0  0  0  0  0
  -90.1744   31.8372   -3.1557 C   0  0  0  0  0  0  0  0  0  0  0  0
  -90.9049   32.7770   -4.3791 S   0  0  0  0  0  0  0  0  0  0  0  0
  -89.5566   33.7356   -4.7977 C   0  0  0  0  0  0  0  0  0  0  0  0
  -88.6231   33.2886   -3.9836 N   0  0  0  0  0  0  0  0  0  0  0  0
  -89.4488   34.8072   -5.8200 C   0  0  0  0  0  0  0  0  0  0  0  0
  -90.4964   35.0787   -6.6650 C   0  0  0  0  0  0  0  0  0  0  0  0
  -90.3915   36.0785   -7.6166 C   0  0  0  0  0  0  0  0  0  0  0  0
  -89.2287   36.8034   -7.7139 C   0  0  0  0  0  0  0  0  0  0  0  0
  -88.8960   37.8471   -8.5856 O   0  0  0  0  0  0  0  0  0  0  0  0
  -87.7084   38.4872   -8.1408 C   0  0  0  0  0  0  0  0  0  0  0  0
  -87.0447   37.4909   -7.2170 C   0  0  0  0  0  0  0  0  0  0  0  0
  -88.1466   36.5539   -6.8724 C   0  0  0  0  0  0  0  0  0  0  0  0
  -88.2985   35.5419   -5.9342 C   0  0  0  0  0  0  0  0  0  0  0  0
  1  2  2  0  0  0
  2  3  1  0  0  0
  3  5  1  0  0  0
  5  6  2  0  0  0
  6  7  1  0  0  0
  7  8  2  0  0  0
  8  9  1  0  0  0
  7 11  1  0  0  0
 11 12  2  0  0  0
 12 13  1  0  0  0
 13 14  2  0  0  0
 14 15  1  0  0  0
 15 16  2  0  0  0
  2 17  1  0  0  0
 17 18  2  0  0  0
 18 19  1  0  0  0
 19 20  1  0  0  0
 20 21  2  0  0  0
 20 22  1  0  0  0
 22 23  2  0  0  0
 23 24  1  0  0  0
 24 25  2  0  0  0
 25 26  1  0  0  0
 26 27  1  0  0  0
 27 28  1  0  0  0
 28 29  1  0  0  0
 29 30  2  0  0  0
  9  5  1  0  0  0
 16 11  1  0  0  0
 21 17  1  0  0  0
 30 22  1  0  0  0
 29 25  1  0  0  0
  3  4  1  0  0  0
  9 10  1  0  0  0
M  END
> <minimizedAffinity>
-8.41946

> <CNNscore>
0.2809437215

> <CNNaffinity>
6.2281780243

> <CNN_VS>
1.7497675419

> <CNNaffinity_variance>
0.5046599507

$$$$
[H]c1nc([H])c([H])c(-c2nc(N([H])C(=O)c3nc(-c4c([H])c([H])c5c(c4[H])C([H])([H])C([H])([H])O5)sc3[H])n([H])n2)c1[H]


 30 34  0  0  0  0  0  0  0  0999 V2000
  -87.7057   30.3736   -2.1513 O   0  0  0  0  0  0  0  0  0  0  0  0
  -88.0024   31.5736   -2.1552 C   0  0  0  0  0  0  0  0  0  0  0  0
  -87.2981   32.4754   -1.3296 N   0  0  0  0  0  0  0  0  0  0  0  0
  -87.5579   33.4975   -1.3393 H   0  0  0  0  0  0  0  0  0  0  0  0
  -86.2476   32.0114   -0.4919 C   0  0  0  0  0  0  0  0  0  0  0  0
  -86.1055   30.7695   -0.0222 N   0  0  0  0  0  0  0  0  0  0  0  0
  -85.0004   30.6821    0.7381 C   0  0  0  0  0  0  0  0  0  0  0  0
  -84.4620   31.9126    0.7239 N   0  0  0  0  0  0  0  0  0  0  0  0
  -85.2083   32.7241   -0.0170 N   0  0  0  0  0  0  0  0  0  0  0  0
  -85.0507   33.7442   -0.2206 H   0  0  0  0  0  0  0  0  0  0  0  0
  -84.5334   29.4800    1.4114 C   0  0  0  0  0  0  0  0  0  0  0  0
  -85.3669   28.4097    1.6151 C   0  0  0  0  0  0  0  0  0  0  0  0
  -84.8702   27.2953    2.2596 C   0  0  0  0  0  0  0  0  0  0  0  0
  -83.5960   27.2198    2.6964 N   0  0  0  0  0  0  0  0  0  0  0  0
  -82.7767   28.2727    2.4958 C   0  0  0  0  0  0  0  0  0  0  0  0
  -83.2355   29.3903    1.8619 C   0  0  0  0  0  0  0  0  0  0  0  0
  -89.1011   32.0421   -3.0351 C   0  0  0  0  0  0  0  0  0  0  0  0
  -90.0257   31.1628   -3.5560 C   0  0  0  0  0  0  0  0  0  0  0  0
  -91.0309   32.1998   -4.4658 S   0  0  0  0  0  0  0  0  0  0  0  0
  -90.2329   33.6725   -4.1393 C   0  0  0  0  0  0  0  0  0  0  0  0
  -89.2444   33.2953   -3.3554 N   0  0  0  0  0  0  0  0  0  0  0  0
  -90.5597   35.0414   -4.6129 C   0  0  0  0  0  0  0  0  0  0  0  0
  -91.4295   35.2332   -5.6579 C   0  0  0  0  0  0  0  0  0  0  0  0
  -91.7313   36.5111   -6.0962 C   0  0  0  0  0  0  0  0  0  0  0  0
  -91.1545   37.5942   -5.4787 C   0  0  0  0  0  0  0  0  0  0  0  0
  -91.3061   38.9603   -5.7441 O   0  0  0  0  0  0  0  0  0  0  0  0
  -90.7521   39.7229   -4.6812 C   0  0  0  0  0  0  0  0  0  0  0  0
  -89.8159   38.7773   -3.9628 C   0  0  0  0  0  0  0  0  0  0  0  0
  -90.2678   37.4352   -4.4157 C   0  0  0  0  0  0  0  0  0  0  0  0
  -89.9958   36.1350   -4.0115 C   0  0  0  0  0  0  0  0  0  0  0  0
  1  2  2  0  0  0
  2  3  1  0  0  0
  3  5  1  0  0  0
  5  6  2  0  0  0
  6  7  1  0  0  0
  7  8  2  0  0  0
  8  9  1  0  0  0
  7 11  1  0  0  0
 11 12  2  0  0  0
 12 13  1  0  0  0
 13 14  2  0  0  0
 14 15  1  0  0  0
 15 16  2  0  0  0
  2 17  1  0  0  0
 17 18  2  0  0  0
 18 19  1  0  0  0
 19 20  1  0  0  0
 20 21  2  0  0  0
 20 22  1  0  0  0
 22 23  2  0  0  0
 23 24  1  0  0  0
 24 25  2  0  0  0
 25 26  1  0  0  0
 26 27  1  0  0  0
 27 28  1  0  0  0
 28 29  1  0  0  0
 29 30  2  0  0  0
  9  5  1  0  0  0
 16 11  1  0  0  0
 21 17  1  0  0  0
 30 22  1  0  0  0
 29 25  1  0  0  0
  3  4  1  0  0  0
  9 10  1  0  0  0
M  END
> <minimizedAffinity>
-7.77569

> <CNNscore>
0.2379360348

> <CNNaffinity>
6.2216100693

> <CNN_VS>
1.4803452492

> <CNNaffinity_variance>
0.9278133512

$$$$
[H]c1nc([H])c([H])c(-c2nc(N([H])C(=O)c3nc(-c4c([H])c([H])c5c(c4[H])C([H])([H])C([H])([H])O5)sc3[H])n([H])n2)c1[H]


 30 34  0  0  0  0  0  0  0  0999 V2000
  -88.0895   34.1120   -2.0284 O   0  0  0  0  0  0  0  0  0  0  0  0
  -86.9160   33.8255   -2.2906 C   0  0  0  0  0  0  0  0  0  0  0  0
  -86.3300   34.2858   -3.4888 N   0  0  0  0  0  0  0  0  0  0  0  0
  -85.3282   34.0366   -3.7044 H   0  0  0  0  0  0  0  0  0  0  0  0
  -87.0823   35.0786   -4.3977 C   0  0  0  0  0  0  0  0  0  0  0  0
  -88.0825   34.6521   -5.1729 N   0  0  0  0  0  0  0  0  0  0  0  0
  -88.5686   35.6675   -5.9075 C   0  0  0  0  0  0  0  0  0  0  0  0
  -87.8356   36.7384   -5.5613 N   0  0  0  0  0  0  0  0  0  0  0  0
  -86.9339   36.3933   -4.6489 N   0  0  0  0  0  0  0  0  0  0  0  0
  -86.2166   37.0055   -4.1825 H   0  0  0  0  0  0  0  0  0  0  0  0
  -89.6618   35.5691   -6.8624 C   0  0  0  0  0  0  0  0  0  0  0  0
  -90.5215   34.5002   -6.8515 C   0  0  0  0  0  0  0  0  0  0  0  0
  -91.5407   34.4591   -7.7808 C   0  0  0  0  0  0  0  0  0  0  0  0
  -91.7225   35.4307   -8.6989 N   0  0  0  0  0  0  0  0  0  0  0  0
  -90.8767   36.4817   -8.7092 C   0  0  0  0  0  0  0  0  0  0  0  0
  -89.8582   36.5538   -7.8043 C   0  0  0  0  0  0  0  0  0  0  0  0
  -86.1442   32.9973   -1.3318 C   0  0  0  0  0  0  0  0  0  0  0  0
  -84.9036   33.3932   -0.8807 C   0  0  0  0  0  0  0  0  0  0  0  0
  -84.4799   32.1135    0.1664 S   0  0  0  0  0  0  0  0  0  0  0  0
  -85.8819   31.1592   -0.0236 C   0  0  0  0  0  0  0  0  0  0  0  0
  -86.5968   31.8663   -0.8738 N   0  0  0  0  0  0  0  0  0  0  0  0
  -86.2230   29.8579    0.6050 C   0  0  0  0  0  0  0  0  0  0  0  0
  -85.3440   29.2398    1.4597 C   0  0  0  0  0  0  0  0  0  0  0  0
  -85.6660   28.0267    2.0434 C   0  0  0  0  0  0  0  0  0  0  0  0
  -86.8757   27.4388    1.7635 C   0  0  0  0  0  0  0  0  0  0  0  0
  -87.4124   26.2324    2.2284 O   0  0  0  0  0  0  0  0  0  0  0  0
  -88.7949   26.1643    1.9090 C   0  0  0  0  0  0  0  0  0  0  0  0
  -88.9939   27.1713    0.7985 C   0  0  0  0  0  0  0  0  0  0  0  0
  -87.7906   28.0388    0.9008 C   0  0  0  0  0  0  0  0  0  0  0  0
  -87.4235   29.2545    0.3396 C   0  0  0  0  0  0  0  0  0  0  0  0
  1  2  2  0  0  0
  2  3  1  0  0  0
  3  5  1  0  0  0
  5  6  2  0  0  0
  6  7  1  0  0  0
  7  8  2  0  0  0
  8  9  1  0  0  0
  7 11  1  0  0  0
 11 12  2  0  0  0
 12 13  1  0  0  0
 13 14  2  0  0  0
 14 15  1  0  0  0
 15 16  2  0  0  0
  2 17  1  0  0  0
 17 18  2  0  0  0
 18 19  1  0  0  0
 19 20  1  0  0  0
 20 21  2  0  0  0
 20 22  1  0  0  0
 22 23  2  0  0  0
 23 24  1  0  0  0
 24 25  2  0  0  0
 25 26  1  0  0  0
 26 27  1  0  0  0
 27 28  1  0  0  0
 28 29  1  0  0  0
 29 30  2  0  0  0
  9  5  1  0  0  0
 16 11  1  0  0  0
 21 17  1  0  0  0
 30 22  1  0  0  0
 29 25  1  0  0  0
  3  4  1  0  0  0
  9 10  1  0  0  0
M  END
> <minimizedAffinity>
-8.14566

> <CNNscore>
0.1654876024

> <CNNaffinity>
5.8957786560

> <CNN_VS>
0.9756782651

> <CNNaffinity_variance>
0.1015225276

$$$$
[H]c1nc([H])c([H])c(-c2nc(N([H])C(=O)c3nc(-c4c([H])c([H])c5c(c4[H])C([H])([H])C([H])([H])O5)sc3[H])n([H])n2)c1[H]


 30 34  0  0  0  0  0  0  0  0999 V2000
  -85.3799   33.2232   -0.5374 O   0  0  0  0  0  0  0  0  0  0  0  0
  -86.0948   32.2350   -0.7386 C   0  0  0  0  0  0  0  0  0  0  0  0
  -87.0845   32.2752   -1.7435 N   0  0  0  0  0  0  0  0  0  0  0  0
  -87.6899   31.4275   -1.9083 H   0  0  0  0  0  0  0  0  0  0  0  0
  -87.2647   33.4472   -2.5273 C   0  0  0  0  0  0  0  0  0  0  0  0
  -88.3541   34.2191   -2.5502 N   0  0  0  0  0  0  0  0  0  0  0  0
  -88.1818   35.2437   -3.4031 C   0  0  0  0  0  0  0  0  0  0  0  0
  -86.9481   35.0807   -3.9085 N   0  0  0  0  0  0  0  0  0  0  0  0
  -86.3848   33.9974   -3.3855 N   0  0  0  0  0  0  0  0  0  0  0  0
  -85.4276   33.6065   -3.5800 H   0  0  0  0  0  0  0  0  0  0  0  0
  -89.1615   36.2827   -3.6813 C   0  0  0  0  0  0  0  0  0  0  0  0
  -90.4767   35.9745   -3.9198 C   0  0  0  0  0  0  0  0  0  0  0  0
  -91.3622   37.0007   -4.1782 C   0  0  0  0  0  0  0  0  0  0  0  0
  -90.9822   38.2949   -4.2049 N   0  0  0  0  0  0  0  0  0  0  0  0
  -89.6886   38.5974   -3.9703 C   0  0  0  0  0  0  0  0  0  0  0  0
  -88.7866   37.6071   -3.7114 C   0  0  0  0  0  0  0  0  0  0  0  0
  -85.8943   31.0194    0.0879 C   0  0  0  0  0  0  0  0  0  0  0  0
  -84.7348   30.8259    0.8071 C   0  0  0  0  0  0  0  0  0  0  0  0
  -85.0247   29.3175    1.5519 S   0  0  0  0  0  0  0  0  0  0  0  0
  -86.5808   29.0197    0.9177 C   0  0  0  0  0  0  0  0  0  0  0  0
  -86.7956   30.0845    0.1733 N   0  0  0  0  0  0  0  0  0  0  0  0
  -87.4777   27.8575    1.1405 C   0  0  0  0  0  0  0  0  0  0  0  0
  -87.7210   26.9559    0.1339 C   0  0  0  0  0  0  0  0  0  0  0  0
  -88.5579   25.8739    0.3460 C   0  0  0  0  0  0  0  0  0  0  0  0
  -89.1484   25.7033    1.5746 C   0  0  0  0  0  0  0  0  0  0  0  0
  -90.0187   24.6999    2.0168 O   0  0  0  0  0  0  0  0  0  0  0  0
  -90.1465   24.7603    3.4303 C   0  0  0  0  0  0  0  0  0  0  0  0
  -89.6923   26.1521    3.8089 C   0  0  0  0  0  0  0  0  0  0  0  0
  -88.9231   26.5992    2.6176 C   0  0  0  0  0  0  0  0  0  0  0  0
  -88.0766   27.6686    2.3577 C   0  0  0  0  0  0  0  0  0  0  0  0
  1  2  2  0  0  0
  2  3  1  0  0  0
  3  5  1  0  0  0
  5  6  2  0  0  0
  6  7  1  0  0  0
  7  8  2  0  0  0
  8  9  1  0  0  0
  7 11  1  0  0  0
 11 12  2  0  0  0
 12 13  1  0  0  0
 13 14  2  0  0  0
 14 15  1  0  0  0
 15 16  2  0  0  0
  2 17  1  0  0  0
 17 18  2  0  0  0
 18 19  1  0  0  0
 19 20  1  0  0  0
 20 21  2  0  0  0
 20 22  1  0  0  0
 22 23  2  0  0  0
 23 24  1  0  0  0
 24 25  2  0  0  0
 25 26  1  0  0  0
 26 27  1  0  0  0
 27 28  1  0  0  0
 28 29  1  0  0  0
 29 30  2  0  0  0
  9  5  1  0  0  0
 16 11  1  0  0  0
 21 17  1  0  0  0
 30 22  1  0  0  0
 29 25  1  0  0  0
  3  4  1  0  0  0
  9 10  1  0  0  0
M  END
> <minimizedAffinity>
-8.00987

> <CNNscore>
0.1608630121

> <CNNaffinity>
6.1453785896

> <CNN_VS>
0.9885641336

> <CNNaffinity_variance>
0.2811632454

$$$$
[H]c1nc([H])c([H])c(-c2nc(N([H])C(=O)c3nc(-c4c([H])c([H])c5c(c4[H])C([H])([H])C([H])([H])O5)sc3[H])n([H])n2)c1[H]


 30 34  0  0  0  0  0  0  0  0999 V2000
  -88.1815   28.0689    3.0029 O   0  0  0  0  0  0  0  0  0  0  0  0
  -88.0035   26.9693    2.4670 C   0  0  0  0  0  0  0  0  0  0  0  0
  -86.7978   26.7069    1.7825 N   0  0  0  0  0  0  0  0  0  0  0  0
  -86.6544   25.7660    1.3282 H   0  0  0  0  0  0  0  0  0  0  0  0
  -85.7848   27.7011    1.7056 C   0  0  0  0  0  0  0  0  0  0  0  0
  -85.8383   28.8255    0.9873 N   0  0  0  0  0  0  0  0  0  0  0  0
  -84.7079   29.5350    1.1469 C   0  0  0  0  0  0  0  0  0  0  0  0
  -83.9512   28.8121    1.9888 N   0  0  0  0  0  0  0  0  0  0  0  0
  -84.5931   27.7011    2.3329 N   0  0  0  0  0  0  0  0  0  0  0  0
  -84.2650   26.9355    2.9756 H   0  0  0  0  0  0  0  0  0  0  0  0
  -84.4185   30.8131    0.5147 C   0  0  0  0  0  0  0  0  0  0  0  0
  -85.4267   31.6495    0.1078 C   0  0  0  0  0  0  0  0  0  0  0  0
  -85.0938   32.8497   -0.4862 C   0  0  0  0  0  0  0  0  0  0  0  0
  -83.8142   33.2302   -0.6813 N   0  0  0  0  0  0  0  0  0  0  0  0
  -82.8231   32.4071   -0.2809 C   0  0  0  0  0  0  0  0  0  0  0  0
  -83.1171   31.2131    0.3099 C   0  0  0  0  0  0  0  0  0  0  0  0
  -89.0703   25.9422    2.5562 C   0  0  0  0  0  0  0  0  0  0  0  0
  -89.5897   25.5531    3.7720 C   0  0  0  0  0  0  0  0  0  0  0  0
  -90.7464   24.3865    3.3086 S   0  0  0  0  0  0  0  0  0  0  0  0
  -90.5101   24.4559    1.6199 C   0  0  0  0  0  0  0  0  0  0  0  0
  -89.5635   25.3634    1.5000 N   0  0  0  0  0  0  0  0  0  0  0  0
  -91.1926   23.6917    0.5452 C   0  0  0  0  0  0  0  0  0  0  0  0
  -91.6193   22.4048    0.7620 C   0  0  0  0  0  0  0  0  0  0  0  0
  -92.2550   21.6959   -0.2428 C   0  0  0  0  0  0  0  0  0  0  0  0
  -92.4594   22.2876   -1.4657 C   0  0  0  0  0  0  0  0  0  0  0  0
  -93.0704   21.7748   -2.6161 O   0  0  0  0  0  0  0  0  0  0  0  0
  -93.3182   22.8250   -3.5400 C   0  0  0  0  0  0  0  0  0  0  0  0
  -92.3981   23.9482   -3.1173 C   0  0  0  0  0  0  0  0  0  0  0  0
  -92.0392   23.5916   -1.7192 C   0  0  0  0  0  0  0  0  0  0  0  0
  -91.4064   24.2625   -0.6813 C   0  0  0  0  0  0  0  0  0  0  0  0
  1  2  2  0  0  0
  2  3  1  0  0  0
  3  5  1  0  0  0
  5  6  2  0  0  0
  6  7  1  0  0  0
  7  8  2  0  0  0
  8  9  1  0  0  0
  7 11  1  0  0  0
 11 12  2  0  0  0
 12 13  1  0  0  0
 13 14  2  0  0  0
 14 15  1  0  0  0
 15 16  2  0  0  0
  2 17  1  0  0  0
 17 18  2  0  0  0
 18 19  1  0  0  0
 19 20  1  0  0  0
 20 21  2  0  0  0
 20 22  1  0  0  0
 22 23  2  0  0  0
 23 24  1  0  0  0
 24 25  2  0  0  0
 25 26  1  0  0  0
 26 27  1  0  0  0
 27 28  1  0  0  0
 28 29  1  0  0  0
 29 30  2  0  0  0
  9  5  1  0  0  0
 16 11  1  0  0  0
 21 17  1  0  0  0
 30 22  1  0  0  0
 29 25  1  0  0  0
  3  4  1  0  0  0
  9 10  1  0  0  0
M  END
> <minimizedAffinity>
-8.07388

> <CNNscore>
0.1050533801

> <CNNaffinity>
5.7667055130

> <CNN_VS>
0.6058118939

> <CNNaffinity_variance>
0.2740431428

$$$$
[H]c1nc([H])c([H])c(-c2nc(N([H])C(=O)c3nc(-c4c([H])c([H])c5c(c4[H])C([H])([H])C([H])([H])O5)sc3[H])n([H])n2)c1[H]


 30 34  0  0  0  0  0  0  0  0999 V2000
  -88.1484   31.3944   -4.1801 O   0  0  0  0  0  0  0  0  0  0  0  0
  -88.0563   31.3192   -2.9497 C   0  0  0  0  0  0  0  0  0  0  0  0
  -87.7980   32.4804   -2.1910 N   0  0  0  0  0  0  0  0  0  0  0  0
  -87.7210   32.4070   -1.1417 H   0  0  0  0  0  0  0  0  0  0  0  0
  -87.6429   33.7385   -2.8341 C   0  0  0  0  0  0  0  0  0  0  0  0
  -88.4611   34.7875   -2.7192 N   0  0  0  0  0  0  0  0  0  0  0  0
  -88.0128   35.8124   -3.4645 C   0  0  0  0  0  0  0  0  0  0  0  0
  -86.8883   35.3631   -4.0456 N   0  0  0  0  0  0  0  0  0  0  0  0
  -86.6555   34.1101   -3.6711 N   0  0  0  0  0  0  0  0  0  0  0  0
  -85.8566   33.4868   -3.9542 H   0  0  0  0  0  0  0  0  0  0  0  0
  -88.6527   37.1140   -3.5798 C   0  0  0  0  0  0  0  0  0  0  0  0
  -87.9864   38.2659   -3.2470 C   0  0  0  0  0  0  0  0  0  0  0  0
  -88.6428   39.4728   -3.3762 C   0  0  0  0  0  0  0  0  0  0  0  0
  -89.9147   39.5613   -3.8174 N   0  0  0  0  0  0  0  0  0  0  0  0
  -90.5694   38.4280   -4.1445 C   0  0  0  0  0  0  0  0  0  0  0  0
  -89.9501   37.2179   -4.0287 C   0  0  0  0  0  0  0  0  0  0  0  0
  -88.2206   29.9989   -2.2935 C   0  0  0  0  0  0  0  0  0  0  0  0
  -87.7738   28.8410   -2.8926 C   0  0  0  0  0  0  0  0  0  0  0  0
  -88.2037   27.6554   -1.7422 S   0  0  0  0  0  0  0  0  0  0  0  0
  -88.9174   28.6810   -0.5798 C   0  0  0  0  0  0  0  0  0  0  0  0
  -88.7899   29.8705   -1.1302 N   0  0  0  0  0  0  0  0  0  0  0  0
  -89.5312   28.3336    0.7269 C   0  0  0  0  0  0  0  0  0  0  0  0
  -90.5949   29.0514    1.2153 C   0  0  0  0  0  0  0  0  0  0  0  0
  -91.1640   28.7241    2.4340 C   0  0  0  0  0  0  0  0  0  0  0  0
  -90.6583   27.6721    3.1584 C   0  0  0  0  0  0  0  0  0  0  0  0
  -91.0637   27.1631    4.3978 O   0  0  0  0  0  0  0  0  0  0  0  0
  -90.4502   25.9022    4.6258 C   0  0  0  0  0  0  0  0  0  0  0  0
  -89.2653   25.8639    3.6871 C   0  0  0  0  0  0  0  0  0  0  0  0
  -89.5799   26.9230    2.6921 C   0  0  0  0  0  0  0  0  0  0  0  0
  -89.0426   27.2887    1.4652 C   0  0  0  0  0  0  0  0  0  0  0  0
  1  2  2  0  0  0
  2  3  1  0  0  0
  3  5  1  0  0  0
  5  6  2  0  0  0
  6  7  1  0  0  0
  7  8  2  0  0  0
  8  9  1  0  0  0
  7 11  1  0  0  0
 11 12  2  0  0  0
 12 13  1  0  0  0
 13 14  2  0  0  0
 14 15  1  0  0  0
 15 16  2  0  0  0
  2 17  1  0  0  0
 17 18  2  0  0  0
 18 19  1  0  0  0
 19 20  1  0  0  0
 20 21  2  0  0  0
 20 22  1  0  0  0
 22 23  2  0  0  0
 23 24  1  0  0  0
 24 25  2  0  0  0
 25 26  1  0  0  0
 26 27  1  0  0  0
 27 28  1  0  0  0
 28 29  1  0  0  0
 29 30  2  0  0  0
  9  5  1  0  0  0
 16 11  1  0  0  0
 21 17  1  0  0  0
 30 22  1  0  0  0
 29 25  1  0  0  0
  3  4  1  0  0  0
  9 10  1  0  0  0
M  END
> <minimizedAffinity>
-7.82172

> <CNNscore>
0.0949654803

> <CNNaffinity>
5.6217732430

> <CNN_VS>
0.5338743925

> <CNNaffinity_variance>
0.1210703403

$$$$
[H]c1nc([H])c([H])c(-c2nc(N([H])C(=O)c3nc(-c4c([H])c([H])c5c(c4[H])C([H])([H])C([H])([H])O5)sc3[H])n([H])n2)c1[H]


 30 34  0  0  0  0  0  0  0  0999 V2000
  -91.0380   25.9269    0.3056 O   0  0  0  0  0  0  0  0  0  0  0  0
  -90.3346   26.7226    0.9382 C   0  0  0  0  0  0  0  0  0  0  0  0
  -89.9133   26.4035    2.2464 N   0  0  0  0  0  0  0  0  0  0  0  0
  -89.3134   27.0883    2.7788 H   0  0  0  0  0  0  0  0  0  0  0  0
  -90.2935   25.1702    2.8424 C   0  0  0  0  0  0  0  0  0  0  0  0
  -89.5529   24.0603    2.8956 N   0  0  0  0  0  0  0  0  0  0  0  0
  -90.2220   23.0834    3.5318 C   0  0  0  0  0  0  0  0  0  0  0  0
  -91.4031   23.6254    3.8713 N   0  0  0  0  0  0  0  0  0  0  0  0
  -91.4567   24.8870    3.4591 N   0  0  0  0  0  0  0  0  0  0  0  0
  -92.2457   25.5735    3.5738 H   0  0  0  0  0  0  0  0  0  0  0  0
  -89.7220   21.7387    3.7736 C   0  0  0  0  0  0  0  0  0  0  0  0
  -90.2209   20.6605    3.0877 C   0  0  0  0  0  0  0  0  0  0  0  0
  -89.7092   19.4078    3.3579 C   0  0  0  0  0  0  0  0  0  0  0  0
  -88.7372   19.2047    4.2712 N   0  0  0  0  0  0  0  0  0  0  0  0
  -88.2470   20.2654    4.9454 C   0  0  0  0  0  0  0  0  0  0  0  0
  -88.7304   21.5180    4.7028 C   0  0  0  0  0  0  0  0  0  0  0  0
  -89.9464   28.0055    0.3023 C   0  0  0  0  0  0  0  0  0  0  0  0
  -90.8211   28.6966   -0.5080 C   0  0  0  0  0  0  0  0  0  0  0  0
  -89.8919   30.0559   -0.9582 S   0  0  0  0  0  0  0  0  0  0  0  0
  -88.4635   29.6771   -0.1048 C   0  0  0  0  0  0  0  0  0  0  0  0
  -88.7710   28.5364    0.4769 N   0  0  0  0  0  0  0  0  0  0  0  0
  -87.1881   30.4337   -0.0282 C   0  0  0  0  0  0  0  0  0  0  0  0
  -87.1054   31.7192   -0.5033 C   0  0  0  0  0  0  0  0  0  0  0  0
  -85.9143   32.4208   -0.4300 C   0  0  0  0  0  0  0  0  0  0  0  0
  -84.8079   31.8235    0.1232 C   0  0  0  0  0  0  0  0  0  0  0  0
  -83.5147   32.3288    0.3025 O   0  0  0  0  0  0  0  0  0  0  0  0
  -82.7798   31.4772    1.1702 C   0  0  0  0  0  0  0  0  0  0  0  0
  -83.5167   30.1569    1.1452 C   0  0  0  0  0  0  0  0  0  0  0  0
  -84.8571   30.5207    0.6147 C   0  0  0  0  0  0  0  0  0  0  0  0
  -86.0730   29.8571    0.5194 C   0  0  0  0  0  0  0  0  0  0  0  0
  1  2  2  0  0  0
  2  3  1  0  0  0
  3  5  1  0  0  0
  5  6  2  0  0  0
  6  7  1  0  0  0
  7  8  2  0  0  0
  8  9  1  0  0  0
  7 11  1  0  0  0
 11 12  2  0  0  0
 12 13  1  0  0  0
 13 14  2  0  0  0
 14 15  1  0  0  0
 15 16  2  0  0  0
  2 17  1  0  0  0
 17 18  2  0  0  0
 18 19  1  0  0  0
 19 20  1  0  0  0
 20 21  2  0  0  0
 20 22  1  0  0  0
 22 23  2  0  0  0
 23 24  1  0  0  0
 24 25  2  0  0  0
 25 26  1  0  0  0
 26 27  1  0  0  0
 27 28  1  0  0  0
 28 29  1  0  0  0
 29 30  2  0  0  0
  9  5  1  0  0  0
 16 11  1  0  0  0
 21 17  1  0  0  0
 30 22  1  0  0  0
 29 25  1  0  0  0
  3  4  1  0  0  0
  9 10  1  0  0  0
M  END
> <minimizedAffinity>
-8.79802

> <CNNscore>
0.0922152400

> <CNNaffinity>
5.8081355095

> <CNN_VS>
0.5355986357

> <CNNaffinity_variance>
0.3854947388

$$$$
[H]c1nc([H])c([H])c(-c2nc(N([H])C(=O)c3nc(-c4c([H])c([H])c5c(c4[H])C([H])([H])C([H])([H])O5)sc3[H])n([H])n2)c1[H]


 30 34  0  0  0  0  0  0  0  0999 V2000
  -86.7857   34.0183   -1.9210 O   0  0  0  0  0  0  0  0  0  0  0  0
  -87.5215   33.1635   -2.4268 C   0  0  0  0  0  0  0  0  0  0  0  0
  -88.0289   33.3534   -3.7296 N   0  0  0  0  0  0  0  0  0  0  0  0
  -88.6559   32.6189   -4.1534 H   0  0  0  0  0  0  0  0  0  0  0  0
  -87.6984   34.5240   -4.4653 C   0  0  0  0  0  0  0  0  0  0  0  0
  -88.3723   35.0146   -5.5085 N   0  0  0  0  0  0  0  0  0  0  0  0
  -87.7804   36.1331   -5.9617 C   0  0  0  0  0  0  0  0  0  0  0  0
  -86.7160   36.3194   -5.1639 N   0  0  0  0  0  0  0  0  0  0  0  0
  -86.6572   35.3519   -4.2555 N   0  0  0  0  0  0  0  0  0  0  0  0
  -85.9435   35.2206   -3.4938 H   0  0  0  0  0  0  0  0  0  0  0  0
  -88.2404   36.9340   -7.0858 C   0  0  0  0  0  0  0  0  0  0  0  0
  -87.3880   37.7735   -7.7569 C   0  0  0  0  0  0  0  0  0  0  0  0
  -87.8790   38.5096   -8.8157 C   0  0  0  0  0  0  0  0  0  0  0  0
  -89.1655   38.4341   -9.2148 N   0  0  0  0  0  0  0  0  0  0  0  0
  -90.0034   37.6083   -8.5544 C   0  0  0  0  0  0  0  0  0  0  0  0
  -89.5507   36.8661   -7.5029 C   0  0  0  0  0  0  0  0  0  0  0  0
  -87.8571   31.9474   -1.6462 C   0  0  0  0  0  0  0  0  0  0  0  0
  -89.1422   31.4509   -1.6114 C   0  0  0  0  0  0  0  0  0  0  0  0
  -88.9702   30.0866   -0.6001 S   0  0  0  0  0  0  0  0  0  0  0  0
  -87.2990   30.2198   -0.2813 C   0  0  0  0  0  0  0  0  0  0  0  0
  -86.9622   31.2956   -0.9620 N   0  0  0  0  0  0  0  0  0  0  0  0
  -86.4307   29.3494    0.5514 C   0  0  0  0  0  0  0  0  0  0  0  0
  -86.8983   28.1552    1.0417 C   0  0  0  0  0  0  0  0  0  0  0  0
  -86.0855   27.3469    1.8177 C   0  0  0  0  0  0  0  0  0  0  0  0
  -84.8010   27.7455    2.0978 C   0  0  0  0  0  0  0  0  0  0  0  0
  -83.8097   27.1040    2.8498 O   0  0  0  0  0  0  0  0  0  0  0  0
  -82.5555   27.7350    2.6332 C   0  0  0  0  0  0  0  0  0  0  0  0
  -82.8913   29.1028    2.0826 C   0  0  0  0  0  0  0  0  0  0  0  0
  -84.2950   28.9510    1.6163 C   0  0  0  0  0  0  0  0  0  0  0  0
  -85.1471   29.7277    0.8427 C   0  0  0  0  0  0  0  0  0  0  0  0
  1  2  2  0  0  0
  2  3  1  0  0  0
  3  5  1  0  0  0
  5  6  2  0  0  0
  6  7  1  0  0  0
  7  8  2  0  0  0
  8  9  1  0  0  0
  7 11  1  0  0  0
 11 12  2  0  0  0
 12 13  1  0  0  0
 13 14  2  0  0  0
 14 15  1  0  0  0
 15 16  2  0  0  0
  2 17  1  0  0  0
 17 18  2  0  0  0
 18 19  1  0  0  0
 19 20  1  0  0  0
 20 21  2  0  0  0
 20 22  1  0  0  0
 22 23  2  0  0  0
 23 24  1  0  0  0
 24 25  2  0  0  0
 25 26  1  0  0  0
 26 27  1  0  0  0
 27 28  1  0  0  0
 28 29  1  0  0  0
 29 30  2  0  0  0
  9  5  1  0  0  0
 16 11  1  0  0  0
 21 17  1  0  0  0
 30 22  1  0  0  0
 29 25  1  0  0  0
  3  4  1  0  0  0
  9 10  1  0  0  0
M  END
> <minimizedAffinity>
-8.91464

> <CNNscore>
0.0789458305

> <CNNaffinity>
5.8195543289

> <CNN_VS>
0.4594295621

> <CNNaffinity_variance>
0.0759634599

$$$$
[H]c1nc([H])c([H])c(-c2nnc(N([H])C(=O)c3nc(-c4c([H])c([H])c5c(c4[H])C([H])([H])C([H])([H])O5)sc3[H])s2)c1[H]


 29 33  0  0  0  0  0  0  0  0999 V2000
  -88.5249   33.9048   -2.4579 O   0  0  0  0  0  0  0  0  0  0  0  0
  -87.2748   33.7613   -2.5199 C   0  0  0  0  0  0  0  0  0  0  0  0
  -86.5544   34.3660   -3.5626 N   0  0  0  0  0  0  0  0  0  0  0  0
  -85.5298   34.2777   -3.6562 H   0  0  0  0  0  0  0  0  0  0  0  0
  -87.2577   35.1315   -4.5307 C   0  0  0  0  0  0  0  0  0  0  0  0
  -87.0309   36.3652   -4.9741 N   0  0  0  0  0  0  0  0  0  0  0  0
  -87.7782   36.8751   -5.8477 N   0  0  0  0  0  0  0  0  0  0  0  0
  -88.8020   36.1824   -6.3345 C   0  0  0  0  0  0  0  0  0  0  0  0
  -88.6532   34.7158   -5.4639 S   0  0  0  0  0  0  0  0  0  0  0  0
  -89.7873   36.5882   -7.3503 C   0  0  0  0  0  0  0  0  0  0  0  0
  -90.5081   35.6117   -7.9921 C   0  0  0  0  0  0  0  0  0  0  0  0
  -91.4398   36.0144   -8.9541 C   0  0  0  0  0  0  0  0  0  0  0  0
  -91.5964   37.3261   -9.2149 N   0  0  0  0  0  0  0  0  0  0  0  0
  -90.9116   38.2877   -8.6078 C   0  0  0  0  0  0  0  0  0  0  0  0
  -89.9861   37.9208   -7.6548 C   0  0  0  0  0  0  0  0  0  0  0  0
  -86.5599   32.9522   -1.4901 C   0  0  0  0  0  0  0  0  0  0  0  0
  -85.3636   33.3760   -0.9636 C   0  0  0  0  0  0  0  0  0  0  0  0
  -85.0008   32.1165    0.1304 S   0  0  0  0  0  0  0  0  0  0  0  0
  -86.3840   31.1387   -0.1503 C   0  0  0  0  0  0  0  0  0  0  0  0
  -87.0367   31.8283   -1.0574 N   0  0  0  0  0  0  0  0  0  0  0  0
  -86.7427   29.8463    0.4759 C   0  0  0  0  0  0  0  0  0  0  0  0
  -85.8971   29.2423    1.3751 C   0  0  0  0  0  0  0  0  0  0  0  0
  -86.2323   28.0307    1.9630 C   0  0  0  0  0  0  0  0  0  0  0  0
  -87.4255   27.4301    1.6397 C   0  0  0  0  0  0  0  0  0  0  0  0
  -87.9899   26.2383    2.0774 O   0  0  0  0  0  0  0  0  0  0  0  0
  -89.0591   25.8534    1.2639 C   0  0  0  0  0  0  0  0  0  0  0  0
  -89.4814   27.1265    0.6069 C   0  0  0  0  0  0  0  0  0  0  0  0
  -88.2964   28.0152    0.7378 C   0  0  0  0  0  0  0  0  0  0  0  0
  -87.9240   29.2230    0.1746 C   0  0  0  0  0  0  0  0  0  0  0  0
  1  2  2  0  0  0
  2  3  1  0  0  0
  3  5  1  0  0  0
  5  6  2  0  0  0
  6  7  1  0  0  0
  7  8  2  0  0  0
  8  9  1  0  0  0
  8 10  1  0  0  0
 10 11  2  0  0  0
 11 12  1  0  0  0
 12 13  2  0  0  0
 13 14  1  0  0  0
 14 15  2  0  0  0
  2 16  1  0  0  0
 16 17  2  0  0  0
 17 18  1  0  0  0
 18 19  1  0  0  0
 19 20  2  0  0  0
 19 21  1  0  0  0
 21 22  2  0  0  0
 22 23  1  0  0  0
 23 24  2  0  0  0
 24 25  1  0  0  0
 25 26  1  0  0  0
 26 27  1  0  0  0
 27 28  1  0  0  0
 28 29  2  0  0  0
  9  5  1  0  0  0
 15 10  1  0  0  0
 20 16  1  0  0  0
 29 21  1  0  0  0
 28 24  1  0  0  0
  3  4  1  0  0  0
M  END
> <minimizedAffinity>
-7.58894

> <CNNscore>
0.2501289546

> <CNNaffinity>
5.8878130913

> <CNN_VS>
1.4727125168

> <CNNaffinity_variance>
0.1444121897

$$$$
[H]c1nc([H])c([H])c(-c2nnc(N([H])C(=O)c3nc(-c4c([H])c([H])c5c(c4[H])C([H])([H])C([H])([H])O5)sc3[H])s2)c1[H]


 29 33  0  0  0  0  0  0  0  0999 V2000
  -88.6597   27.6096    3.0436 O   0  0  0  0  0  0  0  0  0  0  0  0
  -88.4419   26.4981    2.4919 C   0  0  0  0  0  0  0  0  0  0  0  0
  -87.2786   26.3156    1.7268 N   0  0  0  0  0  0  0  0  0  0  0  0
  -87.0558   25.4242    1.2556 H   0  0  0  0  0  0  0  0  0  0  0  0
  -86.3676   27.3972    1.5919 C   0  0  0  0  0  0  0  0  0  0  0  0
  -85.2603   27.6724    2.2760 N   0  0  0  0  0  0  0  0  0  0  0  0
  -84.5795   28.6936    2.0015 N   0  0  0  0  0  0  0  0  0  0  0  0
  -84.9636   29.5063    1.0232 C   0  0  0  0  0  0  0  0  0  0  0  0
  -86.3910   28.7277    0.4872 S   0  0  0  0  0  0  0  0  0  0  0  0
  -84.3183   30.7404    0.5458 C   0  0  0  0  0  0  0  0  0  0  0  0
  -82.9556   30.8568    0.6655 C   0  0  0  0  0  0  0  0  0  0  0  0
  -82.3587   32.0354    0.2070 C   0  0  0  0  0  0  0  0  0  0  0  0
  -83.1285   33.0020   -0.3281 N   0  0  0  0  0  0  0  0  0  0  0  0
  -84.4469   32.9123   -0.4543 C   0  0  0  0  0  0  0  0  0  0  0  0
  -85.0630   31.7619   -0.0111 C   0  0  0  0  0  0  0  0  0  0  0  0
  -89.4149   25.3780    2.6495 C   0  0  0  0  0  0  0  0  0  0  0  0
  -89.7703   24.9207    3.8954 C   0  0  0  0  0  0  0  0  0  0  0  0
  -90.8719   23.6757    3.5064 S   0  0  0  0  0  0  0  0  0  0  0  0
  -90.8098   23.8158    1.7962 C   0  0  0  0  0  0  0  0  0  0  0  0
  -89.9567   24.7992    1.6252 N   0  0  0  0  0  0  0  0  0  0  0  0
  -91.5373   23.0242    0.7787 C   0  0  0  0  0  0  0  0  0  0  0  0
  -91.9106   23.5896   -0.4168 C   0  0  0  0  0  0  0  0  0  0  0  0
  -92.5926   22.8486   -1.3716 C   0  0  0  0  0  0  0  0  0  0  0  0
  -92.8969   21.5330   -1.1152 C   0  0  0  0  0  0  0  0  0  0  0  0
  -93.5599   20.5873   -1.8875 O   0  0  0  0  0  0  0  0  0  0  0  0
  -93.9282   19.4758   -1.1246 C   0  0  0  0  0  0  0  0  0  0  0  0
  -93.0027   19.5268    0.0466 C   0  0  0  0  0  0  0  0  0  0  0  0
  -92.5334   20.9374    0.0796 C   0  0  0  0  0  0  0  0  0  0  0  0
  -91.8549   21.7115    1.0043 C   0  0  0  0  0  0  0  0  0  0  0  0
  1  2  2  0  0  0
  2  3  1  0  0  0
  3  5  1  0  0  0
  5  6  2  0  0  0
  6  7  1  0  0  0
  7  8  2  0  0  0
  8  9  1  0  0  0
  8 10  1  0  0  0
 10 11  2  0  0  0
 11 12  1  0  0  0
 12 13  2  0  0  0
 13 14  1  0  0  0
 14 15  2  0  0  0
  2 16  1  0  0  0
 16 17  2  0  0  0
 17 18  1  0  0  0
 18 19  1  0  0  0
 19 20  2  0  0  0
 19 21  1  0  0  0
 21 22  2  0  0  0
 22 23  1  0  0  0
 23 24  2  0  0  0
 24 25  1  0  0  0
 25 26  1  0  0  0
 26 27  1  0  0  0
 27 28  1  0  0  0
 28 29  2  0  0  0
  9  5  1  0  0  0
 15 10  1  0  0  0
 20 16  1  0  0  0
 29 21  1  0  0  0
 28 24  1  0  0  0
  3  4  1  0  0  0
M  END
> <minimizedAffinity>
-8.00034

> <CNNscore>
0.1794175655

> <CNNaffinity>
5.9300928116

> <CNN_VS>
1.0639628172

> <CNNaffinity_variance>
0.3610817194

$$$$
[H]c1nc([H])c([H])c(-c2nnc(N([H])C(=O)c3nc(-c4c([H])c([H])c5c(c4[H])C([H])([H])C([H])([H])O5)sc3[H])s2)c1[H]


 29 33  0  0  0  0  0  0  0  0999 V2000
  -87.6785   31.4918   -3.2053 O   0  0  0  0  0  0  0  0  0  0  0  0
  -88.1583   32.5461   -2.7101 C   0  0  0  0  0  0  0  0  0  0  0  0
  -87.7476   32.9673   -1.4350 N   0  0  0  0  0  0  0  0  0  0  0  0
  -88.1115   33.8235   -0.9870 H   0  0  0  0  0  0  0  0  0  0  0  0
  -86.7930   32.1883   -0.7280 C   0  0  0  0  0  0  0  0  0  0  0  0
  -85.5373   32.4727   -0.3929 N   0  0  0  0  0  0  0  0  0  0  0  0
  -84.8435   31.6383    0.2429 N   0  0  0  0  0  0  0  0  0  0  0  0
  -85.3624   30.4640    0.5847 C   0  0  0  0  0  0  0  0  0  0  0  0
  -86.9421   30.5996   -0.0611 S   0  0  0  0  0  0  0  0  0  0  0  0
  -84.7292   29.3579    1.3215 C   0  0  0  0  0  0  0  0  0  0  0  0
  -85.4570   28.2150    1.5422 C   0  0  0  0  0  0  0  0  0  0  0  0
  -84.8405   27.1741    2.2437 C   0  0  0  0  0  0  0  0  0  0  0  0
  -83.5731   27.3252    2.6727 N   0  0  0  0  0  0  0  0  0  0  0  0
  -82.8498   28.4200    2.4714 C   0  0  0  0  0  0  0  0  0  0  0  0
  -83.4313   29.4627    1.7829 C   0  0  0  0  0  0  0  0  0  0  0  0
  -89.1597   33.3464   -3.4737 C   0  0  0  0  0  0  0  0  0  0  0  0
  -88.9433   34.6758   -3.7450 C   0  0  0  0  0  0  0  0  0  0  0  0
  -90.3548   35.0866   -4.6132 S   0  0  0  0  0  0  0  0  0  0  0  0
  -91.1240   33.5520   -4.5755 C   0  0  0  0  0  0  0  0  0  0  0  0
  -90.2621   32.8216   -3.9061 N   0  0  0  0  0  0  0  0  0  0  0  0
  -92.4289   33.1596   -5.1537 C   0  0  0  0  0  0  0  0  0  0  0  0
  -93.4372   34.0812   -5.3028 C   0  0  0  0  0  0  0  0  0  0  0  0
  -94.6611   33.7146   -5.8448 C   0  0  0  0  0  0  0  0  0  0  0  0
  -94.8639   32.4128   -6.2363 C   0  0  0  0  0  0  0  0  0  0  0  0
  -95.9753   31.7962   -6.7975 O   0  0  0  0  0  0  0  0  0  0  0  0
  -95.8637   30.4040   -6.7472 C   0  0  0  0  0  0  0  0  0  0  0  0
  -94.3951   30.1706   -6.6080 C   0  0  0  0  0  0  0  0  0  0  0  0
  -93.8667   31.4636   -6.0982 C   0  0  0  0  0  0  0  0  0  0  0  0
  -92.6618   31.8708   -5.5533 C   0  0  0  0  0  0  0  0  0  0  0  0
  1  2  2  0  0  0
  2  3  1  0  0  0
  3  5  1  0  0  0
  5  6  2  0  0  0
  6  7  1  0  0  0
  7  8  2  0  0  0
  8  9  1  0  0  0
  8 10  1  0  0  0
 10 11  2  0  0  0
 11 12  1  0  0  0
 12 13  2  0  0  0
 13 14  1  0  0  0
 14 15  2  0  0  0
  2 16  1  0  0  0
 16 17  2  0  0  0
 17 18  1  0  0  0
 18 19  1  0  0  0
 19 20  2  0  0  0
 19 21  1  0  0  0
 21 22  2  0  0  0
 22 23  1  0  0  0
 23 24  2  0  0  0
 24 25  1  0  0  0
 25 26  1  0  0  0
 26 27  1  0  0  0
 27 28  1  0  0  0
 28 29  2  0  0  0
  9  5  1  0  0  0
 15 10  1  0  0  0
 20 16  1  0  0  0
 29 21  1  0  0  0
 28 24  1  0  0  0
  3  4  1  0  0  0
M  END
> <minimizedAffinity>
-7.15989

> <CNNscore>
0.1425835490

> <CNNaffinity>
5.8165760040

> <CNN_VS>
0.8293480277

> <CNNaffinity_variance>
0.3833374977

$$$$
[H]c1nc([H])c([H])c(-c2nnc(N([H])C(=O)c3nc(-c4c([H])c([H])c5c(c4[H])C([H])([H])C([H])([H])O5)sc3[H])s2)c1[H]


 29 33  0  0  0  0  0  0  0  0999 V2000
  -89.6762   32.3017   -1.8533 O   0  0  0  0  0  0  0  0  0  0  0  0
  -88.6854   32.6476   -2.5502 C   0  0  0  0  0  0  0  0  0  0  0  0
  -88.8293   32.8027   -3.9385 N   0  0  0  0  0  0  0  0  0  0  0  0
  -88.0477   33.0844   -4.5516 H   0  0  0  0  0  0  0  0  0  0  0  0
  -90.0990   32.5639   -4.5290 C   0  0  0  0  0  0  0  0  0  0  0  0
  -90.9316   31.5370   -4.3796 N   0  0  0  0  0  0  0  0  0  0  0  0
  -92.0260   31.5094   -4.9986 N   0  0  0  0  0  0  0  0  0  0  0  0
  -92.3582   32.5091   -5.8082 C   0  0  0  0  0  0  0  0  0  0  0  0
  -90.9951   33.5324   -5.6471 S   0  0  0  0  0  0  0  0  0  0  0  0
  -93.5775   32.6715   -6.6169 C   0  0  0  0  0  0  0  0  0  0  0  0
  -94.5025   31.6569   -6.6205 C   0  0  0  0  0  0  0  0  0  0  0  0
  -95.6550   31.8275   -7.3940 C   0  0  0  0  0  0  0  0  0  0  0  0
  -95.8167   32.9635   -8.0986 N   0  0  0  0  0  0  0  0  0  0  0  0
  -94.9370   33.9577   -8.1108 C   0  0  0  0  0  0  0  0  0  0  0  0
  -93.7913   33.8178   -7.3577 C   0  0  0  0  0  0  0  0  0  0  0  0
  -87.3624   32.8924   -1.9052 C   0  0  0  0  0  0  0  0  0  0  0  0
  -86.7345   34.1092   -2.0201 C   0  0  0  0  0  0  0  0  0  0  0  0
  -85.3059   33.8481   -1.1224 S   0  0  0  0  0  0  0  0  0  0  0  0
  -85.5969   32.2197   -0.6621 C   0  0  0  0  0  0  0  0  0  0  0  0
  -86.7610   31.9739   -1.2180 N   0  0  0  0  0  0  0  0  0  0  0  0
  -84.7459   31.3258    0.1550 C   0  0  0  0  0  0  0  0  0  0  0  0
  -83.4021   31.5741    0.3002 C   0  0  0  0  0  0  0  0  0  0  0  0
  -82.6031   30.7368    1.0661 C   0  0  0  0  0  0  0  0  0  0  0  0
  -83.1659   29.6466    1.6856 C   0  0  0  0  0  0  0  0  0  0  0  0
  -82.5992   28.6688    2.4938 O   0  0  0  0  0  0  0  0  0  0  0  0
  -83.4588   27.5781    2.6506 C   0  0  0  0  0  0  0  0  0  0  0  0
  -84.8066   28.1407    2.3383 C   0  0  0  0  0  0  0  0  0  0  0  0
  -84.5159   29.3722    1.5572 C   0  0  0  0  0  0  0  0  0  0  0  0
  -85.2767   30.2320    0.7848 C   0  0  0  0  0  0  0  0  0  0  0  0
  1  2  2  0  0  0
  2  3  1  0  0  0
  3  5  1  0  0  0
  5  6  2  0  0  0
  6  7  1  0  0  0
  7  8  2  0  0  0
  8  9  1  0  0  0
  8 10  1  0  0  0
 10 11  2  0  0  0
 11 12  1  0  0  0
 12 13  2  0  0  0
 13 14  1  0  0  0
 14 15  2  0  0  0
  2 16  1  0  0  0
 16 17  2  0  0  0
 17 18  1  0  0  0
 18 19  1  0  0  0
 19 20  2  0  0  0
 19 21  1  0  0  0
 21 22  2  0  0  0
 22 23  1  0  0  0
 23 24  2  0  0  0
 24 25  1  0  0  0
 25 26  1  0  0  0
 26 27  1  0  0  0
 27 28  1  0  0  0
 28 29  2  0  0  0
  9  5  1  0  0  0
 15 10  1  0  0  0
 20 16  1  0  0  0
 29 21  1  0  0  0
 28 24  1  0  0  0
  3  4  1  0  0  0
M  END
> <minimizedAffinity>
-7.47916

> <CNNscore>
0.1375474036

> <CNNaffinity>
5.7881770134

> <CNN_VS>
0.7961487174

> <CNNaffinity_variance>
0.1517809331

$$$$
[H]c1nc([H])c([H])c(-c2nnc(N([H])C(=O)c3nc(-c4c([H])c([H])c5c(c4[H])C([H])([H])C([H])([H])O5)sc3[H])s2)c1[H]


 29 33  0  0  0  0  0  0  0  0999 V2000
  -92.2325   29.4945   -2.6624 O   0  0  0  0  0  0  0  0  0  0  0  0
  -91.1395   29.1208   -2.1596 C   0  0  0  0  0  0  0  0  0  0  0  0
  -90.8339   27.7517   -2.0946 N   0  0  0  0  0  0  0  0  0  0  0  0
  -89.9518   27.3963   -1.6921 H   0  0  0  0  0  0  0  0  0  0  0  0
  -91.7718   26.8129   -2.6014 C   0  0  0  0  0  0  0  0  0  0  0  0
  -92.5684   25.9662   -1.9545 N   0  0  0  0  0  0  0  0  0  0  0  0
  -93.3396   25.2043   -2.5920 N   0  0  0  0  0  0  0  0  0  0  0  0
  -93.3633   25.2407   -3.9199 C   0  0  0  0  0  0  0  0  0  0  0  0
  -92.1964   26.4522   -4.2387 S   0  0  0  0  0  0  0  0  0  0  0  0
  -94.1823   24.4432   -4.8475 C   0  0  0  0  0  0  0  0  0  0  0  0
  -94.4571   24.9591   -6.0898 C   0  0  0  0  0  0  0  0  0  0  0  0
  -95.2363   24.1885   -6.9585 C   0  0  0  0  0  0  0  0  0  0  0  0
  -95.6842   22.9849   -6.5539 N   0  0  0  0  0  0  0  0  0  0  0  0
  -95.4317   22.4654   -5.3586 C   0  0  0  0  0  0  0  0  0  0  0  0
  -94.6661   23.2023   -4.4810 C   0  0  0  0  0  0  0  0  0  0  0  0
  -90.1715   30.1273   -1.6343 C   0  0  0  0  0  0  0  0  0  0  0  0
  -90.4934   31.4624   -1.5920 C   0  0  0  0  0  0  0  0  0  0  0  0
  -89.0750   32.1400   -0.9259 S   0  0  0  0  0  0  0  0  0  0  0  0
  -88.1701   30.6920   -0.7454 C   0  0  0  0  0  0  0  0  0  0  0  0
  -89.0002   29.7827   -1.2019 N   0  0  0  0  0  0  0  0  0  0  0  0
  -86.8008   30.5205   -0.2098 C   0  0  0  0  0  0  0  0  0  0  0  0
  -86.4243   29.3445    0.3934 C   0  0  0  0  0  0  0  0  0  0  0  0
  -85.1408   29.1824    0.8958 C   0  0  0  0  0  0  0  0  0  0  0  0
  -84.2376   30.2127    0.7872 C   0  0  0  0  0  0  0  0  0  0  0  0
  -82.9142   30.3071    1.1996 O   0  0  0  0  0  0  0  0  0  0  0  0
  -82.4678   31.6313    1.1761 C   0  0  0  0  0  0  0  0  0  0  0  0
  -83.4034   32.3044    0.2262 C   0  0  0  0  0  0  0  0  0  0  0  0
  -84.5889   31.4077    0.1847 C   0  0  0  0  0  0  0  0  0  0  0  0
  -85.8782   31.5280   -0.3028 C   0  0  0  0  0  0  0  0  0  0  0  0
  1  2  2  0  0  0
  2  3  1  0  0  0
  3  5  1  0  0  0
  5  6  2  0  0  0
  6  7  1  0  0  0
  7  8  2  0  0  0
  8  9  1  0  0  0
  8 10  1  0  0  0
 10 11  2  0  0  0
 11 12  1  0  0  0
 12 13  2  0  0  0
 13 14  1  0  0  0
 14 15  2  0  0  0
  2 16  1  0  0  0
 16 17  2  0  0  0
 17 18  1  0  0  0
 18 19  1  0  0  0
 19 20  2  0  0  0
 19 21  1  0  0  0
 21 22  2  0  0  0
 22 23  1  0  0  0
 23 24  2  0  0  0
 24 25  1  0  0  0
 25 26  1  0  0  0
 26 27  1  0  0  0
 27 28  1  0  0  0
 28 29  2  0  0  0
  9  5  1  0  0  0
 15 10  1  0  0  0
 20 16  1  0  0  0
 29 21  1  0  0  0
 28 24  1  0  0  0
  3  4  1  0  0  0
M  END
> <minimizedAffinity>
-6.89367

> <CNNscore>
0.1226545349

> <CNNaffinity>
5.5605597496

> <CNN_VS>
0.6820278764

> <CNNaffinity_variance>
0.1512924284

$$$$
[H]c1nc([H])c([H])c(-c2nnc(N([H])C(=O)c3nc(-c4c([H])c([H])c5c(c4[H])C([H])([H])C([H])([H])O5)sc3[H])s2)c1[H]


 29 33  0  0  0  0  0  0  0  0999 V2000
  -90.0585   25.5526    0.8135 O   0  0  0  0  0  0  0  0  0  0  0  0
  -89.0610   25.8895    0.1218 C   0  0  0  0  0  0  0  0  0  0  0  0
  -88.9538   25.4499   -1.2076 N   0  0  0  0  0  0  0  0  0  0  0  0
  -88.1561   25.6991   -1.8142 H   0  0  0  0  0  0  0  0  0  0  0  0
  -89.9809   24.6291   -1.7454 C   0  0  0  0  0  0  0  0  0  0  0  0
  -90.1233   23.3068   -1.7128 N   0  0  0  0  0  0  0  0  0  0  0  0
  -91.1174   22.7599   -2.2553 N   0  0  0  0  0  0  0  0  0  0  0  0
  -92.0344   23.5023   -2.8663 C   0  0  0  0  0  0  0  0  0  0  0  0
  -91.3997   25.0744   -2.6284 S   0  0  0  0  0  0  0  0  0  0  0  0
  -93.2599   23.0670   -3.5562 C   0  0  0  0  0  0  0  0  0  0  0  0
  -94.0258   24.0125   -4.1921 C   0  0  0  0  0  0  0  0  0  0  0  0
  -95.1865   23.5821   -4.8426 C   0  0  0  0  0  0  0  0  0  0  0  0
  -95.5093   22.2750   -4.8238 N   0  0  0  0  0  0  0  0  0  0  0  0
  -94.7851   21.3430   -4.2162 C   0  0  0  0  0  0  0  0  0  0  0  0
  -93.6354   21.7377   -3.5666 C   0  0  0  0  0  0  0  0  0  0  0  0
  -87.9958   26.7525    0.7106 C   0  0  0  0  0  0  0  0  0  0  0  0
  -87.2705   26.3355    1.8005 C   0  0  0  0  0  0  0  0  0  0  0  0
  -86.2251   27.6622    2.0494 S   0  0  0  0  0  0  0  0  0  0  0  0
  -86.7740   28.6550    0.7605 C   0  0  0  0  0  0  0  0  0  0  0  0
  -87.7172   27.9185    0.2200 N   0  0  0  0  0  0  0  0  0  0  0  0
  -86.2988   30.0000    0.3652 C   0  0  0  0  0  0  0  0  0  0  0  0
  -87.1544   30.9051   -0.2155 C   0  0  0  0  0  0  0  0  0  0  0  0
  -86.7102   32.1665   -0.5865 C   0  0  0  0  0  0  0  0  0  0  0  0
  -85.3976   32.5114   -0.3692 C   0  0  0  0  0  0  0  0  0  0  0  0
  -84.7110   33.6880   -0.6424 O   0  0  0  0  0  0  0  0  0  0  0  0
  -83.3287   33.5026   -0.5516 C   0  0  0  0  0  0  0  0  0  0  0  0
  -83.1891   32.2895    0.3084 C   0  0  0  0  0  0  0  0  0  0  0  0
  -84.5138   31.6206    0.2136 C   0  0  0  0  0  0  0  0  0  0  0  0
  -84.9973   30.3737    0.5685 C   0  0  0  0  0  0  0  0  0  0  0  0
  1  2  2  0  0  0
  2  3  1  0  0  0
  3  5  1  0  0  0
  5  6  2  0  0  0
  6  7  1  0  0  0
  7  8  2  0  0  0
  8  9  1  0  0  0
  8 10  1  0  0  0
 10 11  2  0  0  0
 11 12  1  0  0  0
 12 13  2  0  0  0
 13 14  1  0  0  0
 14 15  2  0  0  0
  2 16  1  0  0  0
 16 17  2  0  0  0
 17 18  1  0  0  0
 18 19  1  0  0  0
 19 20  2  0  0  0
 19 21  1  0  0  0
 21 22  2  0  0  0
 22 23  1  0  0  0
 23 24  2  0  0  0
 24 25  1  0  0  0
 25 26  1  0  0  0
 26 27  1  0  0  0
 27 28  1  0  0  0
 28 29  2  0  0  0
  9  5  1  0  0  0
 15 10  1  0  0  0
 20 16  1  0  0  0
 29 21  1  0  0  0
 28 24  1  0  0  0
  3  4  1  0  0  0
M  END
> <minimizedAffinity>
-7.71507

> <CNNscore>
0.1204017922

> <CNNaffinity>
5.7431139946

> <CNN_VS>
0.6914812326

> <CNNaffinity_variance>
0.2250119746

$$$$
[H]c1nc([H])c([H])c(-c2nnc(N([H])C(=O)c3nc(-c4c([H])c([H])c5c(c4[H])C([H])([H])C([H])([H])O5)sc3[H])s2)c1[H]


 29 33  0  0  0  0  0  0  0  0999 V2000
  -86.3390   33.8914   -2.5663 O   0  0  0  0  0  0  0  0  0  0  0  0
  -87.5652   33.6747   -2.3749 C   0  0  0  0  0  0  0  0  0  0  0  0
  -88.5225   34.5128   -2.9692 N   0  0  0  0  0  0  0  0  0  0  0  0
  -89.5381   34.3762   -2.8424 H   0  0  0  0  0  0  0  0  0  0  0  0
  -88.0821   35.5939   -3.7787 C   0  0  0  0  0  0  0  0  0  0  0  0
  -87.8327   36.8594   -3.4527 N   0  0  0  0  0  0  0  0  0  0  0  0
  -87.4451   37.6773   -4.3259 N   0  0  0  0  0  0  0  0  0  0  0  0
  -87.2821   37.2808   -5.5835 C   0  0  0  0  0  0  0  0  0  0  0  0
  -87.7202   35.6298   -5.4695 S   0  0  0  0  0  0  0  0  0  0  0  0
  -86.8416   38.0685   -6.7466 C   0  0  0  0  0  0  0  0  0  0  0  0
  -87.4684   37.8665   -7.9512 C   0  0  0  0  0  0  0  0  0  0  0  0
  -87.0378   38.6230   -9.0457 C   0  0  0  0  0  0  0  0  0  0  0  0
  -86.0382   39.5106   -8.8841 N   0  0  0  0  0  0  0  0  0  0  0  0
  -85.4174   39.7232   -7.7302 C   0  0  0  0  0  0  0  0  0  0  0  0
  -85.8205   38.9920   -6.6337 C   0  0  0  0  0  0  0  0  0  0  0  0
  -88.0013   32.5321   -1.5203 C   0  0  0  0  0  0  0  0  0  0  0  0
  -89.3330   32.3057   -1.2688 C   0  0  0  0  0  0  0  0  0  0  0  0
  -89.2671   30.9210   -0.2723 S   0  0  0  0  0  0  0  0  0  0  0  0
  -87.5621   30.7206   -0.2397 C   0  0  0  0  0  0  0  0  0  0  0  0
  -87.1473   31.7171   -0.9874 N   0  0  0  0  0  0  0  0  0  0  0  0
  -86.7682   29.6838    0.4575 C   0  0  0  0  0  0  0  0  0  0  0  0
  -87.3067   28.4483    0.7256 C   0  0  0  0  0  0  0  0  0  0  0  0
  -86.5635   27.4754    1.3792 C   0  0  0  0  0  0  0  0  0  0  0  0
  -85.2731   27.7544    1.7616 C   0  0  0  0  0  0  0  0  0  0  0  0
  -84.3313   26.9715    2.4177 O   0  0  0  0  0  0  0  0  0  0  0  0
  -83.2658   27.7445    2.8869 C   0  0  0  0  0  0  0  0  0  0  0  0
  -83.3168   28.9720    2.0375 C   0  0  0  0  0  0  0  0  0  0  0  0
  -84.7050   28.9895    1.5047 C   0  0  0  0  0  0  0  0  0  0  0  0
  -85.4803   29.9310    0.8511 C   0  0  0  0  0  0  0  0  0  0  0  0
  1  2  2  0  0  0
  2  3  1  0  0  0
  3  5  1  0  0  0
  5  6  2  0  0  0
  6  7  1  0  0  0
  7  8  2  0  0  0
  8  9  1  0  0  0
  8 10  1  0  0  0
 10 11  2  0  0  0
 11 12  1  0  0  0
 12 13  2  0  0  0
 13 14  1  0  0  0
 14 15  2  0  0  0
  2 16  1  0  0  0
 16 17  2  0  0  0
 17 18  1  0  0  0
 18 19  1  0  0  0
 19 20  2  0  0  0
 19 21  1  0  0  0
 21 22  2  0  0  0
 22 23  1  0  0  0
 23 24  2  0  0  0
 24 25  1  0  0  0
 25 26  1  0  0  0
 26 27  1  0  0  0
 27 28  1  0  0  0
 28 29  2  0  0  0
  9  5  1  0  0  0
 15 10  1  0  0  0
 20 16  1  0  0  0
 29 21  1  0  0  0
 28 24  1  0  0  0
  3  4  1  0  0  0
M  END
> <minimizedAffinity>
-8.29913

> <CNNscore>
0.1075003296

> <CNNaffinity>
5.8072595596

> <CNN_VS>
0.6242823005

> <CNNaffinity_variance>
0.0828957409

$$$$
[H]c1nc([H])c([H])c(-c2nnc(N([H])C(=O)c3nc(-c4c([H])c([H])c5c(c4[H])C([H])([H])C([H])([H])O5)sc3[H])s2)c1[H]


 29 33  0  0  0  0  0  0  0  0999 V2000
  -89.3050   30.2945   -4.0589 O   0  0  0  0  0  0  0  0  0  0  0  0
  -90.2346   30.5504   -3.2480 C   0  0  0  0  0  0  0  0  0  0  0  0
  -90.7035   31.8676   -3.1179 N   0  0  0  0  0  0  0  0  0  0  0  0
  -91.4626   32.1271   -2.4677 H   0  0  0  0  0  0  0  0  0  0  0  0
  -90.1139   32.8888   -3.9100 C   0  0  0  0  0  0  0  0  0  0  0  0
  -90.4346   33.3184   -5.1276 N   0  0  0  0  0  0  0  0  0  0  0  0
  -89.7814   34.2477   -5.6674 N   0  0  0  0  0  0  0  0  0  0  0  0
  -88.7637   34.8077   -5.0226 C   0  0  0  0  0  0  0  0  0  0  0  0
  -88.7733   33.9229   -3.5569 S   0  0  0  0  0  0  0  0  0  0  0  0
  -87.8790   35.8964   -5.4690 C   0  0  0  0  0  0  0  0  0  0  0  0
  -87.0767   36.5124   -4.5406 C   0  0  0  0  0  0  0  0  0  0  0  0
  -86.2424   37.5445   -4.9816 C   0  0  0  0  0  0  0  0  0  0  0  0
  -86.2535   37.8943   -6.2818 N   0  0  0  0  0  0  0  0  0  0  0  0
  -87.0198   37.3137   -7.1973 C   0  0  0  0  0  0  0  0  0  0  0  0
  -87.8526   36.2932   -6.7920 C   0  0  0  0  0  0  0  0  0  0  0  0
  -90.8370   29.4593   -2.4277 C   0  0  0  0  0  0  0  0  0  0  0  0
  -91.6884   28.5396   -2.9908 C   0  0  0  0  0  0  0  0  0  0  0  0
  -92.0689   27.5533   -1.6502 S   0  0  0  0  0  0  0  0  0  0  0  0
  -91.1275   28.3684   -0.4680 C   0  0  0  0  0  0  0  0  0  0  0  0
  -90.5818   29.3394   -1.1635 N   0  0  0  0  0  0  0  0  0  0  0  0
  -90.9749   28.0506    0.9696 C   0  0  0  0  0  0  0  0  0  0  0  0
  -91.2271   29.0005    1.9300 C   0  0  0  0  0  0  0  0  0  0  0  0
  -91.0844   28.7038    3.2782 C   0  0  0  0  0  0  0  0  0  0  0  0
  -90.6858   27.4433    3.6541 C   0  0  0  0  0  0  0  0  0  0  0  0
  -90.4706   26.8969    4.9133 O   0  0  0  0  0  0  0  0  0  0  0  0
  -89.7734   25.6885    4.8305 C   0  0  0  0  0  0  0  0  0  0  0  0
  -90.0208   25.2311    3.4304 C   0  0  0  0  0  0  0  0  0  0  0  0
  -90.4252   26.4669    2.7089 C   0  0  0  0  0  0  0  0  0  0  0  0
  -90.5796   26.8042    1.3759 C   0  0  0  0  0  0  0  0  0  0  0  0
  1  2  2  0  0  0
  2  3  1  0  0  0
  3  5  1  0  0  0
  5  6  2  0  0  0
  6  7  1  0  0  0
  7  8  2  0  0  0
  8  9  1  0  0  0
  8 10  1  0  0  0
 10 11  2  0  0  0
 11 12  1  0  0  0
 12 13  2  0  0  0
 13 14  1  0  0  0
 14 15  2  0  0  0
  2 16  1  0  0  0
 16 17  2  0  0  0
 17 18  1  0  0  0
 18 19  1  0  0  0
 19 20  2  0  0  0
 19 21  1  0  0  0
 21 22  2  0  0  0
 22 23  1  0  0  0
 23 24  2  0  0  0
 24 25  1  0  0  0
 25 26  1  0  0  0
 26 27  1  0  0  0
 27 28  1  0  0  0
 28 29  2  0  0  0
  9  5  1  0  0  0
 15 10  1  0  0  0
 20 16  1  0  0  0
 29 21  1  0  0  0
 28 24  1  0  0  0
  3  4  1  0  0  0
M  END
> <minimizedAffinity>
-7.29235

> <CNNscore>
0.1021529064

> <CNNaffinity>
5.3170051575

> <CNN_VS>
0.5431475043

> <CNNaffinity_variance>
0.0965183228

$$$$
[H]c1nc([H])c([H])c(-c2nnc(N([H])C(=O)c3nc(-c4c([H])c([H])c5c(c4[H])C([H])([H])C([H])([H])O5)sc3[H])s2)c1[H]


 29 33  0  0  0  0  0  0  0  0999 V2000
  -88.1078   30.4095   -4.2216 O   0  0  0  0  0  0  0  0  0  0  0  0
  -88.2839   30.5031   -2.9777 C   0  0  0  0  0  0  0  0  0  0  0  0
  -88.4467   31.7679   -2.3897 N   0  0  0  0  0  0  0  0  0  0  0  0
  -88.5937   31.8961   -1.3757 H   0  0  0  0  0  0  0  0  0  0  0  0
  -88.4086   32.9213   -3.2180 C   0  0  0  0  0  0  0  0  0  0  0  0
  -89.3919   33.5423   -3.8642 N   0  0  0  0  0  0  0  0  0  0  0  0
  -89.1525   34.5642   -4.5571 N   0  0  0  0  0  0  0  0  0  0  0  0
  -87.9120   35.0311   -4.6481 C   0  0  0  0  0  0  0  0  0  0  0  0
  -87.0644   33.9121   -3.6681 S   0  0  0  0  0  0  0  0  0  0  0  0
  -87.4216   36.1996   -5.3972 C   0  0  0  0  0  0  0  0  0  0  0  0
  -86.6741   37.1393   -4.7315 C   0  0  0  0  0  0  0  0  0  0  0  0
  -86.2161   38.2430   -5.4580 C   0  0  0  0  0  0  0  0  0  0  0  0
  -86.5189   38.3458   -6.7660 N   0  0  0  0  0  0  0  0  0  0  0  0
  -87.2394   37.4507   -7.4308 C   0  0  0  0  0  0  0  0  0  0  0  0
  -87.7045   36.3521   -6.7407 C   0  0  0  0  0  0  0  0  0  0  0  0
  -88.3199   29.2758   -2.1300 C   0  0  0  0  0  0  0  0  0  0  0  0
  -87.7382   28.1058   -2.5553 C   0  0  0  0  0  0  0  0  0  0  0  0
  -88.0629   27.0609   -1.2447 S   0  0  0  0  0  0  0  0  0  0  0  0
  -88.9117   28.1713   -0.2473 C   0  0  0  0  0  0  0  0  0  0  0  0
  -88.8966   29.2674   -0.9703 N   0  0  0  0  0  0  0  0  0  0  0  0
  -89.5070   27.9429    1.0886 C   0  0  0  0  0  0  0  0  0  0  0  0
  -90.5555   28.7127    1.5318 C   0  0  0  0  0  0  0  0  0  0  0  0
  -91.1145   28.4995    2.7840 C   0  0  0  0  0  0  0  0  0  0  0  0
  -90.6108   27.5054    3.5884 C   0  0  0  0  0  0  0  0  0  0  0  0
  -90.9821   27.0926    4.8620 O   0  0  0  0  0  0  0  0  0  0  0  0
  -90.0102   26.2657    5.4318 C   0  0  0  0  0  0  0  0  0  0  0  0
  -89.2519   25.7461    4.2547 C   0  0  0  0  0  0  0  0  0  0  0  0
  -89.5558   26.7148    3.1683 C   0  0  0  0  0  0  0  0  0  0  0  0
  -89.0276   26.9605    1.9132 C   0  0  0  0  0  0  0  0  0  0  0  0
  1  2  2  0  0  0
  2  3  1  0  0  0
  3  5  1  0  0  0
  5  6  2  0  0  0
  6  7  1  0  0  0
  7  8  2  0  0  0
  8  9  1  0  0  0
  8 10  1  0  0  0
 10 11  2  0  0  0
 11 12  1  0  0  0
 12 13  2  0  0  0
 13 14  1  0  0  0
 14 15  2  0  0  0
  2 16  1  0  0  0
 16 17  2  0  0  0
 17 18  1  0  0  0
 18 19  1  0  0  0
 19 20  2  0  0  0
 19 21  1  0  0  0
 21 22  2  0  0  0
 22 23  1  0  0  0
 23 24  2  0  0  0
 24 25  1  0  0  0
 25 26  1  0  0  0
 26 27  1  0  0  0
 27 28  1  0  0  0
 28 29  2  0  0  0
  9  5  1  0  0  0
 15 10  1  0  0  0
 20 16  1  0  0  0
 29 21  1  0  0  0
 28 24  1  0  0  0
  3  4  1  0  0  0
M  END
> <minimizedAffinity>
-7.44803

> <CNNscore>
0.0928657353

> <CNNaffinity>
5.5276784897

> <CNN_VS>
0.5133319497

> <CNNaffinity_variance>
0.1092314944

$$$$
[H]C([H])=C([H])C([H])([H])Sc1nc(N([H])C(=O)c2nc(-c3c([H])c([H])c4c(c3[H])C([H])([H])C([H])([H])O4)sc2[H])n([H])n1


 28 31  0  0  0  0  0  0  0  0999 V2000
  -84.6582   33.5799   -1.5695 N   0  0  0  0  0  0  0  0  0  0  0  0
  -83.9448   32.9991   -0.5978 C   0  0  0  0  0  0  0  0  0  0  0  0
  -82.8511   33.6713   -0.2192 O   0  0  0  0  0  0  0  0  0  0  0  0
  -84.2222   34.5330   -1.9469 H   0  0  0  0  0  0  0  0  0  0  0  0
  -87.9890   32.6682   -2.3043 C   0  0  0  0  0  0  0  0  0  0  0  0
  -87.5803   33.1122   -3.4828 N   0  0  0  0  0  0  0  0  0  0  0  0
  -86.3053   33.5399   -3.3967 N   0  0  0  0  0  0  0  0  0  0  0  0
  -85.9169   33.3591   -2.1419 C   0  0  0  0  0  0  0  0  0  0  0  0
  -86.9894   32.8049   -1.4556 N   0  0  0  0  0  0  0  0  0  0  0  0
  -85.7999   33.9021   -4.2444 H   0  0  0  0  0  0  0  0  0  0  0  0
  -89.6410   32.0059   -1.9797 S   0  0  0  0  0  0  0  0  0  0  0  0
  -89.6615   31.2223   -0.3298 C   0  0  0  0  0  0  0  0  0  0  0  0
  -90.7404   29.2651    0.6521 C   0  0  0  0  0  0  0  0  0  0  0  0
  -90.1653   29.8431   -0.4229 C   0  0  0  0  0  0  0  0  0  0  0  0
  -84.1098   31.7332    0.1671 C   0  0  0  0  0  0  0  0  0  0  0  0
  -83.2320   31.3737    1.1596 C   0  0  0  0  0  0  0  0  0  0  0  0
  -83.8522   29.8721    1.6708 S   0  0  0  0  0  0  0  0  0  0  0  0
  -85.1882   29.7815    0.6014 C   0  0  0  0  0  0  0  0  0  0  0  0
  -85.0836   30.8985   -0.0810 N   0  0  0  0  0  0  0  0  0  0  0  0
  -86.2032   28.7106    0.4801 C   0  0  0  0  0  0  0  0  0  0  0  0
  -86.6386   28.3016   -0.7527 C   0  0  0  0  0  0  0  0  0  0  0  0
  -87.5988   27.2818   -0.8201 C   0  0  0  0  0  0  0  0  0  0  0  0
  -88.1035   26.6935    0.3163 C   0  0  0  0  0  0  0  0  0  0  0  0
  -89.0494   25.6763    0.5338 O   0  0  0  0  0  0  0  0  0  0  0  0
  -89.5226   25.7456    1.8633 C   0  0  0  0  0  0  0  0  0  0  0  0
  -88.3535   26.3236    2.6023 C   0  0  0  0  0  0  0  0  0  0  0  0
  -87.6617   27.1091    1.5483 C   0  0  0  0  0  0  0  0  0  0  0  0
  -86.7040   28.1268    1.6088 C   0  0  0  0  0  0  0  0  0  0  0  0
 13 14  2  0  0  0
 14 12  1  0  0  0
 12 11  1  0  0  0
 11  5  1  0  0  0
  5  6  2  0  0  0
  6  7  1  0  0  0
  7  8  1  0  0  0
  8  1  1  0  0  0
  1  2  1  0  0  0
  2  3  2  0  0  0
  2 15  1  0  0  0
 15 16  2  0  0  0
 16 17  1  0  0  0
 17 18  1  0  0  0
 18 19  2  0  0  0
 18 20  1  0  0  0
 20 21  2  0  0  0
 21 22  1  0  0  0
 22 23  2  0  0  0
 23 24  1  0  0  0
 24 25  1  0  0  0
 25 26  1  0  0  0
 26 27  1  0  0  0
 27 28  2  0  0  0
  8  9  2  0  0  0
  9  5  1  0  0  0
 19 15  1  0  0  0
 28 20  1  0  0  0
 27 23  1  0  0  0
  7 10  1  0  0  0
  1  4  1  0  0  0
M  END
> <minimizedAffinity>
-7.76675

> <CNNscore>
0.8399534225

> <CNNaffinity>
7.1464018822

> <CNN_VS>
6.0026445389

> <CNNaffinity_variance>
0.0610283092

$$$$
[H]C([H])=C([H])C([H])([H])Sc1nc(N([H])C(=O)c2nc(-c3c([H])c([H])c4c(c3[H])C([H])([H])C([H])([H])O4)sc2[H])n([H])n1


 28 31  0  0  0  0  0  0  0  0999 V2000
  -82.7059   30.8085    0.9488 N   0  0  0  0  0  0  0  0  0  0  0  0
  -83.1918   29.7041    1.5273 C   0  0  0  0  0  0  0  0  0  0  0  0
  -82.2995   28.9907    2.2246 O   0  0  0  0  0  0  0  0  0  0  0  0
  -81.6143   30.9633    1.1080 H   0  0  0  0  0  0  0  0  0  0  0  0
  -84.7456   33.1048   -0.7925 C   0  0  0  0  0  0  0  0  0  0  0  0
  -83.6094   33.7802   -0.7158 N   0  0  0  0  0  0  0  0  0  0  0  0
  -82.6896   33.0591   -0.0450 N   0  0  0  0  0  0  0  0  0  0  0  0
  -83.2662   31.9166    0.3016 C   0  0  0  0  0  0  0  0  0  0  0  0
  -84.5694   31.9523   -0.1769 N   0  0  0  0  0  0  0  0  0  0  0  0
  -81.7129   33.4239    0.0907 H   0  0  0  0  0  0  0  0  0  0  0  0
  -86.2413   33.7122   -1.6091 S   0  0  0  0  0  0  0  0  0  0  0  0
  -87.7059   32.9558   -0.8220 C   0  0  0  0  0  0  0  0  0  0  0  0
  -89.6640   31.8742   -1.7992 C   0  0  0  0  0  0  0  0  0  0  0  0
  -88.8419   32.9432   -1.7569 C   0  0  0  0  0  0  0  0  0  0  0  0
  -84.5438   29.0829    1.5580 C   0  0  0  0  0  0  0  0  0  0  0  0
  -85.0661   28.5551    2.7127 C   0  0  0  0  0  0  0  0  0  0  0  0
  -86.5791   27.9684    2.1957 S   0  0  0  0  0  0  0  0  0  0  0  0
  -86.4684   28.4233    0.5472 C   0  0  0  0  0  0  0  0  0  0  0  0
  -85.2874   28.9944    0.4876 N   0  0  0  0  0  0  0  0  0  0  0  0
  -87.4579   28.2209   -0.5353 C   0  0  0  0  0  0  0  0  0  0  0  0
  -87.2603   28.7779   -1.7711 C   0  0  0  0  0  0  0  0  0  0  0  0
  -88.2223   28.5573   -2.7674 C   0  0  0  0  0  0  0  0  0  0  0  0
  -89.3455   27.8007   -2.5269 C   0  0  0  0  0  0  0  0  0  0  0  0
  -90.4429   27.4281   -3.3231 O   0  0  0  0  0  0  0  0  0  0  0  0
  -91.5130   27.0215   -2.4950 C   0  0  0  0  0  0  0  0  0  0  0  0
  -90.8107   26.4827   -1.2853 C   0  0  0  0  0  0  0  0  0  0  0  0
  -89.5361   27.2455   -1.2854 C   0  0  0  0  0  0  0  0  0  0  0  0
  -88.5731   27.4695   -0.2959 C   0  0  0  0  0  0  0  0  0  0  0  0
 13 14  2  0  0  0
 14 12  1  0  0  0
 12 11  1  0  0  0
 11  5  1  0  0  0
  5  6  2  0  0  0
  6  7  1  0  0  0
  7  8  1  0  0  0
  8  1  1  0  0  0
  1  2  1  0  0  0
  2  3  2  0  0  0
  2 15  1  0  0  0
 15 16  2  0  0  0
 16 17  1  0  0  0
 17 18  1  0  0  0
 18 19  2  0  0  0
 18 20  1  0  0  0
 20 21  2  0  0  0
 21 22  1  0  0  0
 22 23  2  0  0  0
 23 24  1  0  0  0
 24 25  1  0  0  0
 25 26  1  0  0  0
 26 27  1  0  0  0
 27 28  2  0  0  0
  8  9  2  0  0  0
  9  5  1  0  0  0
 19 15  1  0  0  0
 28 20  1  0  0  0
 27 23  1  0  0  0
  7 10  1  0  0  0
  1  4  1  0  0  0
M  END
> <minimizedAffinity>
-7.88230

> <CNNscore>
0.8026787043

> <CNNaffinity>
7.0533666611

> <CNN_VS>
5.6615872383

> <CNNaffinity_variance>
0.1390338540

$$$$
[H]C([H])=C([H])C([H])([H])Sc1nc(N([H])C(=O)c2nc(-c3c([H])c([H])c4c(c3[H])C([H])([H])C([H])([H])O4)sc2[H])n([H])n1


 28 31  0  0  0  0  0  0  0  0999 V2000
  -85.2516   33.5552   -1.4763 N   0  0  0  0  0  0  0  0  0  0  0  0
  -84.3125   33.0557   -0.6643 C   0  0  0  0  0  0  0  0  0  0  0  0
  -83.2005   33.7935   -0.5633 O   0  0  0  0  0  0  0  0  0  0  0  0
  -84.9608   34.5066   -1.9776 H   0  0  0  0  0  0  0  0  0  0  0  0
  -88.4588   33.1062   -2.8824 C   0  0  0  0  0  0  0  0  0  0  0  0
  -88.6829   32.7664   -1.6226 N   0  0  0  0  0  0  0  0  0  0  0  0
  -87.5408   32.8520   -0.9125 N   0  0  0  0  0  0  0  0  0  0  0  0
  -86.5911   33.2508   -1.7474 C   0  0  0  0  0  0  0  0  0  0  0  0
  -87.1810   33.4110   -2.9943 N   0  0  0  0  0  0  0  0  0  0  0  0
  -87.5305   32.6467    0.1185 H   0  0  0  0  0  0  0  0  0  0  0  0
  -89.7242   33.1255   -4.1753 S   0  0  0  0  0  0  0  0  0  0  0  0
  -89.7879   34.7878   -4.9300 C   0  0  0  0  0  0  0  0  0  0  0  0
  -88.8981   36.6841   -3.6766 C   0  0  0  0  0  0  0  0  0  0  0  0
  -89.9122   35.8198   -3.8887 C   0  0  0  0  0  0  0  0  0  0  0  0
  -84.2376   31.8235    0.1669 C   0  0  0  0  0  0  0  0  0  0  0  0
  -83.1420   31.5486    0.9472 C   0  0  0  0  0  0  0  0  0  0  0  0
  -83.5553   30.0506    1.6441 S   0  0  0  0  0  0  0  0  0  0  0  0
  -85.0917   29.8543    0.9108 C   0  0  0  0  0  0  0  0  0  0  0  0
  -85.1993   30.9395    0.1793 N   0  0  0  0  0  0  0  0  0  0  0  0
  -86.0532   28.7392    1.0652 C   0  0  0  0  0  0  0  0  0  0  0  0
  -85.7026   27.6094    1.7563 C   0  0  0  0  0  0  0  0  0  0  0  0
  -86.6464   26.5796    1.8801 C   0  0  0  0  0  0  0  0  0  0  0  0
  -87.9013   26.6843    1.3266 C   0  0  0  0  0  0  0  0  0  0  0  0
  -89.0148   25.8263    1.2987 O   0  0  0  0  0  0  0  0  0  0  0  0
  -89.8829   26.2104    0.2522 C   0  0  0  0  0  0  0  0  0  0  0  0
  -89.6400   27.6856    0.1436 C   0  0  0  0  0  0  0  0  0  0  0  0
  -88.2449   27.8202    0.6356 C   0  0  0  0  0  0  0  0  0  0  0  0
  -87.2990   28.8437    0.5154 C   0  0  0  0  0  0  0  0  0  0  0  0
 13 14  2  0  0  0
 14 12  1  0  0  0
 12 11  1  0  0  0
 11  5  1  0  0  0
  5  6  2  0  0  0
  6  7  1  0  0  0
  7  8  1  0  0  0
  8  1  1  0  0  0
  1  2  1  0  0  0
  2  3  2  0  0  0
  2 15  1  0  0  0
 15 16  2  0  0  0
 16 17  1  0  0  0
 17 18  1  0  0  0
 18 19  2  0  0  0
 18 20  1  0  0  0
 20 21  2  0  0  0
 21 22  1  0  0  0
 22 23  2  0  0  0
 23 24  1  0  0  0
 24 25  1  0  0  0
 25 26  1  0  0  0
 26 27  1  0  0  0
 27 28  2  0  0  0
  8  9  2  0  0  0
  9  5  1  0  0  0
 19 15  1  0  0  0
 28 20  1  0  0  0
 27 23  1  0  0  0
  7 10  1  0  0  0
  1  4  1  0  0  0
M  END
> <minimizedAffinity>
-7.55818

> <CNNscore>
0.7484747767

> <CNNaffinity>
6.9903693199

> <CNN_VS>
5.2321152687

> <CNNaffinity_variance>
0.1594814062

$$$$
[H]C([H])=C([H])C([H])([H])Sc1nc(N([H])C(=O)c2nc(-c3c([H])c([H])c4c(c3[H])C([H])([H])C([H])([H])O4)sc2[H])n([H])n1


 28 31  0  0  0  0  0  0  0  0999 V2000
  -84.8218   33.5636   -1.3693 N   0  0  0  0  0  0  0  0  0  0  0  0
  -83.9445   32.9885   -0.5386 C   0  0  0  0  0  0  0  0  0  0  0  0
  -82.8193   33.6835   -0.3335 O   0  0  0  0  0  0  0  0  0  0  0  0
  -84.4763   34.5327   -1.7966 H   0  0  0  0  0  0  0  0  0  0  0  0
  -87.9505   33.2785   -2.9803 C   0  0  0  0  0  0  0  0  0  0  0  0
  -88.2635   32.9087   -1.7482 N   0  0  0  0  0  0  0  0  0  0  0  0
  -87.1649   32.9297   -0.9681 N   0  0  0  0  0  0  0  0  0  0  0  0
  -86.1521   33.3181   -1.7306 C   0  0  0  0  0  0  0  0  0  0  0  0
  -86.6582   33.5386   -3.0049 N   0  0  0  0  0  0  0  0  0  0  0  0
  -87.2252   32.6925    0.0544 H   0  0  0  0  0  0  0  0  0  0  0  0
  -89.1325   33.3850   -4.3458 S   0  0  0  0  0  0  0  0  0  0  0  0
  -88.6508   34.7556   -5.4531 C   0  0  0  0  0  0  0  0  0  0  0  0
  -89.6447   36.0594   -7.2617 C   0  0  0  0  0  0  0  0  0  0  0  0
  -89.8202   35.2497   -6.1968 C   0  0  0  0  0  0  0  0  0  0  0  0
  -83.9516   31.7085    0.2207 C   0  0  0  0  0  0  0  0  0  0  0  0
  -82.9428   31.3856    1.0941 C   0  0  0  0  0  0  0  0  0  0  0  0
  -83.4201   29.8491    1.6529 S   0  0  0  0  0  0  0  0  0  0  0  0
  -84.8699   29.6996    0.7516 C   0  0  0  0  0  0  0  0  0  0  0  0
  -84.9051   30.8269    0.0790 N   0  0  0  0  0  0  0  0  0  0  0  0
  -85.8370   28.5788    0.7370 C   0  0  0  0  0  0  0  0  0  0  0  0
  -85.8562   27.6636    1.7562 C   0  0  0  0  0  0  0  0  0  0  0  0
  -86.7915   26.6201    1.7025 C   0  0  0  0  0  0  0  0  0  0  0  0
  -87.6778   26.5025    0.6572 C   0  0  0  0  0  0  0  0  0  0  0  0
  -88.6948   25.5788    0.3578 O   0  0  0  0  0  0  0  0  0  0  0  0
  -89.0103   25.6506   -1.0175 C   0  0  0  0  0  0  0  0  0  0  0  0
  -88.6990   27.0774   -1.3558 C   0  0  0  0  0  0  0  0  0  0  0  0
  -87.6523   27.4241   -0.3605 C   0  0  0  0  0  0  0  0  0  0  0  0
  -86.7168   28.4625   -0.3012 C   0  0  0  0  0  0  0  0  0  0  0  0
 13 14  2  0  0  0
 14 12  1  0  0  0
 12 11  1  0  0  0
 11  5  1  0  0  0
  5  6  2  0  0  0
  6  7  1  0  0  0
  7  8  1  0  0  0
  8  1  1  0  0  0
  1  2  1  0  0  0
  2  3  2  0  0  0
  2 15  1  0  0  0
 15 16  2  0  0  0
 16 17  1  0  0  0
 17 18  1  0  0  0
 18 19  2  0  0  0
 18 20  1  0  0  0
 20 21  2  0  0  0
 21 22  1  0  0  0
 22 23  2  0  0  0
 23 24  1  0  0  0
 24 25  1  0  0  0
 25 26  1  0  0  0
 26 27  1  0  0  0
 27 28  2  0  0  0
  8  9  2  0  0  0
  9  5  1  0  0  0
 19 15  1  0  0  0
 28 20  1  0  0  0
 27 23  1  0  0  0
  7 10  1  0  0  0
  1  4  1  0  0  0
M  END
> <minimizedAffinity>
-7.53988

> <CNNscore>
0.7245431542

> <CNNaffinity>
6.7859621048

> <CNN_VS>
4.9167222977

> <CNNaffinity_variance>
0.0816806406

$$$$
[H]C([H])=C([H])C([H])([H])Sc1nc(N([H])C(=O)c2nc(-c3c([H])c([H])c4c(c3[H])C([H])([H])C([H])([H])O4)sc2[H])n([H])n1


 28 31  0  0  0  0  0  0  0  0999 V2000
  -84.8460   33.5805   -1.2596 N   0  0  0  0  0  0  0  0  0  0  0  0
  -83.9402   32.9515   -0.5016 C   0  0  0  0  0  0  0  0  0  0  0  0
  -82.7621   33.5769   -0.3907 O   0  0  0  0  0  0  0  0  0  0  0  0
  -84.4786   34.5278   -1.7162 H   0  0  0  0  0  0  0  0  0  0  0  0
  -88.1353   33.6204   -2.5417 C   0  0  0  0  0  0  0  0  0  0  0  0
  -88.3259   33.0361   -1.3690 N   0  0  0  0  0  0  0  0  0  0  0  0
  -87.1502   32.9053   -0.7234 N   0  0  0  0  0  0  0  0  0  0  0  0
  -86.2137   33.4165   -1.5105 C   0  0  0  0  0  0  0  0  0  0  0  0
  -86.8461   33.8691   -2.6611 N   0  0  0  0  0  0  0  0  0  0  0  0
  -87.1081   32.4871    0.2403 H   0  0  0  0  0  0  0  0  0  0  0  0
  -89.4526   33.9835   -3.7275 S   0  0  0  0  0  0  0  0  0  0  0  0
  -89.3214   32.8358   -5.1425 C   0  0  0  0  0  0  0  0  0  0  0  0
  -87.8159   30.9745   -4.6652 C   0  0  0  0  0  0  0  0  0  0  0  0
  -89.0729   31.4648   -4.6700 C   0  0  0  0  0  0  0  0  0  0  0  0
  -83.9626   31.6726    0.2592 C   0  0  0  0  0  0  0  0  0  0  0  0
  -82.9632   31.3435    1.1410 C   0  0  0  0  0  0  0  0  0  0  0  0
  -83.4560   29.8113    1.6979 S   0  0  0  0  0  0  0  0  0  0  0  0
  -84.8995   29.6711    0.7851 C   0  0  0  0  0  0  0  0  0  0  0  0
  -84.9213   30.7978    0.1109 N   0  0  0  0  0  0  0  0  0  0  0  0
  -85.8746   28.5572    0.7642 C   0  0  0  0  0  0  0  0  0  0  0  0
  -85.9247   27.6574    1.7960 C   0  0  0  0  0  0  0  0  0  0  0  0
  -86.8664   26.6201    1.7355 C   0  0  0  0  0  0  0  0  0  0  0  0
  -87.7289   26.4934    0.6714 C   0  0  0  0  0  0  0  0  0  0  0  0
  -88.7456   25.5729    0.3617 O   0  0  0  0  0  0  0  0  0  0  0  0
  -89.0281   25.6265   -1.0215 C   0  0  0  0  0  0  0  0  0  0  0  0
  -88.6980   27.0458   -1.3732 C   0  0  0  0  0  0  0  0  0  0  0  0
  -87.6724   27.3996   -0.3588 C   0  0  0  0  0  0  0  0  0  0  0  0
  -86.7307   28.4319   -0.2926 C   0  0  0  0  0  0  0  0  0  0  0  0
 13 14  2  0  0  0
 14 12  1  0  0  0
 12 11  1  0  0  0
 11  5  1  0  0  0
  5  6  2  0  0  0
  6  7  1  0  0  0
  7  8  1  0  0  0
  8  1  1  0  0  0
  1  2  1  0  0  0
  2  3  2  0  0  0
  2 15  1  0  0  0
 15 16  2  0  0  0
 16 17  1  0  0  0
 17 18  1  0  0  0
 18 19  2  0  0  0
 18 20  1  0  0  0
 20 21  2  0  0  0
 21 22  1  0  0  0
 22 23  2  0  0  0
 23 24  1  0  0  0
 24 25  1  0  0  0
 25 26  1  0  0  0
 26 27  1  0  0  0
 27 28  2  0  0  0
  8  9  2  0  0  0
  9  5  1  0  0  0
 19 15  1  0  0  0
 28 20  1  0  0  0
 27 23  1  0  0  0
  7 10  1  0  0  0
  1  4  1  0  0  0
M  END
> <minimizedAffinity>
-7.93846

> <CNNscore>
0.6581525803

> <CNNaffinity>
6.7817716599

> <CNN_VS>
4.4634404182

> <CNNaffinity_variance>
0.0911866874

$$$$
[H]C([H])=C([H])C([H])([H])Sc1nc(N([H])C(=O)c2nc(-c3c([H])c([H])c4c(c3[H])C([H])([H])C([H])([H])O4)sc2[H])n([H])n1


 28 31  0  0  0  0  0  0  0  0999 V2000
  -85.5315   26.8683    2.1293 N   0  0  0  0  0  0  0  0  0  0  0  0
  -84.5820   27.8037    2.0107 C   0  0  0  0  0  0  0  0  0  0  0  0
  -83.3744   27.4454    2.4629 O   0  0  0  0  0  0  0  0  0  0  0  0
  -85.1858   25.9279    2.6163 H   0  0  0  0  0  0  0  0  0  0  0  0
  -89.0148   26.9636    1.5613 C   0  0  0  0  0  0  0  0  0  0  0  0
  -88.6356   26.0620    0.6690 N   0  0  0  0  0  0  0  0  0  0  0  0
  -87.2985   25.9012    0.7167 N   0  0  0  0  0  0  0  0  0  0  0  0
  -86.8402   26.7189    1.6544 C   0  0  0  0  0  0  0  0  0  0  0  0
  -87.9345   27.3883    2.1864 N   0  0  0  0  0  0  0  0  0  0  0  0
  -86.8173   25.2013    0.0970 H   0  0  0  0  0  0  0  0  0  0  0  0
  -90.7282   27.4805    1.8257 S   0  0  0  0  0  0  0  0  0  0  0  0
  -90.9433   27.9820    3.5690 C   0  0  0  0  0  0  0  0  0  0  0  0
  -89.9501   26.8893    5.5127 C   0  0  0  0  0  0  0  0  0  0  0  0
  -90.7907   26.8209    4.4596 C   0  0  0  0  0  0  0  0  0  0  0  0
  -84.5836   29.1919    1.4741 C   0  0  0  0  0  0  0  0  0  0  0  0
  -83.5119   30.0316    1.6506 C   0  0  0  0  0  0  0  0  0  0  0  0
  -84.0363   31.4603    0.8859 S   0  0  0  0  0  0  0  0  0  0  0  0
  -85.5822   30.9169    0.3843 C   0  0  0  0  0  0  0  0  0  0  0  0
  -85.6081   29.6813    0.8281 N   0  0  0  0  0  0  0  0  0  0  0  0
  -86.6245   31.6579   -0.3616 C   0  0  0  0  0  0  0  0  0  0  0  0
  -87.9358   31.2665   -0.2983 C   0  0  0  0  0  0  0  0  0  0  0  0
  -88.8897   31.9998   -1.0186 C   0  0  0  0  0  0  0  0  0  0  0  0
  -88.5347   33.0910   -1.7771 C   0  0  0  0  0  0  0  0  0  0  0  0
  -89.2669   33.9844   -2.5787 O   0  0  0  0  0  0  0  0  0  0  0  0
  -88.3932   34.6467   -3.4699 C   0  0  0  0  0  0  0  0  0  0  0  0
  -87.1005   34.6707   -2.7114 C   0  0  0  0  0  0  0  0  0  0  0  0
  -87.2181   33.4771   -1.8351 C   0  0  0  0  0  0  0  0  0  0  0  0
  -86.2714   32.7413   -1.1146 C   0  0  0  0  0  0  0  0  0  0  0  0
 13 14  2  0  0  0
 14 12  1  0  0  0
 12 11  1  0  0  0
 11  5  1  0  0  0
  5  6  2  0  0  0
  6  7  1  0  0  0
  7  8  1  0  0  0
  8  1  1  0  0  0
  1  2  1  0  0  0
  2  3  2  0  0  0
  2 15  1  0  0  0
 15 16  2  0  0  0
 16 17  1  0  0  0
 17 18  1  0  0  0
 18 19  2  0  0  0
 18 20  1  0  0  0
 20 21  2  0  0  0
 21 22  1  0  0  0
 22 23  2  0  0  0
 23 24  1  0  0  0
 24 25  1  0  0  0
 25 26  1  0  0  0
 26 27  1  0  0  0
 27 28  2  0  0  0
  8  9  2  0  0  0
  9  5  1  0  0  0
 19 15  1  0  0  0
 28 20  1  0  0  0
 27 23  1  0  0  0
  7 10  1  0  0  0
  1  4  1  0  0  0
M  END
> <minimizedAffinity>
-8.37123

> <CNNscore>
0.6005627513

> <CNNaffinity>
6.8958177567

> <CNN_VS>
4.1413712502

> <CNNaffinity_variance>
0.0423981361

$$$$
[H]C([H])=C([H])C([H])([H])Sc1nc(N([H])C(=O)c2nc(-c3c([H])c([H])c4c(c3[H])C([H])([H])C([H])([H])O4)sc2[H])n([H])n1


 28 31  0  0  0  0  0  0  0  0999 V2000
  -83.8423   32.6009   -0.3547 N   0  0  0  0  0  0  0  0  0  0  0  0
  -83.4976   31.6052    0.4701 C   0  0  0  0  0  0  0  0  0  0  0  0
  -82.3010   31.7419    1.0537 O   0  0  0  0  0  0  0  0  0  0  0  0
  -83.0669   33.3937   -0.4603 H   0  0  0  0  0  0  0  0  0  0  0  0
  -87.1544   33.0623   -1.4872 C   0  0  0  0  0  0  0  0  0  0  0  0
  -86.4718   33.6874   -2.4339 N   0  0  0  0  0  0  0  0  0  0  0  0
  -85.1536   33.6404   -2.1583 N   0  0  0  0  0  0  0  0  0  0  0  0
  -85.0164   32.9754   -1.0195 C   0  0  0  0  0  0  0  0  0  0  0  0
  -86.2892   32.6110   -0.6006 N   0  0  0  0  0  0  0  0  0  0  0  0
  -84.4500   34.0613   -2.8164 H   0  0  0  0  0  0  0  0  0  0  0  0
  -88.9556   32.8942   -1.4690 S   0  0  0  0  0  0  0  0  0  0  0  0
  -89.5086   32.1723   -3.0533 C   0  0  0  0  0  0  0  0  0  0  0  0
  -87.9321   31.0239   -4.5211 C   0  0  0  0  0  0  0  0  0  0  0  0
  -88.6838   31.0046   -3.4008 C   0  0  0  0  0  0  0  0  0  0  0  0
  -84.1753   30.3463    0.8835 C   0  0  0  0  0  0  0  0  0  0  0  0
  -83.7663   29.6388    1.9866 C   0  0  0  0  0  0  0  0  0  0  0  0
  -84.8333   28.3114    1.9867 S   0  0  0  0  0  0  0  0  0  0  0  0
  -85.7389   28.7243    0.5917 C   0  0  0  0  0  0  0  0  0  0  0  0
  -85.1761   29.8472    0.2083 N   0  0  0  0  0  0  0  0  0  0  0  0
  -86.8706   27.9951   -0.0242 C   0  0  0  0  0  0  0  0  0  0  0  0
  -87.2723   28.2853   -1.3014 C   0  0  0  0  0  0  0  0  0  0  0  0
  -88.3469   27.5672   -1.8455 C   0  0  0  0  0  0  0  0  0  0  0  0
  -88.9951   26.5894   -1.1272 C   0  0  0  0  0  0  0  0  0  0  0  0
  -90.0740   25.7366   -1.4200 O   0  0  0  0  0  0  0  0  0  0  0  0
  -90.6208   25.2345   -0.2179 C   0  0  0  0  0  0  0  0  0  0  0  0
  -89.4392   25.2209    0.7044 C   0  0  0  0  0  0  0  0  0  0  0  0
  -88.5862   26.3044    0.1524 C   0  0  0  0  0  0  0  0  0  0  0  0
  -87.5139   27.0244    0.6895 C   0  0  0  0  0  0  0  0  0  0  0  0
 13 14  2  0  0  0
 14 12  1  0  0  0
 12 11  1  0  0  0
 11  5  1  0  0  0
  5  6  2  0  0  0
  6  7  1  0  0  0
  7  8  1  0  0  0
  8  1  1  0  0  0
  1  2  1  0  0  0
  2  3  2  0  0  0
  2 15  1  0  0  0
 15 16  2  0  0  0
 16 17  1  0  0  0
 17 18  1  0  0  0
 18 19  2  0  0  0
 18 20  1  0  0  0
 20 21  2  0  0  0
 21 22  1  0  0  0
 22 23  2  0  0  0
 23 24  1  0  0  0
 24 25  1  0  0  0
 25 26  1  0  0  0
 26 27  1  0  0  0
 27 28  2  0  0  0
  8  9  2  0  0  0
  9  5  1  0  0  0
 19 15  1  0  0  0
 28 20  1  0  0  0
 27 23  1  0  0  0
  7 10  1  0  0  0
  1  4  1  0  0  0
M  END
> <minimizedAffinity>
-7.37553

> <CNNscore>
0.4599312544

> <CNNaffinity>
6.7661247253

> <CNN_VS>
3.1119523048

> <CNNaffinity_variance>
0.3098130226

$$$$
[H]C([H])=C([H])C([H])([H])Sc1nc(N([H])C(=O)c2nc(-c3c([H])c([H])c4c(c3[H])C([H])([H])C([H])([H])O4)sc2[H])n([H])n1


 28 31  0  0  0  0  0  0  0  0999 V2000
  -85.2941   33.7739   -1.9964 N   0  0  0  0  0  0  0  0  0  0  0  0
  -84.7194   33.1628   -0.9539 C   0  0  0  0  0  0  0  0  0  0  0  0
  -83.5310   33.6599   -0.5908 O   0  0  0  0  0  0  0  0  0  0  0  0
  -84.6847   34.5972   -2.4342 H   0  0  0  0  0  0  0  0  0  0  0  0
  -88.4523   34.4686   -3.4135 C   0  0  0  0  0  0  0  0  0  0  0  0
  -88.4800   33.1458   -3.3652 N   0  0  0  0  0  0  0  0  0  0  0  0
  -87.3200   32.6791   -2.8627 N   0  0  0  0  0  0  0  0  0  0  0  0
  -86.5587   33.7315   -2.5960 C   0  0  0  0  0  0  0  0  0  0  0  0
  -87.2839   34.8626   -2.9468 N   0  0  0  0  0  0  0  0  0  0  0  0
  -87.1694   31.6482   -2.7221 H   0  0  0  0  0  0  0  0  0  0  0  0
  -89.8093   35.4965   -4.0258 S   0  0  0  0  0  0  0  0  0  0  0  0
  -89.8237   35.4488   -5.8519 C   0  0  0  0  0  0  0  0  0  0  0  0
  -91.4744   34.1661   -7.1123 C   0  0  0  0  0  0  0  0  0  0  0  0
  -90.3769   34.1712   -6.3275 C   0  0  0  0  0  0  0  0  0  0  0  0
  -85.1276   32.0185   -0.0944 C   0  0  0  0  0  0  0  0  0  0  0  0
  -84.4359   31.6939    1.0462 C   0  0  0  0  0  0  0  0  0  0  0  0
  -85.2855   30.3317    1.6147 S   0  0  0  0  0  0  0  0  0  0  0  0
  -86.4696   30.2476    0.3787 C   0  0  0  0  0  0  0  0  0  0  0  0
  -86.1487   31.2604   -0.3931 N   0  0  0  0  0  0  0  0  0  0  0  0
  -87.5750   29.2751    0.2233 C   0  0  0  0  0  0  0  0  0  0  0  0
  -88.8344   29.7009   -0.1075 C   0  0  0  0  0  0  0  0  0  0  0  0
  -89.8502   28.7443   -0.2473 C   0  0  0  0  0  0  0  0  0  0  0  0
  -89.6055   27.4036   -0.0605 C   0  0  0  0  0  0  0  0  0  0  0  0
  -90.4176   26.2582   -0.1352 O   0  0  0  0  0  0  0  0  0  0  0  0
  -89.7991   25.1929    0.5567 C   0  0  0  0  0  0  0  0  0  0  0  0
  -88.3403   25.5065    0.4138 C   0  0  0  0  0  0  0  0  0  0  0  0
  -88.3403   26.9849    0.2706 C   0  0  0  0  0  0  0  0  0  0  0  0
  -87.3315   27.9441    0.4089 C   0  0  0  0  0  0  0  0  0  0  0  0
 13 14  2  0  0  0
 14 12  1  0  0  0
 12 11  1  0  0  0
 11  5  1  0  0  0
  5  6  2  0  0  0
  6  7  1  0  0  0
  7  8  1  0  0  0
  8  1  1  0  0  0
  1  2  1  0  0  0
  2  3  2  0  0  0
  2 15  1  0  0  0
 15 16  2  0  0  0
 16 17  1  0  0  0
 17 18  1  0  0  0
 18 19  2  0  0  0
 18 20  1  0  0  0
 20 21  2  0  0  0
 21 22  1  0  0  0
 22 23  2  0  0  0
 23 24  1  0  0  0
 24 25  1  0  0  0
 25 26  1  0  0  0
 26 27  1  0  0  0
 27 28  2  0  0  0
  8  9  2  0  0  0
  9  5  1  0  0  0
 19 15  1  0  0  0
 28 20  1  0  0  0
 27 23  1  0  0  0
  7 10  1  0  0  0
  1  4  1  0  0  0
M  END
> <minimizedAffinity>
-6.76094

> <CNNscore>
0.4505862594

> <CNNaffinity>
6.5742211342

> <CNN_VS>
2.9622538090

> <CNNaffinity_variance>
0.2833440304

$$$$
[H]C([H])=C([H])C([H])([H])Sc1nc(N([H])C(=O)c2nc(-c3c([H])c([H])c4c(c3[H])C([H])([H])C([H])([H])O4)sc2[H])n([H])n1


 28 31  0  0  0  0  0  0  0  0999 V2000
  -87.1899   33.7143   -1.8175 N   0  0  0  0  0  0  0  0  0  0  0  0
  -88.3898   33.1537   -2.0085 C   0  0  0  0  0  0  0  0  0  0  0  0
  -89.2607   33.9009   -2.6973 O   0  0  0  0  0  0  0  0  0  0  0  0
  -87.0951   34.7416   -2.2379 H   0  0  0  0  0  0  0  0  0  0  0  0
  -84.5179   32.2735   -0.0148 C   0  0  0  0  0  0  0  0  0  0  0  0
  -83.8618   32.9689   -0.9308 N   0  0  0  0  0  0  0  0  0  0  0  0
  -84.7338   33.5868   -1.7517 N   0  0  0  0  0  0  0  0  0  0  0  0
  -85.9525   33.2676   -1.3382 C   0  0  0  0  0  0  0  0  0  0  0  0
  -85.8075   32.4356   -0.2358 N   0  0  0  0  0  0  0  0  0  0  0  0
  -84.3948   34.2109   -2.5268 H   0  0  0  0  0  0  0  0  0  0  0  0
  -83.7265   31.2919    1.2825 S   0  0  0  0  0  0  0  0  0  0  0  0
  -84.8169   31.2397    2.7472 C   0  0  0  0  0  0  0  0  0  0  0  0
  -84.5731   28.8340    2.4125 C   0  0  0  0  0  0  0  0  0  0  0  0
  -85.1516   29.8482    3.0885 C   0  0  0  0  0  0  0  0  0  0  0  0
  -88.9777   31.8473   -1.6053 C   0  0  0  0  0  0  0  0  0  0  0  0
  -88.8415   31.3615   -0.3286 C   0  0  0  0  0  0  0  0  0  0  0  0
  -89.6547   29.8676   -0.4164 S   0  0  0  0  0  0  0  0  0  0  0  0
  -90.1229   29.9396   -2.0633 C   0  0  0  0  0  0  0  0  0  0  0  0
  -89.6331   31.0954   -2.4489 N   0  0  0  0  0  0  0  0  0  0  0  0
  -90.8873   28.9457   -2.8506 C   0  0  0  0  0  0  0  0  0  0  0  0
  -90.6905   27.6041   -2.6556 C   0  0  0  0  0  0  0  0  0  0  0  0
  -91.4389   26.6986   -3.4214 C   0  0  0  0  0  0  0  0  0  0  0  0
  -92.3550   27.1301   -4.3524 C   0  0  0  0  0  0  0  0  0  0  0  0
  -93.2189   26.4579   -5.2349 O   0  0  0  0  0  0  0  0  0  0  0  0
  -93.6252   27.3382   -6.2626 C   0  0  0  0  0  0  0  0  0  0  0  0
  -93.5789   28.6773   -5.5906 C   0  0  0  0  0  0  0  0  0  0  0  0
  -92.5466   28.4767   -4.5417 C   0  0  0  0  0  0  0  0  0  0  0  0
  -91.7968   29.3747   -3.7748 C   0  0  0  0  0  0  0  0  0  0  0  0
 13 14  2  0  0  0
 14 12  1  0  0  0
 12 11  1  0  0  0
 11  5  1  0  0  0
  5  6  2  0  0  0
  6  7  1  0  0  0
  7  8  1  0  0  0
  8  1  1  0  0  0
  1  2  1  0  0  0
  2  3  2  0  0  0
  2 15  1  0  0  0
 15 16  2  0  0  0
 16 17  1  0  0  0
 17 18  1  0  0  0
 18 19  2  0  0  0
 18 20  1  0  0  0
 20 21  2  0  0  0
 21 22  1  0  0  0
 22 23  2  0  0  0
 23 24  1  0  0  0
 24 25  1  0  0  0
 25 26  1  0  0  0
 26 27  1  0  0  0
 27 28  2  0  0  0
  8  9  2  0  0  0
  9  5  1  0  0  0
 19 15  1  0  0  0
 28 20  1  0  0  0
 27 23  1  0  0  0
  7 10  1  0  0  0
  1  4  1  0  0  0
M  END
> <minimizedAffinity>
-6.85507

> <CNNscore>
0.4496505857

> <CNNaffinity>
6.2039256096

> <CNN_VS>
2.7895987034

> <CNNaffinity_variance>
0.1025945321

$$$$
[H]c1nc2c([H])c([H])c(N([H])c3c([H])c([H])c([H])c(N([H])C(=O)C([H])([H])[H])c3[H])nn2c1-c1c([H])c([H])c([H])c(N([H])C(=O)C([H])([H])[H])c1[H]


 33 36  0  0  0  0  0  0  0  0999 V2000
  -84.7054   31.5228    0.6785 C   0  0  0  0  0  0  0  0  0  0  0  0
  -83.4079   31.3855    1.0911 C   0  0  0  0  0  0  0  0  0  0  0  0
  -82.9078   30.2144    1.6602 C   0  0  0  0  0  0  0  0  0  0  0  0
  -83.8077   29.1486    1.7982 C   0  0  0  0  0  0  0  0  0  0  0  0
  -83.6807   27.9153    2.2851 N   0  0  0  0  0  0  0  0  0  0  0  0
  -84.8665   27.3006    2.1776 C   0  0  0  0  0  0  0  0  0  0  0  0
  -85.7810   28.1551    1.6086 C   0  0  0  0  0  0  0  0  0  0  0  0
  -85.0767   29.3031    1.3859 N   0  0  0  0  0  0  0  0  0  0  0  0
  -85.4953   30.4301    0.8566 N   0  0  0  0  0  0  0  0  0  0  0  0
  -87.1860   27.8699    1.3185 C   0  0  0  0  0  0  0  0  0  0  0  0
  -88.0268   28.6710    0.6209 C   0  0  0  0  0  0  0  0  0  0  0  0
  -89.3582   28.2842    0.4086 C   0  0  0  0  0  0  0  0  0  0  0  0
  -89.8331   27.1002    0.8970 C   0  0  0  0  0  0  0  0  0  0  0  0
  -88.9810   26.2402    1.6303 C   0  0  0  0  0  0  0  0  0  0  0  0
  -87.7089   26.6580    1.8063 C   0  0  0  0  0  0  0  0  0  0  0  0
  -89.5066   25.0130    2.1005 N   0  0  0  0  0  0  0  0  0  0  0  0
  -90.3338   24.8964    3.2169 C   0  0  0  0  0  0  0  0  0  0  0  0
  -90.8043   23.4973    3.5895 C   0  0  0  0  0  0  0  0  0  0  0  0
  -90.7519   25.7876    3.9680 O   0  0  0  0  0  0  0  0  0  0  0  0
  -89.2564   24.1093    1.5710 H   0  0  0  0  0  0  0  0  0  0  0  0
  -85.2526   32.7074    0.1272 N   0  0  0  0  0  0  0  0  0  0  0  0
  -84.8377   33.6473    0.4475 H   0  0  0  0  0  0  0  0  0  0  0  0
  -87.0310   33.8163   -2.9122 C   0  0  0  0  0  0  0  0  0  0  0  0
  -88.2670   33.1895   -2.6711 C   0  0  0  0  0  0  0  0  0  0  0  0
  -88.5101   32.4239   -1.5599 C   0  0  0  0  0  0  0  0  0  0  0  0
  -87.5158   32.2425   -0.6183 C   0  0  0  0  0  0  0  0  0  0  0  0
  -86.2954   32.8337   -0.8089 C   0  0  0  0  0  0  0  0  0  0  0  0
  -86.0779   33.6127   -1.9596 C   0  0  0  0  0  0  0  0  0  0  0  0
  -87.0191   36.5385   -5.6438 C   0  0  0  0  0  0  0  0  0  0  0  0
  -87.2771   35.9154   -4.3037 C   0  0  0  0  0  0  0  0  0  0  0  0
  -87.8400   36.6703   -3.4768 O   0  0  0  0  0  0  0  0  0  0  0  0
  -86.8817   34.5876   -4.0944 N   0  0  0  0  0  0  0  0  0  0  0  0
  -86.4146   34.1170   -4.9351 H   0  0  0  0  0  0  0  0  0  0  0  0
 29 30  1  0  0  0
 30 31  2  0  0  0
 30 32  1  0  0  0
 32 23  1  0  0  0
 23 24  2  0  0  0
 24 25  1  0  0  0
 25 26  2  0  0  0
 26 27  1  0  0  0
 27 21  1  0  0  0
 21  1  1  0  0  0
  1  2  1  0  0  0
  2  3  2  0  0  0
  3  4  1  0  0  0
  4  5  2  0  0  0
  5  6  1  0  0  0
  6  7  2  0  0  0
  7 10  1  0  0  0
 10 11  2  0  0  0
 11 12  1  0  0  0
 12 13  2  0  0  0
 13 14  1  0  0  0
 14 16  1  0  0  0
 16 17  1  0  0  0
 17 18  1  0  0  0
 17 19  2  0  0  0
 14 15  2  0  0  0
  7  8  1  0  0  0
  8  9  1  0  0  0
 27 28  2  0  0  0
 28 23  1  0  0  0
  9  1  2  0  0  0
  8  4  1  0  0  0
 15 10  1  0  0  0
 32 33  1  0  0  0
 21 22  1  0  0  0
 16 20  1  0  0  0
M  END
> <minimizedAffinity>
-10.01773

> <CNNscore>
0.7077217102

> <CNNaffinity>
7.1845541000

> <CNN_VS>
5.0846648216

> <CNNaffinity_variance>
0.4052992761

$$$$
[H]c1nc2c([H])c([H])c(N([H])c3c([H])c([H])c([H])c(N([H])C(=O)C([H])([H])[H])c3[H])nn2c1-c1c([H])c([H])c([H])c(N([H])C(=O)C([H])([H])[H])c1[H]


 33 36  0  0  0  0  0  0  0  0999 V2000
  -84.9321   29.6612    1.3467 C   0  0  0  0  0  0  0  0  0  0  0  0
  -83.6177   29.7956    1.7028 C   0  0  0  0  0  0  0  0  0  0  0  0
  -82.8127   30.8480    1.2670 C   0  0  0  0  0  0  0  0  0  0  0  0
  -83.4153   31.7938    0.4262 C   0  0  0  0  0  0  0  0  0  0  0  0
  -82.9616   32.8987   -0.1635 N   0  0  0  0  0  0  0  0  0  0  0  0
  -83.9664   33.4384   -0.8668 C   0  0  0  0  0  0  0  0  0  0  0  0
  -85.0951   32.6657   -0.7293 C   0  0  0  0  0  0  0  0  0  0  0  0
  -84.7069   31.6445    0.0893 N   0  0  0  0  0  0  0  0  0  0  0  0
  -85.4196   30.6322    0.5287 N   0  0  0  0  0  0  0  0  0  0  0  0
  -86.4040   32.9088   -1.3353 C   0  0  0  0  0  0  0  0  0  0  0  0
  -87.6019   32.6442   -0.7606 C   0  0  0  0  0  0  0  0  0  0  0  0
  -88.7925   32.9238   -1.4472 C   0  0  0  0  0  0  0  0  0  0  0  0
  -88.7709   33.4648   -2.7014 C   0  0  0  0  0  0  0  0  0  0  0  0
  -87.5361   33.7529   -3.3305 C   0  0  0  0  0  0  0  0  0  0  0  0
  -86.4195   33.4659   -2.6275 C   0  0  0  0  0  0  0  0  0  0  0  0
  -87.5581   34.3326   -4.6216 N   0  0  0  0  0  0  0  0  0  0  0  0
  -87.4633   35.7027   -4.8622 C   0  0  0  0  0  0  0  0  0  0  0  0
  -87.5116   36.1578   -6.3142 C   0  0  0  0  0  0  0  0  0  0  0  0
  -87.3425   36.6262   -4.0463 O   0  0  0  0  0  0  0  0  0  0  0  0
  -87.6551   33.6837   -5.4756 H   0  0  0  0  0  0  0  0  0  0  0  0
  -85.7673   28.5885    1.7451 N   0  0  0  0  0  0  0  0  0  0  0  0
  -85.6538   28.2103    2.7462 H   0  0  0  0  0  0  0  0  0  0  0  0
  -88.6611   28.1507   -0.5053 C   0  0  0  0  0  0  0  0  0  0  0  0
  -88.7457   26.7471   -0.4657 C   0  0  0  0  0  0  0  0  0  0  0  0
  -87.8832   25.9688    0.2627 C   0  0  0  0  0  0  0  0  0  0  0  0
  -86.8768   26.5618    1.0000 C   0  0  0  0  0  0  0  0  0  0  0  0
  -86.7550   27.9257    0.9935 C   0  0  0  0  0  0  0  0  0  0  0  0
  -87.6555   28.6957    0.2356 C   0  0  0  0  0  0  0  0  0  0  0  0
  -90.5651   30.1044   -3.2311 C   0  0  0  0  0  0  0  0  0  0  0  0
  -89.4243   29.3769   -2.5830 C   0  0  0  0  0  0  0  0  0  0  0  0
  -88.3895   29.2975   -3.2855 O   0  0  0  0  0  0  0  0  0  0  0  0
  -89.6032   28.8643   -1.2914 N   0  0  0  0  0  0  0  0  0  0  0  0
  -90.5691   29.0412   -0.8644 H   0  0  0  0  0  0  0  0  0  0  0  0
 29 30  1  0  0  0
 30 31  2  0  0  0
 30 32  1  0  0  0
 32 23  1  0  0  0
 23 24  2  0  0  0
 24 25  1  0  0  0
 25 26  2  0  0  0
 26 27  1  0  0  0
 27 21  1  0  0  0
 21  1  1  0  0  0
  1  2  1  0  0  0
  2  3  2  0  0  0
  3  4  1  0  0  0
  4  5  2  0  0  0
  5  6  1  0  0  0
  6  7  2  0  0  0
  7 10  1  0  0  0
 10 11  2  0  0  0
 11 12  1  0  0  0
 12 13  2  0  0  0
 13 14  1  0  0  0
 14 16  1  0  0  0
 16 17  1  0  0  0
 17 18  1  0  0  0
 17 19  2  0  0  0
 14 15  2  0  0  0
  7  8  1  0  0  0
  8  9  1  0  0  0
 27 28  2  0  0  0
 28 23  1  0  0  0
  9  1  2  0  0  0
  8  4  1  0  0  0
 15 10  1  0  0  0
 32 33  1  0  0  0
 21 22  1  0  0  0
 16 20  1  0  0  0
M  END
> <minimizedAffinity>
-9.80396

> <CNNscore>
0.7058312297

> <CNNaffinity>
7.0770668983

> <CNN_VS>
4.9952149391

> <CNNaffinity_variance>
0.0973881260

$$$$
[H]c1nc2c([H])c([H])c(N([H])c3c([H])c([H])c([H])c(N([H])C(=O)C([H])([H])[H])c3[H])nn2c1-c1c([H])c([H])c([H])c(N([H])C(=O)C([H])([H])[H])c1[H]


 33 36  0  0  0  0  0  0  0  0999 V2000
  -84.8268   29.6588    1.3257 C   0  0  0  0  0  0  0  0  0  0  0  0
  -83.5004   29.8105    1.6258 C   0  0  0  0  0  0  0  0  0  0  0  0
  -82.7317   30.8806    1.1679 C   0  0  0  0  0  0  0  0  0  0  0  0
  -83.3853   31.8259    0.3655 C   0  0  0  0  0  0  0  0  0  0  0  0
  -82.9752   32.9445   -0.2302 N   0  0  0  0  0  0  0  0  0  0  0  0
  -84.0181   33.4757   -0.8827 C   0  0  0  0  0  0  0  0  0  0  0  0
  -85.1275   32.6834   -0.7053 C   0  0  0  0  0  0  0  0  0  0  0  0
  -84.6879   31.6595    0.0834 N   0  0  0  0  0  0  0  0  0  0  0  0
  -85.3647   30.6309    0.5412 N   0  0  0  0  0  0  0  0  0  0  0  0
  -86.4652   32.9120   -1.2509 C   0  0  0  0  0  0  0  0  0  0  0  0
  -87.6327   32.6603   -0.6114 C   0  0  0  0  0  0  0  0  0  0  0  0
  -88.8564   32.9236   -1.2441 C   0  0  0  0  0  0  0  0  0  0  0  0
  -88.8979   33.4358   -2.5098 C   0  0  0  0  0  0  0  0  0  0  0  0
  -87.6965   33.7099   -3.2061 C   0  0  0  0  0  0  0  0  0  0  0  0
  -86.5458   33.4395   -2.5530 C   0  0  0  0  0  0  0  0  0  0  0  0
  -87.7834   34.2599   -4.5073 N   0  0  0  0  0  0  0  0  0  0  0  0
  -87.5647   35.6054   -4.8007 C   0  0  0  0  0  0  0  0  0  0  0  0
  -87.7074   36.0311   -6.2554 C   0  0  0  0  0  0  0  0  0  0  0  0
  -87.2639   36.5274   -4.0309 O   0  0  0  0  0  0  0  0  0  0  0  0
  -88.0348   33.6073   -5.3263 H   0  0  0  0  0  0  0  0  0  0  0  0
  -85.6269   28.5684    1.7473 N   0  0  0  0  0  0  0  0  0  0  0  0
  -85.4995   28.2138    2.7553 H   0  0  0  0  0  0  0  0  0  0  0  0
  -88.3298   26.1519    1.0508 C   0  0  0  0  0  0  0  0  0  0  0  0
  -88.4716   26.3893   -0.3284 C   0  0  0  0  0  0  0  0  0  0  0  0
  -87.7181   27.3122   -1.0071 C   0  0  0  0  0  0  0  0  0  0  0  0
  -86.7698   28.0564   -0.3325 C   0  0  0  0  0  0  0  0  0  0  0  0
  -86.5946   27.8601    1.0114 C   0  0  0  0  0  0  0  0  0  0  0  0
  -87.3839   26.9060    1.6784 C   0  0  0  0  0  0  0  0  0  0  0  0
  -90.9427   24.1951    3.1040 C   0  0  0  0  0  0  0  0  0  0  0  0
  -90.1874   25.3842    2.5880 C   0  0  0  0  0  0  0  0  0  0  0  0
  -90.5636   26.4845    3.0553 O   0  0  0  0  0  0  0  0  0  0  0  0
  -89.1599   25.1742    1.6589 N   0  0  0  0  0  0  0  0  0  0  0  0
  -88.9969   24.1510    1.3884 H   0  0  0  0  0  0  0  0  0  0  0  0
 29 30  1  0  0  0
 30 31  2  0  0  0
 30 32  1  0  0  0
 32 23  1  0  0  0
 23 24  2  0  0  0
 24 25  1  0  0  0
 25 26  2  0  0  0
 26 27  1  0  0  0
 27 21  1  0  0  0
 21  1  1  0  0  0
  1  2  1  0  0  0
  2  3  2  0  0  0
  3  4  1  0  0  0
  4  5  2  0  0  0
  5  6  1  0  0  0
  6  7  2  0  0  0
  7 10  1  0  0  0
 10 11  2  0  0  0
 11 12  1  0  0  0
 12 13  2  0  0  0
 13 14  1  0  0  0
 14 16  1  0  0  0
 16 17  1  0  0  0
 17 18  1  0  0  0
 17 19  2  0  0  0
 14 15  2  0  0  0
  7  8  1  0  0  0
  8  9  1  0  0  0
 27 28  2  0  0  0
 28 23  1  0  0  0
  9  1  2  0  0  0
  8  4  1  0  0  0
 15 10  1  0  0  0
 32 33  1  0  0  0
 21 22  1  0  0  0
 16 20  1  0  0  0
M  END
> <minimizedAffinity>
-10.01215

> <CNNscore>
0.6865141988

> <CNNaffinity>
7.0450057983

> <CNN_VS>
4.8364963531

> <CNNaffinity_variance>
0.2002407312

$$$$
[H]c1nc2c([H])c([H])c(N([H])c3c([H])c([H])c([H])c(N([H])C(=O)C([H])([H])[H])c3[H])nn2c1-c1c([H])c([H])c([H])c(N([H])C(=O)C([H])([H])[H])c1[H]


 33 36  0  0  0  0  0  0  0  0999 V2000
  -84.6735   29.6061    1.4019 C   0  0  0  0  0  0  0  0  0  0  0  0
  -83.3357   29.7930    1.6210 C   0  0  0  0  0  0  0  0  0  0  0  0
  -82.6246   30.8820    1.1172 C   0  0  0  0  0  0  0  0  0  0  0  0
  -83.3502   31.8086    0.3558 C   0  0  0  0  0  0  0  0  0  0  0  0
  -83.0065   32.9365   -0.2638 N   0  0  0  0  0  0  0  0  0  0  0  0
  -84.1006   33.4391   -0.8518 C   0  0  0  0  0  0  0  0  0  0  0  0
  -85.1760   32.6183   -0.6074 C   0  0  0  0  0  0  0  0  0  0  0  0
  -84.6627   31.6076    0.1533 N   0  0  0  0  0  0  0  0  0  0  0  0
  -85.2833   30.5624    0.6515 N   0  0  0  0  0  0  0  0  0  0  0  0
  -86.5499   32.8109   -1.0708 C   0  0  0  0  0  0  0  0  0  0  0  0
  -86.9622   33.7568   -1.9487 C   0  0  0  0  0  0  0  0  0  0  0  0
  -88.3132   33.8397   -2.3159 C   0  0  0  0  0  0  0  0  0  0  0  0
  -89.2366   32.9750   -1.8003 C   0  0  0  0  0  0  0  0  0  0  0  0
  -88.8392   31.9754   -0.8805 C   0  0  0  0  0  0  0  0  0  0  0  0
  -87.5279   31.9374   -0.5602 C   0  0  0  0  0  0  0  0  0  0  0  0
  -89.8235   31.0863   -0.3863 N   0  0  0  0  0  0  0  0  0  0  0  0
  -90.2571   29.9485   -1.0657 C   0  0  0  0  0  0  0  0  0  0  0  0
  -91.3311   29.1049   -0.3926 C   0  0  0  0  0  0  0  0  0  0  0  0
  -89.8867   29.5134   -2.1641 O   0  0  0  0  0  0  0  0  0  0  0  0
  -90.2710   31.2943    0.5709 H   0  0  0  0  0  0  0  0  0  0  0  0
  -85.4176   28.4958    1.8714 N   0  0  0  0  0  0  0  0  0  0  0  0
  -85.1831   28.1130    2.8494 H   0  0  0  0  0  0  0  0  0  0  0  0
  -88.2392   26.1579    1.4209 C   0  0  0  0  0  0  0  0  0  0  0  0
  -88.4566   26.3559    0.0452 C   0  0  0  0  0  0  0  0  0  0  0  0
  -87.7145   27.2286   -0.7085 C   0  0  0  0  0  0  0  0  0  0  0  0
  -86.7020   27.9591   -0.1176 C   0  0  0  0  0  0  0  0  0  0  0  0
  -86.4520   27.7998    1.2193 C   0  0  0  0  0  0  0  0  0  0  0  0
  -87.2315   26.8970    1.9646 C   0  0  0  0  0  0  0  0  0  0  0  0
  -90.8167   24.3672    3.6618 C   0  0  0  0  0  0  0  0  0  0  0  0
  -90.0617   25.5118    3.0530 C   0  0  0  0  0  0  0  0  0  0  0  0
  -90.4108   26.6438    3.4620 O   0  0  0  0  0  0  0  0  0  0  0  0
  -89.0637   25.2310    2.1105 N   0  0  0  0  0  0  0  0  0  0  0  0
  -88.9212   24.1910    1.8990 H   0  0  0  0  0  0  0  0  0  0  0  0
 29 30  1  0  0  0
 30 31  2  0  0  0
 30 32  1  0  0  0
 32 23  1  0  0  0
 23 24  2  0  0  0
 24 25  1  0  0  0
 25 26  2  0  0  0
 26 27  1  0  0  0
 27 21  1  0  0  0
 21  1  1  0  0  0
  1  2  1  0  0  0
  2  3  2  0  0  0
  3  4  1  0  0  0
  4  5  2  0  0  0
  5  6  1  0  0  0
  6  7  2  0  0  0
  7 10  1  0  0  0
 10 11  2  0  0  0
 11 12  1  0  0  0
 12 13  2  0  0  0
 13 14  1  0  0  0
 14 16  1  0  0  0
 16 17  1  0  0  0
 17 18  1  0  0  0
 17 19  2  0  0  0
 14 15  2  0  0  0
  7  8  1  0  0  0
  8  9  1  0  0  0
 27 28  2  0  0  0
 28 23  1  0  0  0
  9  1  2  0  0  0
  8  4  1  0  0  0
 15 10  1  0  0  0
 32 33  1  0  0  0
 21 22  1  0  0  0
 16 20  1  0  0  0
M  END
> <minimizedAffinity>
-9.93565

> <CNNscore>
0.6739621758

> <CNNaffinity>
7.1790819168

> <CNN_VS>
4.8384294510

> <CNNaffinity_variance>
0.1488652229

$$$$
[H]c1nc2c([H])c([H])c(N([H])c3c([H])c([H])c([H])c(N([H])C(=O)C([H])([H])[H])c3[H])nn2c1-c1c([H])c([H])c([H])c(N([H])C(=O)C([H])([H])[H])c1[H]


 33 36  0  0  0  0  0  0  0  0999 V2000
  -86.8702   28.4716    1.4132 C   0  0  0  0  0  0  0  0  0  0  0  0
  -85.6797   28.2062    2.0334 C   0  0  0  0  0  0  0  0  0  0  0  0
  -84.5717   29.0496    1.9516 C   0  0  0  0  0  0  0  0  0  0  0  0
  -84.7247   30.2159    1.1892 C   0  0  0  0  0  0  0  0  0  0  0  0
  -83.9007   31.2219    0.9004 N   0  0  0  0  0  0  0  0  0  0  0  0
  -84.5605   32.0907    0.1224 C   0  0  0  0  0  0  0  0  0  0  0  0
  -85.8395   31.6371   -0.0970 C   0  0  0  0  0  0  0  0  0  0  0  0
  -85.9017   30.4587    0.5894 N   0  0  0  0  0  0  0  0  0  0  0  0
  -86.9137   29.6284    0.6995 N   0  0  0  0  0  0  0  0  0  0  0  0
  -86.8786   32.2919   -0.8914 C   0  0  0  0  0  0  0  0  0  0  0  0
  -88.2141   32.1673   -0.7016 C   0  0  0  0  0  0  0  0  0  0  0  0
  -89.1132   32.8499   -1.5340 C   0  0  0  0  0  0  0  0  0  0  0  0
  -88.6655   33.6493   -2.5472 C   0  0  0  0  0  0  0  0  0  0  0  0
  -87.2765   33.8009   -2.7729 C   0  0  0  0  0  0  0  0  0  0  0  0
  -86.4533   33.1235   -1.9439 C   0  0  0  0  0  0  0  0  0  0  0  0
  -86.8542   34.6550   -3.8195 N   0  0  0  0  0  0  0  0  0  0  0  0
  -87.2365   35.9908   -3.9373 C   0  0  0  0  0  0  0  0  0  0  0  0
  -86.6957   36.7651   -5.1314 C   0  0  0  0  0  0  0  0  0  0  0  0
  -87.9701   36.6553   -3.1935 O   0  0  0  0  0  0  0  0  0  0  0  0
  -86.1991   34.2571   -4.5760 H   0  0  0  0  0  0  0  0  0  0  0  0
  -88.0027   27.6213    1.4497 N   0  0  0  0  0  0  0  0  0  0  0  0
  -88.4296   27.3149    0.5106 H   0  0  0  0  0  0  0  0  0  0  0  0
  -89.0482   25.1694    4.0041 C   0  0  0  0  0  0  0  0  0  0  0  0
  -89.9504   25.9811    4.7155 C   0  0  0  0  0  0  0  0  0  0  0  0
  -90.2030   27.2862    4.3796 C   0  0  0  0  0  0  0  0  0  0  0  0
  -89.5575   27.8560    3.2994 C   0  0  0  0  0  0  0  0  0  0  0  0
  -88.6705   27.1049    2.5754 C   0  0  0  0  0  0  0  0  0  0  0  0
  -88.4332   25.7691    2.9462 C   0  0  0  0  0  0  0  0  0  0  0  0
  -88.0159   21.9071    5.7830 C   0  0  0  0  0  0  0  0  0  0  0  0
  -88.0740   23.3803    5.5052 C   0  0  0  0  0  0  0  0  0  0  0  0
  -87.3928   24.0858    6.2853 O   0  0  0  0  0  0  0  0  0  0  0  0
  -88.8575   23.8302    4.4343 N   0  0  0  0  0  0  0  0  0  0  0  0
  -89.3634   23.0599    3.8891 H   0  0  0  0  0  0  0  0  0  0  0  0
 29 30  1  0  0  0
 30 31  2  0  0  0
 30 32  1  0  0  0
 32 23  1  0  0  0
 23 24  2  0  0  0
 24 25  1  0  0  0
 25 26  2  0  0  0
 26 27  1  0  0  0
 27 21  1  0  0  0
 21  1  1  0  0  0
  1  2  1  0  0  0
  2  3  2  0  0  0
  3  4  1  0  0  0
  4  5  2  0  0  0
  5  6  1  0  0  0
  6  7  2  0  0  0
  7 10  1  0  0  0
 10 11  2  0  0  0
 11 12  1  0  0  0
 12 13  2  0  0  0
 13 14  1  0  0  0
 14 16  1  0  0  0
 16 17  1  0  0  0
 17 18  1  0  0  0
 17 19  2  0  0  0
 14 15  2  0  0  0
  7  8  1  0  0  0
  8  9  1  0  0  0
 27 28  2  0  0  0
 28 23  1  0  0  0
  9  1  2  0  0  0
  8  4  1  0  0  0
 15 10  1  0  0  0
 32 33  1  0  0  0
 21 22  1  0  0  0
 16 20  1  0  0  0
M  END
> <minimizedAffinity>
-9.80707

> <CNNscore>
0.6378130317

> <CNNaffinity>
6.8662948608

> <CNN_VS>
4.3794121742

> <CNNaffinity_variance>
0.1556392163

$$$$
[H]c1nc2c([H])c([H])c(N([H])c3c([H])c([H])c([H])c(N([H])C(=O)C([H])([H])[H])c3[H])nn2c1-c1c([H])c([H])c([H])c(N([H])C(=O)C([H])([H])[H])c1[H]


 33 36  0  0  0  0  0  0  0  0999 V2000
  -87.0344   32.4907   -0.6979 C   0  0  0  0  0  0  0  0  0  0  0  0
  -86.4774   33.6124   -1.2493 C   0  0  0  0  0  0  0  0  0  0  0  0
  -85.1075   33.8745   -1.2267 C   0  0  0  0  0  0  0  0  0  0  0  0
  -84.2951   32.9188   -0.6012 C   0  0  0  0  0  0  0  0  0  0  0  0
  -82.9807   32.8422   -0.3992 N   0  0  0  0  0  0  0  0  0  0  0  0
  -82.7258   31.7033    0.2591 C   0  0  0  0  0  0  0  0  0  0  0  0
  -83.9012   31.0279    0.4881 C   0  0  0  0  0  0  0  0  0  0  0  0
  -84.8611   31.8240   -0.0671 N   0  0  0  0  0  0  0  0  0  0  0  0
  -86.1591   31.6274   -0.1164 N   0  0  0  0  0  0  0  0  0  0  0  0
  -84.0569   29.7458    1.1746 C   0  0  0  0  0  0  0  0  0  0  0  0
  -83.2053   29.2345    2.0959 C   0  0  0  0  0  0  0  0  0  0  0  0
  -83.4662   27.9889    2.6853 C   0  0  0  0  0  0  0  0  0  0  0  0
  -84.5764   27.2688    2.3461 C   0  0  0  0  0  0  0  0  0  0  0  0
  -85.4862   27.7741    1.3867 C   0  0  0  0  0  0  0  0  0  0  0  0
  -85.1900   28.9772    0.8496 C   0  0  0  0  0  0  0  0  0  0  0  0
  -86.6350   27.0065    1.0792 N   0  0  0  0  0  0  0  0  0  0  0  0
  -87.8311   27.0741    1.7927 C   0  0  0  0  0  0  0  0  0  0  0  0
  -88.9670   26.1716    1.3310 C   0  0  0  0  0  0  0  0  0  0  0  0
  -88.1108   27.7789    2.7715 O   0  0  0  0  0  0  0  0  0  0  0  0
  -86.5910   26.3253    0.2464 H   0  0  0  0  0  0  0  0  0  0  0  0
  -88.4228   32.2105   -0.6755 N   0  0  0  0  0  0  0  0  0  0  0  0
  -88.9768   32.4930    0.2028 H   0  0  0  0  0  0  0  0  0  0  0  0
  -90.4744   31.8859   -3.7276 C   0  0  0  0  0  0  0  0  0  0  0  0
  -90.7763   30.5153   -3.6313 C   0  0  0  0  0  0  0  0  0  0  0  0
  -90.3193   29.7215   -2.6109 C   0  0  0  0  0  0  0  0  0  0  0  0
  -89.5253   30.2645   -1.6195 C   0  0  0  0  0  0  0  0  0  0  0  0
  -89.2052   31.5949   -1.6698 C   0  0  0  0  0  0  0  0  0  0  0  0
  -89.6896   32.3820   -2.7301 C   0  0  0  0  0  0  0  0  0  0  0  0
  -91.0636   34.1648   -6.7825 C   0  0  0  0  0  0  0  0  0  0  0  0
  -90.3057   33.4895   -5.6777 C   0  0  0  0  0  0  0  0  0  0  0  0
  -89.0880   33.7812   -5.6260 O   0  0  0  0  0  0  0  0  0  0  0  0
  -90.9972   32.6192   -4.8247 N   0  0  0  0  0  0  0  0  0  0  0  0
  -92.0398   32.5072   -5.0415 H   0  0  0  0  0  0  0  0  0  0  0  0
 29 30  1  0  0  0
 30 31  2  0  0  0
 30 32  1  0  0  0
 32 23  1  0  0  0
 23 24  2  0  0  0
 24 25  1  0  0  0
 25 26  2  0  0  0
 26 27  1  0  0  0
 27 21  1  0  0  0
 21  1  1  0  0  0
  1  2  1  0  0  0
  2  3  2  0  0  0
  3  4  1  0  0  0
  4  5  2  0  0  0
  5  6  1  0  0  0
  6  7  2  0  0  0
  7 10  1  0  0  0
 10 11  2  0  0  0
 11 12  1  0  0  0
 12 13  2  0  0  0
 13 14  1  0  0  0
 14 16  1  0  0  0
 16 17  1  0  0  0
 17 18  1  0  0  0
 17 19  2  0  0  0
 14 15  2  0  0  0
  7  8  1  0  0  0
  8  9  1  0  0  0
 27 28  2  0  0  0
 28 23  1  0  0  0
  9  1  2  0  0  0
  8  4  1  0  0  0
 15 10  1  0  0  0
 32 33  1  0  0  0
 21 22  1  0  0  0
 16 20  1  0  0  0
M  END
> <minimizedAffinity>
-9.17523

> <CNNscore>
0.5371445417

> <CNNaffinity>
6.8399543762

> <CNN_VS>
3.6740441322

> <CNNaffinity_variance>
0.1450552642

$$$$
[H]c1nc2c([H])c([H])c(N([H])c3c([H])c([H])c([H])c(N([H])C(=O)C([H])([H])[H])c3[H])nn2c1-c1c([H])c([H])c([H])c(N([H])C(=O)C([H])([H])[H])c1[H]


 33 36  0  0  0  0  0  0  0  0999 V2000
  -84.9142   31.5775    0.6606 C   0  0  0  0  0  0  0  0  0  0  0  0
  -83.6146   31.4853    1.0791 C   0  0  0  0  0  0  0  0  0  0  0  0
  -83.0764   30.3316    1.6492 C   0  0  0  0  0  0  0  0  0  0  0  0
  -83.9390   29.2348    1.7818 C   0  0  0  0  0  0  0  0  0  0  0  0
  -83.7712   28.0060    2.2678 N   0  0  0  0  0  0  0  0  0  0  0  0
  -84.9342   27.3504    2.1541 C   0  0  0  0  0  0  0  0  0  0  0  0
  -85.8754   28.1729    1.5819 C   0  0  0  0  0  0  0  0  0  0  0  0
  -85.2107   29.3452    1.3638 N   0  0  0  0  0  0  0  0  0  0  0  0
  -85.6662   30.4576    0.8337 N   0  0  0  0  0  0  0  0  0  0  0  0
  -87.2682   27.8391    1.2849 C   0  0  0  0  0  0  0  0  0  0  0  0
  -88.1274   28.6017    0.5668 C   0  0  0  0  0  0  0  0  0  0  0  0
  -89.4440   28.1699    0.3500 C   0  0  0  0  0  0  0  0  0  0  0  0
  -89.8861   26.9799    0.8544 C   0  0  0  0  0  0  0  0  0  0  0  0
  -89.0142   26.1594    1.6093 C   0  0  0  0  0  0  0  0  0  0  0  0
  -87.7574   26.6197    1.7889 C   0  0  0  0  0  0  0  0  0  0  0  0
  -89.5054   24.9244    2.0959 N   0  0  0  0  0  0  0  0  0  0  0  0
  -90.2883   24.7945    3.2424 C   0  0  0  0  0  0  0  0  0  0  0  0
  -90.7258   23.3884    3.6289 C   0  0  0  0  0  0  0  0  0  0  0  0
  -90.6893   25.6784    4.0111 O   0  0  0  0  0  0  0  0  0  0  0  0
  -89.2635   24.0251    1.5549 H   0  0  0  0  0  0  0  0  0  0  0  0
  -85.5000   32.7430    0.1081 N   0  0  0  0  0  0  0  0  0  0  0  0
  -85.2501   33.6894    0.5550 H   0  0  0  0  0  0  0  0  0  0  0  0
  -88.5531   32.1993   -1.8952 C   0  0  0  0  0  0  0  0  0  0  0  0
  -88.1817   32.9238   -3.0424 C   0  0  0  0  0  0  0  0  0  0  0  0
  -86.9804   33.5751   -3.1560 C   0  0  0  0  0  0  0  0  0  0  0  0
  -86.0749   33.5354   -2.1135 C   0  0  0  0  0  0  0  0  0  0  0  0
  -86.3915   32.8417   -0.9760 C   0  0  0  0  0  0  0  0  0  0  0  0
  -87.6322   32.1847   -0.8908 C   0  0  0  0  0  0  0  0  0  0  0  0
  -91.5892   29.8655   -2.3509 C   0  0  0  0  0  0  0  0  0  0  0  0
  -90.1808   30.3596   -2.5026 C   0  0  0  0  0  0  0  0  0  0  0  0
  -89.4413   29.6233   -3.1966 O   0  0  0  0  0  0  0  0  0  0  0  0
  -89.8208   31.5610   -1.8781 N   0  0  0  0  0  0  0  0  0  0  0  0
  -90.6064   32.0383   -1.3289 H   0  0  0  0  0  0  0  0  0  0  0  0
 29 30  1  0  0  0
 30 31  2  0  0  0
 30 32  1  0  0  0
 32 23  1  0  0  0
 23 24  2  0  0  0
 24 25  1  0  0  0
 25 26  2  0  0  0
 26 27  1  0  0  0
 27 21  1  0  0  0
 21  1  1  0  0  0
  1  2  1  0  0  0
  2  3  2  0  0  0
  3  4  1  0  0  0
  4  5  2  0  0  0
  5  6  1  0  0  0
  6  7  2  0  0  0
  7 10  1  0  0  0
 10 11  2  0  0  0
 11 12  1  0  0  0
 12 13  2  0  0  0
 13 14  1  0  0  0
 14 16  1  0  0  0
 16 17  1  0  0  0
 17 18  1  0  0  0
 17 19  2  0  0  0
 14 15  2  0  0  0
  7  8  1  0  0  0
  8  9  1  0  0  0
 27 28  2  0  0  0
 28 23  1  0  0  0
  9  1  2  0  0  0
  8  4  1  0  0  0
 15 10  1  0  0  0
 32 33  1  0  0  0
 21 22  1  0  0  0
 16 20  1  0  0  0
M  END
> <minimizedAffinity>
-9.46869

> <CNNscore>
0.4989513755

> <CNNaffinity>
7.0117592812

> <CNN_VS>
3.4985270500

> <CNNaffinity_variance>
0.2892699838

$$$$
[H]c1nc2c([H])c([H])c(N([H])c3c([H])c([H])c([H])c(N([H])C(=O)C([H])([H])[H])c3[H])nn2c1-c1c([H])c([H])c([H])c(N([H])C(=O)C([H])([H])[H])c1[H]


 33 36  0  0  0  0  0  0  0  0999 V2000
  -86.8304   28.5758    1.6069 C   0  0  0  0  0  0  0  0  0  0  0  0
  -85.7248   28.1729    2.3053 C   0  0  0  0  0  0  0  0  0  0  0  0
  -84.5185   28.8732    2.2952 C   0  0  0  0  0  0  0  0  0  0  0  0
  -84.4765   30.0414    1.5217 C   0  0  0  0  0  0  0  0  0  0  0  0
  -83.5179   30.9357    1.2859 N   0  0  0  0  0  0  0  0  0  0  0  0
  -84.0133   31.8707    0.4639 C   0  0  0  0  0  0  0  0  0  0  0  0
  -85.3213   31.5751    0.1611 C   0  0  0  0  0  0  0  0  0  0  0  0
  -85.5728   30.4204    0.8446 N   0  0  0  0  0  0  0  0  0  0  0  0
  -86.6844   29.7217    0.8892 N   0  0  0  0  0  0  0  0  0  0  0  0
  -86.2175   32.3441   -0.7020 C   0  0  0  0  0  0  0  0  0  0  0  0
  -85.8673   33.4223   -1.4436 C   0  0  0  0  0  0  0  0  0  0  0  0
  -86.8228   34.0769   -2.2345 C   0  0  0  0  0  0  0  0  0  0  0  0
  -88.1182   33.6451   -2.2743 C   0  0  0  0  0  0  0  0  0  0  0  0
  -88.5173   32.5218   -1.5112 C   0  0  0  0  0  0  0  0  0  0  0  0
  -87.5599   31.9270   -0.7673 C   0  0  0  0  0  0  0  0  0  0  0  0
  -89.8638   32.0941   -1.5971 N   0  0  0  0  0  0  0  0  0  0  0  0
  -90.3130   31.1058   -2.4722 C   0  0  0  0  0  0  0  0  0  0  0  0
  -91.7982   30.7726   -2.4400 C   0  0  0  0  0  0  0  0  0  0  0  0
  -89.6635   30.4432   -3.2921 O   0  0  0  0  0  0  0  0  0  0  0  0
  -90.5926   32.5555   -0.9524 H   0  0  0  0  0  0  0  0  0  0  0  0
  -88.0589   27.8712    1.5700 N   0  0  0  0  0  0  0  0  0  0  0  0
  -88.5757   27.8143    0.6279 H   0  0  0  0  0  0  0  0  0  0  0  0
  -89.4180   25.0835    3.5729 C   0  0  0  0  0  0  0  0  0  0  0  0
  -90.0233   25.8367    4.5952 C   0  0  0  0  0  0  0  0  0  0  0  0
  -89.9824   27.2067    4.6354 C   0  0  0  0  0  0  0  0  0  0  0  0
  -89.3247   27.9049    3.6414 C   0  0  0  0  0  0  0  0  0  0  0  0
  -88.7206   27.2151    2.6243 C   0  0  0  0  0  0  0  0  0  0  0  0
  -88.7804   25.8100    2.6123 C   0  0  0  0  0  0  0  0  0  0  0  0
  -90.4940   21.3851    3.3814 C   0  0  0  0  0  0  0  0  0  0  0  0
  -90.6066   22.8745    3.2405 C   0  0  0  0  0  0  0  0  0  0  0  0
  -91.7007   23.2737    2.7777 O   0  0  0  0  0  0  0  0  0  0  0  0
  -89.5178   23.6685    3.6242 N   0  0  0  0  0  0  0  0  0  0  0  0
  -88.6724   23.1272    3.9967 H   0  0  0  0  0  0  0  0  0  0  0  0
 29 30  1  0  0  0
 30 31  2  0  0  0
 30 32  1  0  0  0
 32 23  1  0  0  0
 23 24  2  0  0  0
 24 25  1  0  0  0
 25 26  2  0  0  0
 26 27  1  0  0  0
 27 21  1  0  0  0
 21  1  1  0  0  0
  1  2  1  0  0  0
  2  3  2  0  0  0
  3  4  1  0  0  0
  4  5  2  0  0  0
  5  6  1  0  0  0
  6  7  2  0  0  0
  7 10  1  0  0  0
 10 11  2  0  0  0
 11 12  1  0  0  0
 12 13  2  0  0  0
 13 14  1  0  0  0
 14 16  1  0  0  0
 16 17  1  0  0  0
 17 18  1  0  0  0
 17 19  2  0  0  0
 14 15  2  0  0  0
  7  8  1  0  0  0
  8  9  1  0  0  0
 27 28  2  0  0  0
 28 23  1  0  0  0
  9  1  2  0  0  0
  8  4  1  0  0  0
 15 10  1  0  0  0
 32 33  1  0  0  0
 21 22  1  0  0  0
 16 20  1  0  0  0
M  END
> <minimizedAffinity>
-9.50147

> <CNNscore>
0.4400974810

> <CNNaffinity>
6.6745400429

> <CNN_VS>
2.9374482632

> <CNNaffinity_variance>
0.0211198535

$$$$
[H]c1nc2c([H])c([H])c(N([H])c3c([H])c([H])c([H])c(N([H])C(=O)C([H])([H])[H])c3[H])nn2c1-c1c([H])c([H])c([H])c(N([H])C(=O)C([H])([H])[H])c1[H]


 33 36  0  0  0  0  0  0  0  0999 V2000
  -84.7186   31.8749    0.4886 C   0  0  0  0  0  0  0  0  0  0  0  0
  -83.4028   31.7770    0.8514 C   0  0  0  0  0  0  0  0  0  0  0  0
  -82.8582   30.6400    1.4483 C   0  0  0  0  0  0  0  0  0  0  0  0
  -83.7320   29.5667    1.6698 C   0  0  0  0  0  0  0  0  0  0  0  0
  -83.5625   28.3579    2.2030 N   0  0  0  0  0  0  0  0  0  0  0  0
  -84.7404   27.7198    2.1723 C   0  0  0  0  0  0  0  0  0  0  0  0
  -85.6931   28.5336    1.6066 C   0  0  0  0  0  0  0  0  0  0  0  0
  -85.0197   29.6822    1.3054 N   0  0  0  0  0  0  0  0  0  0  0  0
  -85.4804   30.7782    0.7465 N   0  0  0  0  0  0  0  0  0  0  0  0
  -87.1035   28.2131    1.3887 C   0  0  0  0  0  0  0  0  0  0  0  0
  -87.8207   27.2945    2.0794 C   0  0  0  0  0  0  0  0  0  0  0  0
  -89.1724   27.0780    1.7746 C   0  0  0  0  0  0  0  0  0  0  0  0
  -89.7913   27.7832    0.7817 C   0  0  0  0  0  0  0  0  0  0  0  0
  -89.0707   28.7500    0.0406 C   0  0  0  0  0  0  0  0  0  0  0  0
  -87.7731   28.9209    0.3733 C   0  0  0  0  0  0  0  0  0  0  0  0
  -89.7548   29.4738   -0.9652 N   0  0  0  0  0  0  0  0  0  0  0  0
  -89.8411   29.0665   -2.2960 C   0  0  0  0  0  0  0  0  0  0  0  0
  -90.6102   29.9698   -3.2501 C   0  0  0  0  0  0  0  0  0  0  0  0
  -89.3714   28.0518   -2.8279 O   0  0  0  0  0  0  0  0  0  0  0  0
  -90.2396   30.3968   -0.6956 H   0  0  0  0  0  0  0  0  0  0  0  0
  -85.3098   33.0253   -0.0892 N   0  0  0  0  0  0  0  0  0  0  0  0
  -84.8703   33.9814    0.1365 H   0  0  0  0  0  0  0  0  0  0  0  0
  -87.3016   33.8585   -3.0839 C   0  0  0  0  0  0  0  0  0  0  0  0
  -88.5393   33.3395   -2.6623 C   0  0  0  0  0  0  0  0  0  0  0  0
  -88.7168   32.7305   -1.4467 C   0  0  0  0  0  0  0  0  0  0  0  0
  -87.6509   32.6069   -0.5768 C   0  0  0  0  0  0  0  0  0  0  0  0
  -86.4260   33.0978   -0.9427 C   0  0  0  0  0  0  0  0  0  0  0  0
  -86.2768   33.7167   -2.1969 C   0  0  0  0  0  0  0  0  0  0  0  0
  -87.3171   36.2464   -6.1121 C   0  0  0  0  0  0  0  0  0  0  0  0
  -87.4578   35.8137   -4.6825 C   0  0  0  0  0  0  0  0  0  0  0  0
  -87.7820   36.7287   -3.8898 O   0  0  0  0  0  0  0  0  0  0  0  0
  -87.2236   34.4699   -4.3625 N   0  0  0  0  0  0  0  0  0  0  0  0
  -86.9557   33.8477   -5.1917 H   0  0  0  0  0  0  0  0  0  0  0  0
 29 30  1  0  0  0
 30 31  2  0  0  0
 30 32  1  0  0  0
 32 23  1  0  0  0
 23 24  2  0  0  0
 24 25  1  0  0  0
 25 26  2  0  0  0
 26 27  1  0  0  0
 27 21  1  0  0  0
 21  1  1  0  0  0
  1  2  1  0  0  0
  2  3  2  0  0  0
  3  4  1  0  0  0
  4  5  2  0  0  0
  5  6  1  0  0  0
  6  7  2  0  0  0
  7 10  1  0  0  0
 10 11  2  0  0  0
 11 12  1  0  0  0
 12 13  2  0  0  0
 13 14  1  0  0  0
 14 16  1  0  0  0
 16 17  1  0  0  0
 17 18  1  0  0  0
 17 19  2  0  0  0
 14 15  2  0  0  0
  7  8  1  0  0  0
  8  9  1  0  0  0
 27 28  2  0  0  0
 28 23  1  0  0  0
  9  1  2  0  0  0
  8  4  1  0  0  0
 15 10  1  0  0  0
 32 33  1  0  0  0
 21 22  1  0  0  0
 16 20  1  0  0  0
M  END
> <minimizedAffinity>
-9.55171

> <CNNscore>
0.3603557348

> <CNNaffinity>
6.8543634415

> <CNN_VS>
2.4700090885

> <CNNaffinity_variance>
0.1050805449

$$$$
[H]c1c([H])c([H])c(C([H])(N([H])C(=O)c2c([H])c([H])c(Cl)c(N([H])C(=O)c3c([H])c4c([H])nc(OC([H])([H])[H])nc4n([H])c3=O)c2[H])C([H])([H])C([H])([H])N([H])[H])c([H])c1[H]


 41 44  0  0  0  0  0  0  0  0999 V2000
  -85.4733   31.1671    0.1162 C   0  0  0  0  0  0  0  0  0  0  0  0
  -85.9655   29.9654    0.5384 C   0  0  0  0  0  0  0  0  0  0  0  0
  -85.1965   29.0450    1.2433 C   0  0  0  0  0  0  0  0  0  0  0  0
  -83.8741   29.3382    1.5403 C   0  0  0  0  0  0  0  0  0  0  0  0
  -83.3695   30.5273    1.1283 C   0  0  0  0  0  0  0  0  0  0  0  0
  -84.1215   31.4420    0.4320 C   0  0  0  0  0  0  0  0  0  0  0  0
  -83.3894   32.9397   -0.0540 Cl  0  0  0  0  0  0  0  0  0  0  0  0
  -87.0509   31.9669   -1.6476 C   0  0  0  0  0  0  0  0  0  0  0  0
  -87.3551   30.8654   -2.1103 O   0  0  0  0  0  0  0  0  0  0  0  0
  -86.1618   32.1570   -0.5923 N   0  0  0  0  0  0  0  0  0  0  0  0
  -86.0102   33.1989   -0.3148 H   0  0  0  0  0  0  0  0  0  0  0  0
  -88.8479   37.2366   -4.8560 C   0  0  0  0  0  0  0  0  0  0  0  0
  -87.5276   37.0204   -5.0121 N   0  0  0  0  0  0  0  0  0  0  0  0
  -86.8726   35.9862   -4.4541 C   0  0  0  0  0  0  0  0  0  0  0  0
  -87.5909   35.0915   -3.6751 C   0  0  0  0  0  0  0  0  0  0  0  0
  -86.9857   34.0114   -3.0723 C   0  0  0  0  0  0  0  0  0  0  0  0
  -87.7078   33.1295   -2.2995 C   0  0  0  0  0  0  0  0  0  0  0  0
  -89.0571   33.3672   -2.1519 C   0  0  0  0  0  0  0  0  0  0  0  0
  -89.7572   32.6011   -1.4639 O   0  0  0  0  0  0  0  0  0  0  0  0
  -89.6426   34.4401   -2.7543 N   0  0  0  0  0  0  0  0  0  0  0  0
  -88.9422   35.3027   -3.5086 C   0  0  0  0  0  0  0  0  0  0  0  0
  -89.5259   36.3606   -4.0992 N   0  0  0  0  0  0  0  0  0  0  0  0
  -90.6712   34.5741   -2.6094 H   0  0  0  0  0  0  0  0  0  0  0  0
  -88.7082   39.5014   -5.7111 C   0  0  0  0  0  0  0  0  0  0  0  0
  -89.4596   38.3351   -5.4682 O   0  0  0  0  0  0  0  0  0  0  0  0
  -85.8009   27.7993    1.6593 C   0  0  0  0  0  0  0  0  0  0  0  0
  -85.0888   26.9755    2.2927 O   0  0  0  0  0  0  0  0  0  0  0  0
  -87.1319   27.4825    1.3873 N   0  0  0  0  0  0  0  0  0  0  0  0
  -87.7474   28.1338    0.8772 H   0  0  0  0  0  0  0  0  0  0  0  0
  -87.7281   26.2063    1.8202 C   0  0  0  0  0  0  0  0  0  0  0  0
  -88.6646   26.4242    2.9394 C   0  0  0  0  0  0  0  0  0  0  0  0
  -89.1768   27.6842    3.1369 C   0  0  0  0  0  0  0  0  0  0  0  0
  -90.0673   27.9051    4.1957 C   0  0  0  0  0  0  0  0  0  0  0  0
  -90.4225   26.8605    5.0294 C   0  0  0  0  0  0  0  0  0  0  0  0
  -89.8837   25.6103    4.7942 C   0  0  0  0  0  0  0  0  0  0  0  0
  -88.9993   25.3740    3.7487 C   0  0  0  0  0  0  0  0  0  0  0  0
  -88.5094   25.6566    0.6523 C   0  0  0  0  0  0  0  0  0  0  0  0
  -88.5179   26.6432   -0.5141 C   0  0  0  0  0  0  0  0  0  0  0  0
  -87.5608   26.2073   -1.5143 N   0  0  0  0  0  0  0  0  0  0  0  0
  -87.8641   26.4198   -2.4929 H   0  0  0  0  0  0  0  0  0  0  0  0
  -86.6256   26.6310   -1.3260 H   0  0  0  0  0  0  0  0  0  0  0  0
 24 25  1  0  0  0
 25 12  1  0  0  0
 12 13  2  0  0  0
 13 14  1  0  0  0
 14 15  2  0  0  0
 15 16  1  0  0  0
 16 17  2  0  0  0
 17  8  1  0  0  0
  8  9  2  0  0  0
  8 10  1  0  0  0
 10  1  1  0  0  0
  1  2  2  0  0  0
  2  3  1  0  0  0
  3  4  2  0  0  0
  4  5  1  0  0  0
  5  6  2  0  0  0
  6  7  1  0  0  0
  3 26  1  0  0  0
 26 27  2  0  0  0
 26 28  1  0  0  0
 28 30  1  0  0  0
 30 37  1  0  0  0
 37 38  1  0  0  0
 38 39  1  0  0  0
 30 31  1  0  0  0
 31 32  2  0  0  0
 32 33  1  0  0  0
 33 34  2  0  0  0
 34 35  1  0  0  0
 35 36  2  0  0  0
 17 18  1  0  0  0
 18 19  2  0  0  0
 18 20  1  0  0  0
 20 21  1  0  0  0
 21 22  2  0  0  0
 22 12  1  0  0  0
 21 15  1  0  0  0
  6  1  1  0  0  0
 36 31  1  0  0  0
 10 11  1  0  0  0
 28 29  1  0  0  0
 39 40  1  0  0  0
 39 41  1  0  0  0
 20 23  1  0  0  0
M  END
> <minimizedAffinity>
-9.73407

> <CNNscore>
0.6784223914

> <CNNaffinity>
7.4672060013

> <CNN_VS>
5.0659198761

> <CNNaffinity_variance>
0.0471544899

$$$$
[H]c1c([H])c([H])c(C([H])(N([H])C(=O)c2c([H])c([H])c(Cl)c(N([H])C(=O)c3c([H])c4c([H])nc(OC([H])([H])[H])nc4n([H])c3=O)c2[H])C([H])([H])C([H])([H])N([H])[H])c([H])c1[H]


 41 44  0  0  0  0  0  0  0  0999 V2000
  -86.2975   31.3228   -0.5435 C   0  0  0  0  0  0  0  0  0  0  0  0
  -86.5922   30.0964   -0.0205 C   0  0  0  0  0  0  0  0  0  0  0  0
  -85.9069   29.5583    1.0641 C   0  0  0  0  0  0  0  0  0  0  0  0
  -84.8791   30.2785    1.6538 C   0  0  0  0  0  0  0  0  0  0  0  0
  -84.5734   31.4983    1.1466 C   0  0  0  0  0  0  0  0  0  0  0  0
  -85.2447   32.0372    0.0763 C   0  0  0  0  0  0  0  0  0  0  0  0
  -84.7833   33.6074   -0.5042 Cl  0  0  0  0  0  0  0  0  0  0  0  0
  -88.1676   32.5806   -1.6202 C   0  0  0  0  0  0  0  0  0  0  0  0
  -88.8994   32.6687   -0.6319 O   0  0  0  0  0  0  0  0  0  0  0  0
  -86.9255   31.9504   -1.6240 N   0  0  0  0  0  0  0  0  0  0  0  0
  -86.4163   31.9669   -2.5863 H   0  0  0  0  0  0  0  0  0  0  0  0
  -90.5530   36.2323   -6.3392 C   0  0  0  0  0  0  0  0  0  0  0  0
  -90.4161   36.9551   -5.2110 N   0  0  0  0  0  0  0  0  0  0  0  0
  -89.9374   36.4515   -4.0590 C   0  0  0  0  0  0  0  0  0  0  0  0
  -89.5634   35.1165   -4.0258 C   0  0  0  0  0  0  0  0  0  0  0  0
  -89.0670   34.5340   -2.8811 C   0  0  0  0  0  0  0  0  0  0  0  0
  -88.6998   33.2070   -2.8583 C   0  0  0  0  0  0  0  0  0  0  0  0
  -88.8469   32.4840   -4.0222 C   0  0  0  0  0  0  0  0  0  0  0  0
  -88.5301   31.2804   -4.0571 O   0  0  0  0  0  0  0  0  0  0  0  0
  -89.3395   33.0737   -5.1476 N   0  0  0  0  0  0  0  0  0  0  0  0
  -89.6991   34.3674   -5.1742 C   0  0  0  0  0  0  0  0  0  0  0  0
  -90.1860   34.9429   -6.2879 N   0  0  0  0  0  0  0  0  0  0  0  0
  -89.4307   32.4787   -6.0047 H   0  0  0  0  0  0  0  0  0  0  0  0
  -91.0096   36.1206   -8.7180 C   0  0  0  0  0  0  0  0  0  0  0  0
  -91.0588   36.8261   -7.5000 O   0  0  0  0  0  0  0  0  0  0  0  0
  -86.2906   28.2553    1.5592 C   0  0  0  0  0  0  0  0  0  0  0  0
  -85.4749   27.6334    2.2904 O   0  0  0  0  0  0  0  0  0  0  0  0
  -87.5208   27.6701    1.2589 N   0  0  0  0  0  0  0  0  0  0  0  0
  -88.2167   28.1511    0.6693 H   0  0  0  0  0  0  0  0  0  0  0  0
  -87.8917   26.3401    1.7738 C   0  0  0  0  0  0  0  0  0  0  0  0
  -88.7602   26.4665    2.9599 C   0  0  0  0  0  0  0  0  0  0  0  0
  -89.2995   27.6953    3.2564 C   0  0  0  0  0  0  0  0  0  0  0  0
  -90.1261   27.8295    4.3796 C   0  0  0  0  0  0  0  0  0  0  0  0
  -90.3920   26.7314    5.1771 C   0  0  0  0  0  0  0  0  0  0  0  0
  -89.8288   25.5152    4.8420 C   0  0  0  0  0  0  0  0  0  0  0  0
  -89.0070   25.3648    3.7315 C   0  0  0  0  0  0  0  0  0  0  0  0
  -88.6741   25.6411    0.6894 C   0  0  0  0  0  0  0  0  0  0  0  0
  -88.7077   26.4781   -0.5881 C   0  0  0  0  0  0  0  0  0  0  0  0
  -87.6971   25.9871   -1.5067 N   0  0  0  0  0  0  0  0  0  0  0  0
  -87.9836   26.0610   -2.5103 H   0  0  0  0  0  0  0  0  0  0  0  0
  -86.7951   26.4889   -1.3508 H   0  0  0  0  0  0  0  0  0  0  0  0
 24 25  1  0  0  0
 25 12  1  0  0  0
 12 13  2  0  0  0
 13 14  1  0  0  0
 14 15  2  0  0  0
 15 16  1  0  0  0
 16 17  2  0  0  0
 17  8  1  0  0  0
  8  9  2  0  0  0
  8 10  1  0  0  0
 10  1  1  0  0  0
  1  2  2  0  0  0
  2  3  1  0  0  0
  3  4  2  0  0  0
  4  5  1  0  0  0
  5  6  2  0  0  0
  6  7  1  0  0  0
  3 26  1  0  0  0
 26 27  2  0  0  0
 26 28  1  0  0  0
 28 30  1  0  0  0
 30 37  1  0  0  0
 37 38  1  0  0  0
 38 39  1  0  0  0
 30 31  1  0  0  0
 31 32  2  0  0  0
 32 33  1  0  0  0
 33 34  2  0  0  0
 34 35  1  0  0  0
 35 36  2  0  0  0
 17 18  1  0  0  0
 18 19  2  0  0  0
 18 20  1  0  0  0
 20 21  1  0  0  0
 21 22  2  0  0  0
 22 12  1  0  0  0
 21 15  1  0  0  0
  6  1  1  0  0  0
 36 31  1  0  0  0
 10 11  1  0  0  0
 28 29  1  0  0  0
 39 40  1  0  0  0
 39 41  1  0  0  0
 20 23  1  0  0  0
M  END
> <minimizedAffinity>
-9.00681

> <CNNscore>
0.4239479601

> <CNNaffinity>
7.0330734253

> <CNN_VS>
2.9816570282

> <CNNaffinity_variance>
0.0872920901

$$$$
[H]c1c([H])c([H])c(C([H])(N([H])C(=O)c2c([H])c([H])c(Cl)c(N([H])C(=O)c3c([H])c4c([H])nc(OC([H])([H])[H])nc4n([H])c3=O)c2[H])C([H])([H])C([H])([H])N([H])[H])c([H])c1[H]


 41 44  0  0  0  0  0  0  0  0999 V2000
  -86.0644   31.1238   -0.5100 C   0  0  0  0  0  0  0  0  0  0  0  0
  -86.5695   29.9021   -0.1682 C   0  0  0  0  0  0  0  0  0  0  0  0
  -86.1191   29.1856    0.9360 C   0  0  0  0  0  0  0  0  0  0  0  0
  -85.1172   29.7138    1.7362 C   0  0  0  0  0  0  0  0  0  0  0  0
  -84.6045   30.9260    1.4108 C   0  0  0  0  0  0  0  0  0  0  0  0
  -85.0432   31.6403    0.3227 C   0  0  0  0  0  0  0  0  0  0  0  0
  -84.3272   33.1858   -0.0156 Cl  0  0  0  0  0  0  0  0  0  0  0  0
  -87.5303   32.7978   -1.6448 C   0  0  0  0  0  0  0  0  0  0  0  0
  -88.3150   32.9900   -0.7135 O   0  0  0  0  0  0  0  0  0  0  0  0
  -86.4492   31.9211   -1.5925 N   0  0  0  0  0  0  0  0  0  0  0  0
  -85.8622   31.8766   -2.5085 H   0  0  0  0  0  0  0  0  0  0  0  0
  -88.2821   37.0610   -6.3939 C   0  0  0  0  0  0  0  0  0  0  0  0
  -87.7021   37.6448   -5.3276 N   0  0  0  0  0  0  0  0  0  0  0  0
  -87.4198   36.9928   -4.1851 C   0  0  0  0  0  0  0  0  0  0  0  0
  -87.7415   35.6468   -4.0951 C   0  0  0  0  0  0  0  0  0  0  0  0
  -87.4829   34.9172   -2.9563 C   0  0  0  0  0  0  0  0  0  0  0  0
  -87.8076   33.5813   -2.8767 C   0  0  0  0  0  0  0  0  0  0  0  0
  -88.4000   33.0018   -3.9777 C   0  0  0  0  0  0  0  0  0  0  0  0
  -88.7139   31.7971   -3.9595 O   0  0  0  0  0  0  0  0  0  0  0  0
  -88.6498   33.7361   -5.0980 N   0  0  0  0  0  0  0  0  0  0  0  0
  -88.3351   35.0391   -5.1799 C   0  0  0  0  0  0  0  0  0  0  0  0
  -88.5858   35.7585   -6.2882 N   0  0  0  0  0  0  0  0  0  0  0  0
  -89.1017   33.2464   -5.9061 H   0  0  0  0  0  0  0  0  0  0  0  0
  -87.4757   38.2085   -8.3719 C   0  0  0  0  0  0  0  0  0  0  0  0
  -88.5448   37.8046   -7.5487 O   0  0  0  0  0  0  0  0  0  0  0  0
  -86.7160   27.9021    1.2297 C   0  0  0  0  0  0  0  0  0  0  0  0
  -86.0111   27.0393    1.8176 O   0  0  0  0  0  0  0  0  0  0  0  0
  -88.0324   27.5903    0.8891 N   0  0  0  0  0  0  0  0  0  0  0  0
  -88.6418   28.2724    0.4133 H   0  0  0  0  0  0  0  0  0  0  0  0
  -88.6211   26.2750    1.1974 C   0  0  0  0  0  0  0  0  0  0  0  0
  -89.3667   26.3257    2.4697 C   0  0  0  0  0  0  0  0  0  0  0  0
  -89.9238   25.1672    2.9559 C   0  0  0  0  0  0  0  0  0  0  0  0
  -90.6341   25.2010    4.1631 C   0  0  0  0  0  0  0  0  0  0  0  0
  -90.7688   26.3921    4.8526 C   0  0  0  0  0  0  0  0  0  0  0  0
  -90.1926   27.5325    4.3273 C   0  0  0  0  0  0  0  0  0  0  0  0
  -89.4848   27.5165    3.1315 C   0  0  0  0  0  0  0  0  0  0  0  0
  -89.5959   25.9493    0.0927 C   0  0  0  0  0  0  0  0  0  0  0  0
  -88.8612   25.5837   -1.1959 C   0  0  0  0  0  0  0  0  0  0  0  0
  -89.5013   26.2500   -2.3151 N   0  0  0  0  0  0  0  0  0  0  0  0
  -88.8274   26.5362   -3.0626 H   0  0  0  0  0  0  0  0  0  0  0  0
  -90.2486   25.6416   -2.7164 H   0  0  0  0  0  0  0  0  0  0  0  0
 24 25  1  0  0  0
 25 12  1  0  0  0
 12 13  2  0  0  0
 13 14  1  0  0  0
 14 15  2  0  0  0
 15 16  1  0  0  0
 16 17  2  0  0  0
 17  8  1  0  0  0
  8  9  2  0  0  0
  8 10  1  0  0  0
 10  1  1  0  0  0
  1  2  2  0  0  0
  2  3  1  0  0  0
  3  4  2  0  0  0
  4  5  1  0  0  0
  5  6  2  0  0  0
  6  7  1  0  0  0
  3 26  1  0  0  0
 26 27  2  0  0  0
 26 28  1  0  0  0
 28 30  1  0  0  0
 30 37  1  0  0  0
 37 38  1  0  0  0
 38 39  1  0  0  0
 30 31  1  0  0  0
 31 32  2  0  0  0
 32 33  1  0  0  0
 33 34  2  0  0  0
 34 35  1  0  0  0
 35 36  2  0  0  0
 17 18  1  0  0  0
 18 19  2  0  0  0
 18 20  1  0  0  0
 20 21  1  0  0  0
 21 22  2  0  0  0
 22 12  1  0  0  0
 21 15  1  0  0  0
  6  1  1  0  0  0
 36 31  1  0  0  0
 10 11  1  0  0  0
 28 29  1  0  0  0
 39 40  1  0  0  0
 39 41  1  0  0  0
 20 23  1  0  0  0
M  END
> <minimizedAffinity>
-8.42075

> <CNNscore>
0.3640235066

> <CNNaffinity>
7.0359392166

> <CNN_VS>
2.5612473488

> <CNNaffinity_variance>
0.0826664269

$$$$
[H]c1c([H])c([H])c(C([H])(N([H])C(=O)c2c([H])c([H])c(Cl)c(N([H])C(=O)c3c([H])c4c([H])nc(OC([H])([H])[H])nc4n([H])c3=O)c2[H])C([H])([H])C([H])([H])N([H])[H])c([H])c1[H]


 41 44  0  0  0  0  0  0  0  0999 V2000
  -86.3745   31.4334   -0.5685 C   0  0  0  0  0  0  0  0  0  0  0  0
  -86.6390   30.1983   -0.0497 C   0  0  0  0  0  0  0  0  0  0  0  0
  -85.9019   29.6491    0.9946 C   0  0  0  0  0  0  0  0  0  0  0  0
  -84.8514   30.3668    1.5465 C   0  0  0  0  0  0  0  0  0  0  0  0
  -84.5753   31.5950    1.0428 C   0  0  0  0  0  0  0  0  0  0  0  0
  -85.2978   32.1449    0.0121 C   0  0  0  0  0  0  0  0  0  0  0  0
  -84.8710   33.7254   -0.5670 Cl  0  0  0  0  0  0  0  0  0  0  0  0
  -88.3361   32.6164   -1.5644 C   0  0  0  0  0  0  0  0  0  0  0  0
  -89.0615   32.6036   -0.5676 O   0  0  0  0  0  0  0  0  0  0  0  0
  -87.0546   32.0723   -1.6101 N   0  0  0  0  0  0  0  0  0  0  0  0
  -86.5580   32.1730   -2.5738 H   0  0  0  0  0  0  0  0  0  0  0  0
  -91.5837   34.5479   -6.7620 C   0  0  0  0  0  0  0  0  0  0  0  0
  -92.0937   33.3927   -6.2933 N   0  0  0  0  0  0  0  0  0  0  0  0
  -91.6142   32.7533   -5.2111 C   0  0  0  0  0  0  0  0  0  0  0  0
  -90.5365   33.3093   -4.5382 C   0  0  0  0  0  0  0  0  0  0  0  0
  -89.9932   32.7090   -3.4243 C   0  0  0  0  0  0  0  0  0  0  0  0
  -88.9221   33.2687   -2.7641 C   0  0  0  0  0  0  0  0  0  0  0  0
  -88.4145   34.4506   -3.2585 C   0  0  0  0  0  0  0  0  0  0  0  0
  -87.4467   34.9997   -2.6998 O   0  0  0  0  0  0  0  0  0  0  0  0
  -88.9623   35.0333   -4.3617 N   0  0  0  0  0  0  0  0  0  0  0  0
  -90.0067   34.4909   -5.0087 C   0  0  0  0  0  0  0  0  0  0  0  0
  -90.5417   35.0705   -6.0980 N   0  0  0  0  0  0  0  0  0  0  0  0
  -88.5381   35.9310   -4.6952 H   0  0  0  0  0  0  0  0  0  0  0  0
  -93.1619   34.4980   -8.6023 C   0  0  0  0  0  0  0  0  0  0  0  0
  -92.1366   35.1546   -7.8943 O   0  0  0  0  0  0  0  0  0  0  0  0
  -86.2561   28.3374    1.4886 C   0  0  0  0  0  0  0  0  0  0  0  0
  -85.3991   27.7036    2.1598 O   0  0  0  0  0  0  0  0  0  0  0  0
  -87.5020   27.7565    1.2508 N   0  0  0  0  0  0  0  0  0  0  0  0
  -88.2311   28.2471    0.7115 H   0  0  0  0  0  0  0  0  0  0  0  0
  -87.8423   26.4174    1.7633 C   0  0  0  0  0  0  0  0  0  0  0  0
  -88.8338   26.5150    2.8517 C   0  0  0  0  0  0  0  0  0  0  0  0
  -89.1394   25.3843    3.5708 C   0  0  0  0  0  0  0  0  0  0  0  0
  -90.0788   25.4628    4.6072 C   0  0  0  0  0  0  0  0  0  0  0  0
  -90.6882   26.6697    4.8977 C   0  0  0  0  0  0  0  0  0  0  0  0
  -90.3511   27.7810    4.1494 C   0  0  0  0  0  0  0  0  0  0  0  0
  -89.4214   27.7206    3.1182 C   0  0  0  0  0  0  0  0  0  0  0  0
  -88.4656   25.6464    0.6259 C   0  0  0  0  0  0  0  0  0  0  0  0
  -88.6219   26.5275   -0.6123 C   0  0  0  0  0  0  0  0  0  0  0  0
  -87.5535   26.2288   -1.5481 N   0  0  0  0  0  0  0  0  0  0  0  0
  -87.8501   26.3067   -2.5484 H   0  0  0  0  0  0  0  0  0  0  0  0
  -86.7324   26.8470   -1.3657 H   0  0  0  0  0  0  0  0  0  0  0  0
 24 25  1  0  0  0
 25 12  1  0  0  0
 12 13  2  0  0  0
 13 14  1  0  0  0
 14 15  2  0  0  0
 15 16  1  0  0  0
 16 17  2  0  0  0
 17  8  1  0  0  0
  8  9  2  0  0  0
  8 10  1  0  0  0
 10  1  1  0  0  0
  1  2  2  0  0  0
  2  3  1  0  0  0
  3  4  2  0  0  0
  4  5  1  0  0  0
  5  6  2  0  0  0
  6  7  1  0  0  0
  3 26  1  0  0  0
 26 27  2  0  0  0
 26 28  1  0  0  0
 28 30  1  0  0  0
 30 37  1  0  0  0
 37 38  1  0  0  0
 38 39  1  0  0  0
 30 31  1  0  0  0
 31 32  2  0  0  0
 32 33  1  0  0  0
 33 34  2  0  0  0
 34 35  1  0  0  0
 35 36  2  0  0  0
 17 18  1  0  0  0
 18 19  2  0  0  0
 18 20  1  0  0  0
 20 21  1  0  0  0
 21 22  2  0  0  0
 22 12  1  0  0  0
 21 15  1  0  0  0
  6  1  1  0  0  0
 36 31  1  0  0  0
 10 11  1  0  0  0
 28 29  1  0  0  0
 39 40  1  0  0  0
 39 41  1  0  0  0
 20 23  1  0  0  0
M  END
> <minimizedAffinity>
-8.72780

> <CNNscore>
0.2078163624

> <CNNaffinity>
6.7913269997

> <CNN_VS>
1.4113488197

> <CNNaffinity_variance>
0.0887898952

$$$$
[H]c1c([H])c([H])c(C([H])(N([H])C(=O)c2c([H])c([H])c(Cl)c(N([H])C(=O)c3c([H])c4c([H])nc(OC([H])([H])[H])nc4n([H])c3=O)c2[H])C([H])([H])C([H])([H])N([H])[H])c([H])c1[H]


 41 44  0  0  0  0  0  0  0  0999 V2000
  -86.8740   28.7443   -0.0085 C   0  0  0  0  0  0  0  0  0  0  0  0
  -87.8308   27.7702   -0.0215 C   0  0  0  0  0  0  0  0  0  0  0  0
  -87.8010   26.6769    0.8383 C   0  0  0  0  0  0  0  0  0  0  0  0
  -86.7671   26.5502    1.7538 C   0  0  0  0  0  0  0  0  0  0  0  0
  -85.8085   27.5088    1.7798 C   0  0  0  0  0  0  0  0  0  0  0  0
  -85.8301   28.5915    0.9349 C   0  0  0  0  0  0  0  0  0  0  0  0
  -84.5588   29.7696    1.0417 Cl  0  0  0  0  0  0  0  0  0  0  0  0
  -87.7318   30.9264   -0.8696 C   0  0  0  0  0  0  0  0  0  0  0  0
  -88.7472   30.9922   -0.1735 O   0  0  0  0  0  0  0  0  0  0  0  0
  -86.8156   29.8782   -0.8249 N   0  0  0  0  0  0  0  0  0  0  0  0
  -85.9768   29.9851   -1.5110 H   0  0  0  0  0  0  0  0  0  0  0  0
  -87.7785   35.4806   -5.4029 C   0  0  0  0  0  0  0  0  0  0  0  0
  -88.8240   34.6472   -5.5652 N   0  0  0  0  0  0  0  0  0  0  0  0
  -89.0703   33.5979   -4.7600 C   0  0  0  0  0  0  0  0  0  0  0  0
  -88.2038   33.3568   -3.7044 C   0  0  0  0  0  0  0  0  0  0  0  0
  -88.3933   32.3007   -2.8414 C   0  0  0  0  0  0  0  0  0  0  0  0
  -87.5261   32.0693   -1.7970 C   0  0  0  0  0  0  0  0  0  0  0  0
  -86.4628   32.9328   -1.6471 C   0  0  0  0  0  0  0  0  0  0  0  0
  -85.6485   32.7696   -0.7194 O   0  0  0  0  0  0  0  0  0  0  0  0
  -86.2877   33.9738   -2.5087 N   0  0  0  0  0  0  0  0  0  0  0  0
  -87.1308   34.2031   -3.5286 C   0  0  0  0  0  0  0  0  0  0  0  0
  -86.9514   35.2316   -4.3763 N   0  0  0  0  0  0  0  0  0  0  0  0
  -85.4632   34.5998   -2.3493 H   0  0  0  0  0  0  0  0  0  0  0  0
  -88.6537   36.9785   -7.0970 C   0  0  0  0  0  0  0  0  0  0  0  0
  -87.5876   36.5517   -6.2816 O   0  0  0  0  0  0  0  0  0  0  0  0
  -88.8603   25.6960    0.7619 C   0  0  0  0  0  0  0  0  0  0  0  0
  -89.5915   25.5309    1.7743 O   0  0  0  0  0  0  0  0  0  0  0  0
  -89.0985   24.9353   -0.3829 N   0  0  0  0  0  0  0  0  0  0  0  0
  -88.5254   25.0469   -1.2328 H   0  0  0  0  0  0  0  0  0  0  0  0
  -90.1837   23.9400   -0.4392 C   0  0  0  0  0  0  0  0  0  0  0  0
  -91.0880   24.2217   -1.5707 C   0  0  0  0  0  0  0  0  0  0  0  0
  -91.7669   23.1768   -2.1502 C   0  0  0  0  0  0  0  0  0  0  0  0
  -92.6290   23.4302   -3.2252 C   0  0  0  0  0  0  0  0  0  0  0  0
  -92.7898   24.7218   -3.6926 C   0  0  0  0  0  0  0  0  0  0  0  0
  -92.0876   25.7419   -3.0803 C   0  0  0  0  0  0  0  0  0  0  0  0
  -91.2288   25.5080   -2.0131 C   0  0  0  0  0  0  0  0  0  0  0  0
  -89.5456   22.5924   -0.6702 C   0  0  0  0  0  0  0  0  0  0  0  0
  -89.7805   21.6638    0.5198 C   0  0  0  0  0  0  0  0  0  0  0  0
  -90.1115   22.4596    1.6875 N   0  0  0  0  0  0  0  0  0  0  0  0
  -90.7972   21.9903    2.3234 H   0  0  0  0  0  0  0  0  0  0  0  0
  -89.2435   22.7070    2.2120 H   0  0  0  0  0  0  0  0  0  0  0  0
 24 25  1  0  0  0
 25 12  1  0  0  0
 12 13  2  0  0  0
 13 14  1  0  0  0
 14 15  2  0  0  0
 15 16  1  0  0  0
 16 17  2  0  0  0
 17  8  1  0  0  0
  8  9  2  0  0  0
  8 10  1  0  0  0
 10  1  1  0  0  0
  1  2  2  0  0  0
  2  3  1  0  0  0
  3  4  2  0  0  0
  4  5  1  0  0  0
  5  6  2  0  0  0
  6  7  1  0  0  0
  3 26  1  0  0  0
 26 27  2  0  0  0
 26 28  1  0  0  0
 28 30  1  0  0  0
 30 37  1  0  0  0
 37 38  1  0  0  0
 38 39  1  0  0  0
 30 31  1  0  0  0
 31 32  2  0  0  0
 32 33  1  0  0  0
 33 34  2  0  0  0
 34 35  1  0  0  0
 35 36  2  0  0  0
 17 18  1  0  0  0
 18 19  2  0  0  0
 18 20  1  0  0  0
 20 21  1  0  0  0
 21 22  2  0  0  0
 22 12  1  0  0  0
 21 15  1  0  0  0
  6  1  1  0  0  0
 36 31  1  0  0  0
 10 11  1  0  0  0
 28 29  1  0  0  0
 39 40  1  0  0  0
 39 41  1  0  0  0
 20 23  1  0  0  0
M  END
> <minimizedAffinity>
-8.38286

> <CNNscore>
0.1449052244

> <CNNaffinity>
6.3512587547

> <CNN_VS>
0.9203305840

> <CNNaffinity_variance>
0.1073590890

$$$$
[H]c1c([H])c([H])c(C([H])(N([H])C(=O)c2c([H])c([H])c(Cl)c(N([H])C(=O)c3c([H])c4c([H])nc(OC([H])([H])[H])nc4n([H])c3=O)c2[H])C([H])([H])C([H])([H])N([H])[H])c([H])c1[H]


 41 44  0  0  0  0  0  0  0  0999 V2000
  -87.4542   29.5926   -0.6992 C   0  0  0  0  0  0  0  0  0  0  0  0
  -88.3476   28.5602   -0.7216 C   0  0  0  0  0  0  0  0  0  0  0  0
  -88.3558   27.5534    0.2385 C   0  0  0  0  0  0  0  0  0  0  0  0
  -87.4282   27.5786    1.2690 C   0  0  0  0  0  0  0  0  0  0  0  0
  -86.5337   28.5969    1.3060 C   0  0  0  0  0  0  0  0  0  0  0  0
  -86.5185   29.5950    0.3626 C   0  0  0  0  0  0  0  0  0  0  0  0
  -85.3353   30.8594    0.4921 Cl  0  0  0  0  0  0  0  0  0  0  0  0
  -88.0231   31.8754   -1.5384 C   0  0  0  0  0  0  0  0  0  0  0  0
  -88.7947   32.1980   -0.6326 O   0  0  0  0  0  0  0  0  0  0  0  0
  -87.3657   30.6495   -1.6108 N   0  0  0  0  0  0  0  0  0  0  0  0
  -86.7224   30.5353   -2.4818 H   0  0  0  0  0  0  0  0  0  0  0  0
  -88.2159   36.0604   -6.4110 C   0  0  0  0  0  0  0  0  0  0  0  0
  -89.3885   35.4056   -6.3091 N   0  0  0  0  0  0  0  0  0  0  0  0
  -89.6381   34.4686   -5.3765 C   0  0  0  0  0  0  0  0  0  0  0  0
  -88.6373   34.1562   -4.4686 C   0  0  0  0  0  0  0  0  0  0  0  0
  -88.8222   33.2068   -3.4885 C   0  0  0  0  0  0  0  0  0  0  0  0
  -87.8214   32.9031   -2.5927 C   0  0  0  0  0  0  0  0  0  0  0  0
  -86.6292   33.5837   -2.7128 C   0  0  0  0  0  0  0  0  0  0  0  0
  -85.6910   33.3482   -1.9289 O   0  0  0  0  0  0  0  0  0  0  0  0
  -86.4605   34.5208   -3.6876 N   0  0  0  0  0  0  0  0  0  0  0  0
  -87.4336   34.8200   -4.5634 C   0  0  0  0  0  0  0  0  0  0  0  0
  -87.2600   35.7449   -5.5241 N   0  0  0  0  0  0  0  0  0  0  0  0
  -85.5348   35.0085   -3.7342 H   0  0  0  0  0  0  0  0  0  0  0  0
  -86.9787   37.9523   -7.2884 C   0  0  0  0  0  0  0  0  0  0  0  0
  -88.0304   37.0232   -7.4082 O   0  0  0  0  0  0  0  0  0  0  0  0
  -89.3431   26.5017    0.1429 C   0  0  0  0  0  0  0  0  0  0  0  0
  -89.9850   26.1929    1.1819 O   0  0  0  0  0  0  0  0  0  0  0  0
  -89.6073   25.8255   -1.0483 N   0  0  0  0  0  0  0  0  0  0  0  0
  -89.1071   26.0546   -1.9203 H   0  0  0  0  0  0  0  0  0  0  0  0
  -90.6180   24.7557   -1.1235 C   0  0  0  0  0  0  0  0  0  0  0  0
  -91.5185   24.9724   -2.2722 C   0  0  0  0  0  0  0  0  0  0  0  0
  -92.3647   23.9574   -2.6495 C   0  0  0  0  0  0  0  0  0  0  0  0
  -93.2252   24.1498   -3.7383 C   0  0  0  0  0  0  0  0  0  0  0  0
  -93.2172   25.3522   -4.4214 C   0  0  0  0  0  0  0  0  0  0  0  0
  -92.3503   26.3452   -4.0079 C   0  0  0  0  0  0  0  0  0  0  0  0
  -91.4905   26.1709   -2.9302 C   0  0  0  0  0  0  0  0  0  0  0  0
  -89.8817   23.4568   -1.3406 C   0  0  0  0  0  0  0  0  0  0  0  0
  -89.8811   22.6085   -0.0700 C   0  0  0  0  0  0  0  0  0  0  0  0
  -88.7547   21.6942   -0.1076 N   0  0  0  0  0  0  0  0  0  0  0  0
  -88.3415   21.5125    0.8363 H   0  0  0  0  0  0  0  0  0  0  0  0
  -89.0359   20.7952   -0.5577 H   0  0  0  0  0  0  0  0  0  0  0  0
 24 25  1  0  0  0
 25 12  1  0  0  0
 12 13  2  0  0  0
 13 14  1  0  0  0
 14 15  2  0  0  0
 15 16  1  0  0  0
 16 17  2  0  0  0
 17  8  1  0  0  0
  8  9  2  0  0  0
  8 10  1  0  0  0
 10  1  1  0  0  0
  1  2  2  0  0  0
  2  3  1  0  0  0
  3  4  2  0  0  0
  4  5  1  0  0  0
  5  6  2  0  0  0
  6  7  1  0  0  0
  3 26  1  0  0  0
 26 27  2  0  0  0
 26 28  1  0  0  0
 28 30  1  0  0  0
 30 37  1  0  0  0
 37 38  1  0  0  0
 38 39  1  0  0  0
 30 31  1  0  0  0
 31 32  2  0  0  0
 32 33  1  0  0  0
 33 34  2  0  0  0
 34 35  1  0  0  0
 35 36  2  0  0  0
 17 18  1  0  0  0
 18 19  2  0  0  0
 18 20  1  0  0  0
 20 21  1  0  0  0
 21 22  2  0  0  0
 22 12  1  0  0  0
 21 15  1  0  0  0
  6  1  1  0  0  0
 36 31  1  0  0  0
 10 11  1  0  0  0
 28 29  1  0  0  0
 39 40  1  0  0  0
 39 41  1  0  0  0
 20 23  1  0  0  0
M  END
> <minimizedAffinity>
-8.60065

> <CNNscore>
0.1111724898

> <CNNaffinity>
6.1686162949

> <CNN_VS>
0.6857804060

> <CNNaffinity_variance>
0.1463740170

$$$$
[H]c1c([H])c([H])c(C([H])(N([H])C(=O)c2c([H])c([H])c(Cl)c(N([H])C(=O)c3c([H])c4c([H])nc(OC([H])([H])[H])nc4n([H])c3=O)c2[H])C([H])([H])C([H])([H])N([H])[H])c([H])c1[H]


 41 44  0  0  0  0  0  0  0  0999 V2000
  -89.4408   34.7284   -3.4844 C   0  0  0  0  0  0  0  0  0  0  0  0
  -90.5080   34.1629   -4.1215 C   0  0  0  0  0  0  0  0  0  0  0  0
  -91.3343   34.8786   -4.9821 C   0  0  0  0  0  0  0  0  0  0  0  0
  -91.0831   36.2220   -5.2173 C   0  0  0  0  0  0  0  0  0  0  0  0
  -90.0273   36.7991   -4.5925 C   0  0  0  0  0  0  0  0  0  0  0  0
  -89.2063   36.1002   -3.7415 C   0  0  0  0  0  0  0  0  0  0  0  0
  -87.8771   36.9240   -2.9866 Cl  0  0  0  0  0  0  0  0  0  0  0  0
  -88.0848   32.7881   -2.6873 C   0  0  0  0  0  0  0  0  0  0  0  0
  -88.4044   31.9884   -3.5695 O   0  0  0  0  0  0  0  0  0  0  0  0
  -88.5528   34.0976   -2.6074 N   0  0  0  0  0  0  0  0  0  0  0  0
  -88.1657   34.6622   -1.7606 H   0  0  0  0  0  0  0  0  0  0  0  0
  -84.5926   29.5564    1.6318 C   0  0  0  0  0  0  0  0  0  0  0  0
  -85.5783   28.7764    1.1480 N   0  0  0  0  0  0  0  0  0  0  0  0
  -86.4669   29.1878    0.2254 C   0  0  0  0  0  0  0  0  0  0  0  0
  -86.3671   30.4843   -0.2567 C   0  0  0  0  0  0  0  0  0  0  0  0
  -87.2428   30.9731   -1.2003 C   0  0  0  0  0  0  0  0  0  0  0  0
  -87.1359   32.2627   -1.6715 C   0  0  0  0  0  0  0  0  0  0  0  0
  -86.1210   33.0451   -1.1648 C   0  0  0  0  0  0  0  0  0  0  0  0
  -85.9788   34.2185   -1.5564 O   0  0  0  0  0  0  0  0  0  0  0  0
  -85.2617   32.5480   -0.2315 N   0  0  0  0  0  0  0  0  0  0  0  0
  -85.3625   31.2912    0.2310 C   0  0  0  0  0  0  0  0  0  0  0  0
  -84.5118   30.8072    1.1534 N   0  0  0  0  0  0  0  0  0  0  0  0
  -84.5084   33.1852    0.1200 H   0  0  0  0  0  0  0  0  0  0  0  0
  -83.5766   27.6654    2.7594 C   0  0  0  0  0  0  0  0  0  0  0  0
  -83.7055   29.0578    2.5910 O   0  0  0  0  0  0  0  0  0  0  0  0
  -92.4380   34.1981   -5.6214 C   0  0  0  0  0  0  0  0  0  0  0  0
  -92.8290   34.6219   -6.7414 O   0  0  0  0  0  0  0  0  0  0  0  0
  -93.0770   33.0991   -5.0470 N   0  0  0  0  0  0  0  0  0  0  0  0
  -92.7811   32.7197   -4.1351 H   0  0  0  0  0  0  0  0  0  0  0  0
  -94.2010   32.4203   -5.7159 C   0  0  0  0  0  0  0  0  0  0  0  0
  -93.9149   30.9822   -5.8804 C   0  0  0  0  0  0  0  0  0  0  0  0
  -92.7071   30.4942   -5.4426 C   0  0  0  0  0  0  0  0  0  0  0  0
  -92.4226   29.1305   -5.5923 C   0  0  0  0  0  0  0  0  0  0  0  0
  -93.3532   28.2903   -6.1757 C   0  0  0  0  0  0  0  0  0  0  0  0
  -94.5545   28.8234   -6.6014 C   0  0  0  0  0  0  0  0  0  0  0  0
  -94.8527   30.1734   -6.4605 C   0  0  0  0  0  0  0  0  0  0  0  0
  -95.4075   32.5614   -4.8208 C   0  0  0  0  0  0  0  0  0  0  0  0
  -95.0338   32.3312   -3.3575 C   0  0  0  0  0  0  0  0  0  0  0  0
  -94.9374   33.6124   -2.6827 N   0  0  0  0  0  0  0  0  0  0  0  0
  -95.2479   33.5751   -1.6843 H   0  0  0  0  0  0  0  0  0  0  0  0
  -93.9618   33.9787   -2.7440 H   0  0  0  0  0  0  0  0  0  0  0  0
 24 25  1  0  0  0
 25 12  1  0  0  0
 12 13  2  0  0  0
 13 14  1  0  0  0
 14 15  2  0  0  0
 15 16  1  0  0  0
 16 17  2  0  0  0
 17  8  1  0  0  0
  8  9  2  0  0  0
  8 10  1  0  0  0
 10  1  1  0  0  0
  1  2  2  0  0  0
  2  3  1  0  0  0
  3  4  2  0  0  0
  4  5  1  0  0  0
  5  6  2  0  0  0
  6  7  1  0  0  0
  3 26  1  0  0  0
 26 27  2  0  0  0
 26 28  1  0  0  0
 28 30  1  0  0  0
 30 37  1  0  0  0
 37 38  1  0  0  0
 38 39  1  0  0  0
 30 31  1  0  0  0
 31 32  2  0  0  0
 32 33  1  0  0  0
 33 34  2  0  0  0
 34 35  1  0  0  0
 35 36  2  0  0  0
 17 18  1  0  0  0
 18 19  2  0  0  0
 18 20  1  0  0  0
 20 21  1  0  0  0
 21 22  2  0  0  0
 22 12  1  0  0  0
 21 15  1  0  0  0
  6  1  1  0  0  0
 36 31  1  0  0  0
 10 11  1  0  0  0
 28 29  1  0  0  0
 39 40  1  0  0  0
 39 41  1  0  0  0
 20 23  1  0  0  0
M  END
> <minimizedAffinity>
-6.88361

> <CNNscore>
0.1088879034

> <CNNaffinity>
6.0205621719

> <CNN_VS>
0.6555663943

> <CNNaffinity_variance>
0.3824059367

$$$$
[H]c1c([H])c([H])c(C([H])(N([H])C(=O)c2c([H])c([H])c(Cl)c(N([H])C(=O)c3c([H])c4c([H])nc(OC([H])([H])[H])nc4n([H])c3=O)c2[H])C([H])([H])C([H])([H])N([H])[H])c([H])c1[H]


 41 44  0  0  0  0  0  0  0  0999 V2000
  -87.7720   28.5370   -0.9086 C   0  0  0  0  0  0  0  0  0  0  0  0
  -88.7895   27.6266   -0.8893 C   0  0  0  0  0  0  0  0  0  0  0  0
  -88.8122   26.5444   -0.0153 C   0  0  0  0  0  0  0  0  0  0  0  0
  -87.7700   26.3628    0.8812 C   0  0  0  0  0  0  0  0  0  0  0  0
  -86.7515   27.2578    0.8751 C   0  0  0  0  0  0  0  0  0  0  0  0
  -86.7210   28.3291    0.0160 C   0  0  0  0  0  0  0  0  0  0  0  0
  -85.3747   29.4240    0.0814 Cl  0  0  0  0  0  0  0  0  0  0  0  0
  -88.4555   30.7963   -1.7256 C   0  0  0  0  0  0  0  0  0  0  0  0
  -89.3976   30.9753   -0.9508 O   0  0  0  0  0  0  0  0  0  0  0  0
  -87.6578   29.6546   -1.7416 N   0  0  0  0  0  0  0  0  0  0  0  0
  -86.8712   29.6665   -2.4943 H   0  0  0  0  0  0  0  0  0  0  0  0
  -87.5280   36.2739   -4.9551 C   0  0  0  0  0  0  0  0  0  0  0  0
  -87.7765   36.5318   -3.6568 N   0  0  0  0  0  0  0  0  0  0  0  0
  -88.0080   35.5749   -2.7398 C   0  0  0  0  0  0  0  0  0  0  0  0
  -87.9911   34.2497   -3.1484 C   0  0  0  0  0  0  0  0  0  0  0  0
  -88.2211   33.2188   -2.2649 C   0  0  0  0  0  0  0  0  0  0  0  0
  -88.2034   31.9063   -2.6811 C   0  0  0  0  0  0  0  0  0  0  0  0
  -87.9472   31.6625   -4.0130 C   0  0  0  0  0  0  0  0  0  0  0  0
  -87.9194   30.4942   -4.4426 O   0  0  0  0  0  0  0  0  0  0  0  0
  -87.7213   32.6926   -4.8759 N   0  0  0  0  0  0  0  0  0  0  0  0
  -87.7378   33.9741   -4.4744 C   0  0  0  0  0  0  0  0  0  0  0  0
  -87.5155   34.9862   -5.3315 N   0  0  0  0  0  0  0  0  0  0  0  0
  -87.5314   32.4515   -5.8773 H   0  0  0  0  0  0  0  0  0  0  0  0
  -87.1947   37.0492   -7.2284 C   0  0  0  0  0  0  0  0  0  0  0  0
  -87.2961   37.3229   -5.8505 O   0  0  0  0  0  0  0  0  0  0  0  0
  -89.9336   25.6330   -0.0573 C   0  0  0  0  0  0  0  0  0  0  0  0
  -90.3089   25.1022    1.0217 O   0  0  0  0  0  0  0  0  0  0  0  0
  -90.6079   25.3256   -1.2392 N   0  0  0  0  0  0  0  0  0  0  0  0
  -90.3341   25.7451   -2.1405 H   0  0  0  0  0  0  0  0  0  0  0  0
  -91.7487   24.3930   -1.2597 C   0  0  0  0  0  0  0  0  0  0  0  0
  -92.9959   25.1061   -1.5962 C   0  0  0  0  0  0  0  0  0  0  0  0
  -94.1270   24.8424   -0.8615 C   0  0  0  0  0  0  0  0  0  0  0  0
  -95.3180   25.5126   -1.1702 C   0  0  0  0  0  0  0  0  0  0  0  0
  -95.3470   26.4291   -2.2053 C   0  0  0  0  0  0  0  0  0  0  0  0
  -94.1866   26.6634   -2.9176 C   0  0  0  0  0  0  0  0  0  0  0  0
  -92.9971   26.0075   -2.6246 C   0  0  0  0  0  0  0  0  0  0  0  0
  -91.4794   23.3779   -2.3429 C   0  0  0  0  0  0  0  0  0  0  0  0
  -92.6163   22.3617   -2.4363 C   0  0  0  0  0  0  0  0  0  0  0  0
  -92.7087   21.8736   -3.7999 N   0  0  0  0  0  0  0  0  0  0  0  0
  -92.9972   20.8695   -3.8580 H   0  0  0  0  0  0  0  0  0  0  0  0
  -93.3640   22.4700   -4.3519 H   0  0  0  0  0  0  0  0  0  0  0  0
 24 25  1  0  0  0
 25 12  1  0  0  0
 12 13  2  0  0  0
 13 14  1  0  0  0
 14 15  2  0  0  0
 15 16  1  0  0  0
 16 17  2  0  0  0
 17  8  1  0  0  0
  8  9  2  0  0  0
  8 10  1  0  0  0
 10  1  1  0  0  0
  1  2  2  0  0  0
  2  3  1  0  0  0
  3  4  2  0  0  0
  4  5  1  0  0  0
  5  6  2  0  0  0
  6  7  1  0  0  0
  3 26  1  0  0  0
 26 27  2  0  0  0
 26 28  1  0  0  0
 28 30  1  0  0  0
 30 37  1  0  0  0
 37 38  1  0  0  0
 38 39  1  0  0  0
 30 31  1  0  0  0
 31 32  2  0  0  0
 32 33  1  0  0  0
 33 34  2  0  0  0
 34 35  1  0  0  0
 35 36  2  0  0  0
 17 18  1  0  0  0
 18 19  2  0  0  0
 18 20  1  0  0  0
 20 21  1  0  0  0
 21 22  2  0  0  0
 22 12  1  0  0  0
 21 15  1  0  0  0
  6  1  1  0  0  0
 36 31  1  0  0  0
 10 11  1  0  0  0
 28 29  1  0  0  0
 39 40  1  0  0  0
 39 41  1  0  0  0
 20 23  1  0  0  0
M  END
> <minimizedAffinity>
-7.21143

> <CNNscore>
0.0574659109

> <CNNaffinity>
5.6181330681

> <CNN_VS>
0.3228511214

> <CNNaffinity_variance>
0.2801929116

$$$$
[H]c1c([H])c([H])c(C([H])(N([H])C(=O)c2c([H])c([H])c(Cl)c(N([H])C(=O)c3c([H])c4c([H])nc(OC([H])([H])[H])nc4n([H])c3=O)c2[H])C([H])([H])C([H])([H])N([H])[H])c([H])c1[H]


 41 44  0  0  0  0  0  0  0  0999 V2000
  -87.2083   31.5309   -1.1684 C   0  0  0  0  0  0  0  0  0  0  0  0
  -87.7035   30.3234   -0.7670 C   0  0  0  0  0  0  0  0  0  0  0  0
  -87.0957   29.5528    0.2190 C   0  0  0  0  0  0  0  0  0  0  0  0
  -85.9392   30.0095    0.8329 C   0  0  0  0  0  0  0  0  0  0  0  0
  -85.4340   31.2068    0.4461 C   0  0  0  0  0  0  0  0  0  0  0  0
  -86.0275   31.9741   -0.5264 C   0  0  0  0  0  0  0  0  0  0  0  0
  -85.3083   33.4952   -0.9557 Cl  0  0  0  0  0  0  0  0  0  0  0  0
  -87.8815   32.1095   -3.5031 C   0  0  0  0  0  0  0  0  0  0  0  0
  -87.5368   31.0553   -4.0415 O   0  0  0  0  0  0  0  0  0  0  0  0
  -87.7437   32.3785   -2.1434 N   0  0  0  0  0  0  0  0  0  0  0  0
  -88.1011   33.3617   -1.8415 H   0  0  0  0  0  0  0  0  0  0  0  0
  -89.4603   37.0277   -7.3258 C   0  0  0  0  0  0  0  0  0  0  0  0
  -88.2080   37.1834   -6.8550 N   0  0  0  0  0  0  0  0  0  0  0  0
  -87.6092   36.3050   -6.0304 C   0  0  0  0  0  0  0  0  0  0  0  0
  -88.3152   35.1768   -5.6408 C   0  0  0  0  0  0  0  0  0  0  0  0
  -87.7659   34.2366   -4.7978 C   0  0  0  0  0  0  0  0  0  0  0  0
  -88.4761   33.1203   -4.4158 C   0  0  0  0  0  0  0  0  0  0  0  0
  -89.7554   32.9785   -4.9080 C   0  0  0  0  0  0  0  0  0  0  0  0
  -90.4416   31.9879   -4.5947 O   0  0  0  0  0  0  0  0  0  0  0  0
  -90.2861   33.9169   -5.7414 N   0  0  0  0  0  0  0  0  0  0  0  0
  -89.5972   35.0071   -6.1163 C   0  0  0  0  0  0  0  0  0  0  0  0
  -90.1275   35.9302   -6.9381 N   0  0  0  0  0  0  0  0  0  0  0  0
  -91.2625   33.7601   -6.0865 H   0  0  0  0  0  0  0  0  0  0  0  0
  -91.4042   38.2211   -8.1483 C   0  0  0  0  0  0  0  0  0  0  0  0
  -90.0162   37.9847   -8.1807 O   0  0  0  0  0  0  0  0  0  0  0  0
  -87.6930   28.2892    0.5886 C   0  0  0  0  0  0  0  0  0  0  0  0
  -86.9463   27.2771    0.6599 O   0  0  0  0  0  0  0  0  0  0  0  0
  -89.0532   28.1542    0.8672 N   0  0  0  0  0  0  0  0  0  0  0  0
  -89.6943   28.9607    0.8256 H   0  0  0  0  0  0  0  0  0  0  0  0
  -89.6417   26.8561    1.2416 C   0  0  0  0  0  0  0  0  0  0  0  0
  -89.7369   26.7334    2.7089 C   0  0  0  0  0  0  0  0  0  0  0  0
  -89.4633   25.5183    3.2897 C   0  0  0  0  0  0  0  0  0  0  0  0
  -89.5496   25.3879    4.6820 C   0  0  0  0  0  0  0  0  0  0  0  0
  -89.9071   26.4758    5.4572 C   0  0  0  0  0  0  0  0  0  0  0  0
  -90.1734   27.6784    4.8315 C   0  0  0  0  0  0  0  0  0  0  0  0
  -90.0925   27.8249    3.4520 C   0  0  0  0  0  0  0  0  0  0  0  0
  -91.0391   26.8162    0.6737 C   0  0  0  0  0  0  0  0  0  0  0  0
  -91.1829   27.7880   -0.4962 C   0  0  0  0  0  0  0  0  0  0  0  0
  -91.8775   28.9793   -0.0438 N   0  0  0  0  0  0  0  0  0  0  0  0
  -91.5465   29.8521   -0.5165 H   0  0  0  0  0  0  0  0  0  0  0  0
  -92.9071   28.8665   -0.1737 H   0  0  0  0  0  0  0  0  0  0  0  0
 24 25  1  0  0  0
 25 12  1  0  0  0
 12 13  2  0  0  0
 13 14  1  0  0  0
 14 15  2  0  0  0
 15 16  1  0  0  0
 16 17  2  0  0  0
 17  8  1  0  0  0
  8  9  2  0  0  0
  8 10  1  0  0  0
 10  1  1  0  0  0
  1  2  2  0  0  0
  2  3  1  0  0  0
  3  4  2  0  0  0
  4  5  1  0  0  0
  5  6  2  0  0  0
  6  7  1  0  0  0
  3 26  1  0  0  0
 26 27  2  0  0  0
 26 28  1  0  0  0
 28 30  1  0  0  0
 30 37  1  0  0  0
 37 38  1  0  0  0
 38 39  1  0  0  0
 30 31  1  0  0  0
 31 32  2  0  0  0
 32 33  1  0  0  0
 33 34  2  0  0  0
 34 35  1  0  0  0
 35 36  2  0  0  0
 17 18  1  0  0  0
 18 19  2  0  0  0
 18 20  1  0  0  0
 20 21  1  0  0  0
 21 22  2  0  0  0
 22 12  1  0  0  0
 21 15  1  0  0  0
  6  1  1  0  0  0
 36 31  1  0  0  0
 10 11  1  0  0  0
 28 29  1  0  0  0
 39 40  1  0  0  0
 39 41  1  0  0  0
 20 23  1  0  0  0
M  END
> <minimizedAffinity>
-8.51692

> <CNNscore>
0.0510770604

> <CNNaffinity>
6.0683555603

> <CNN_VS>
0.3099537492

> <CNNaffinity_variance>
0.1052996665

$$$$
[H]c1c([H])c(C(=O)N([H])[H])c([H])c(N([H])C(=O)c2c([H])c3c([H])nc(OC([H])([H])[H])nc3n([H])c2=O)c1Cl


 30 32  0  0  0  0  0  0  0  0999 V2000
  -87.5086   32.8115   -1.4079 C   0  0  0  0  0  0  0  0  0  0  0  0
  -88.7038   32.8782   -0.9365 O   0  0  0  0  0  0  0  0  0  0  0  0
  -87.1441   33.4932   -2.5861 N   0  0  0  0  0  0  0  0  0  0  0  0
  -86.1459   33.3445   -2.8877 H   0  0  0  0  0  0  0  0  0  0  0  0
  -84.7144   28.1700    1.9627 C   0  0  0  0  0  0  0  0  0  0  0  0
  -85.9678   27.7632    1.6136 N   0  0  0  0  0  0  0  0  0  0  0  0
  -86.7635   28.5766    0.9015 C   0  0  0  0  0  0  0  0  0  0  0  0
  -86.3026   29.8369    0.5216 C   0  0  0  0  0  0  0  0  0  0  0  0
  -87.0681   30.7017   -0.2039 C   0  0  0  0  0  0  0  0  0  0  0  0
  -86.6262   31.9757   -0.6024 C   0  0  0  0  0  0  0  0  0  0  0  0
  -85.3562   32.2812   -0.1993 C   0  0  0  0  0  0  0  0  0  0  0  0
  -84.8477   33.3801   -0.4849 O   0  0  0  0  0  0  0  0  0  0  0  0
  -84.5709   31.4327    0.5274 N   0  0  0  0  0  0  0  0  0  0  0  0
  -85.0408   30.2325    0.8796 C   0  0  0  0  0  0  0  0  0  0  0  0
  -84.2844   29.3826    1.5917 N   0  0  0  0  0  0  0  0  0  0  0  0
  -83.6074   31.6856    0.8225 H   0  0  0  0  0  0  0  0  0  0  0  0
  -82.5561   27.4616    2.7672 C   0  0  0  0  0  0  0  0  0  0  0  0
  -83.9439   27.2926    2.6930 O   0  0  0  0  0  0  0  0  0  0  0  0
  -87.9404   34.3175   -3.4102 C   0  0  0  0  0  0  0  0  0  0  0  0
  -88.1877   35.6559   -3.2139 C   0  0  0  0  0  0  0  0  0  0  0  0
  -88.9874   36.4257   -4.0641 C   0  0  0  0  0  0  0  0  0  0  0  0
  -89.5427   35.7863   -5.1427 C   0  0  0  0  0  0  0  0  0  0  0  0
  -89.3173   34.4409   -5.3741 C   0  0  0  0  0  0  0  0  0  0  0  0
  -88.5292   33.7017   -4.5287 C   0  0  0  0  0  0  0  0  0  0  0  0
  -88.2958   32.0082   -4.8968 Cl  0  0  0  0  0  0  0  0  0  0  0  0
  -89.2199   37.8404   -3.8060 C   0  0  0  0  0  0  0  0  0  0  0  0
  -88.2091   38.6742   -3.3234 N   0  0  0  0  0  0  0  0  0  0  0  0
  -90.3537   38.3607   -4.0130 O   0  0  0  0  0  0  0  0  0  0  0  0
  -88.3344   39.1800   -2.3993 H   0  0  0  0  0  0  0  0  0  0  0  0
  -87.2890   38.8656   -3.7976 H   0  0  0  0  0  0  0  0  0  0  0  0
 17 18  1  0  0  0
 18  5  1  0  0  0
  5  6  2  0  0  0
  6  7  1  0  0  0
  7  8  2  0  0  0
  8  9  1  0  0  0
  9 10  2  0  0  0
 10  1  1  0  0  0
  1  2  2  0  0  0
  1  3  1  0  0  0
  3 19  1  0  0  0
 19 20  2  0  0  0
 20 21  1  0  0  0
 21 22  2  0  0  0
 22 23  1  0  0  0
 23 24  2  0  0  0
 24 25  1  0  0  0
 21 26  1  0  0  0
 26 27  1  0  0  0
 26 28  2  0  0  0
 10 11  1  0  0  0
 11 12  2  0  0  0
 11 13  1  0  0  0
 13 14  1  0  0  0
 14 15  2  0  0  0
 15  5  1  0  0  0
 14  8  1  0  0  0
 24 19  1  0  0  0
  3  4  1  0  0  0
 27 29  1  0  0  0
 27 30  1  0  0  0
 13 16  1  0  0  0
M  END
> <minimizedAffinity>
-7.85029

> <CNNscore>
0.5495330691

> <CNNaffinity>
6.3050284386

> <CNN_VS>
3.4648215771

> <CNNaffinity_variance>
0.2848328650

$$$$
[H]c1c([H])c(C(=O)N([H])[H])c([H])c(N([H])C(=O)c2c([H])c3c([H])nc(OC([H])([H])[H])nc3n([H])c2=O)c1Cl


 30 32  0  0  0  0  0  0  0  0999 V2000
  -86.7781   31.6853   -1.0691 C   0  0  0  0  0  0  0  0  0  0  0  0
  -87.1126   30.4750   -1.3490 O   0  0  0  0  0  0  0  0  0  0  0  0
  -85.7067   31.9692   -0.1989 N   0  0  0  0  0  0  0  0  0  0  0  0
  -85.5419   32.9952   -0.0265 H   0  0  0  0  0  0  0  0  0  0  0  0
  -89.2156   36.3135   -4.7229 C   0  0  0  0  0  0  0  0  0  0  0  0
  -87.8750   36.2318   -4.9568 N   0  0  0  0  0  0  0  0  0  0  0  0
  -87.1319   35.3307   -4.2953 C   0  0  0  0  0  0  0  0  0  0  0  0
  -87.7367   34.4806   -3.3698 C   0  0  0  0  0  0  0  0  0  0  0  0
  -87.0296   33.5458   -2.6722 C   0  0  0  0  0  0  0  0  0  0  0  0
  -87.6155   32.6748   -1.7365 C   0  0  0  0  0  0  0  0  0  0  0  0
  -88.9631   32.8427   -1.5800 C   0  0  0  0  0  0  0  0  0  0  0  0
  -89.6010   32.1359   -0.7792 O   0  0  0  0  0  0  0  0  0  0  0  0
  -89.6923   33.7710   -2.2664 N   0  0  0  0  0  0  0  0  0  0  0  0
  -89.0848   34.5740   -3.1448 C   0  0  0  0  0  0  0  0  0  0  0  0
  -89.7835   35.4915   -3.8315 N   0  0  0  0  0  0  0  0  0  0  0  0
  -90.7167   33.8806   -2.1320 H   0  0  0  0  0  0  0  0  0  0  0  0
  -89.3212   37.9566   -6.4824 C   0  0  0  0  0  0  0  0  0  0  0  0
  -89.9261   37.2569   -5.4315 O   0  0  0  0  0  0  0  0  0  0  0  0
  -84.8560   31.0673    0.4761 C   0  0  0  0  0  0  0  0  0  0  0  0
  -85.2237   29.8499    0.9992 C   0  0  0  0  0  0  0  0  0  0  0  0
  -84.3371   28.9947    1.6608 C   0  0  0  0  0  0  0  0  0  0  0  0
  -83.0382   29.4181    1.7808 C   0  0  0  0  0  0  0  0  0  0  0  0
  -82.6298   30.6365    1.2676 C   0  0  0  0  0  0  0  0  0  0  0  0
  -83.5143   31.4622    0.6211 C   0  0  0  0  0  0  0  0  0  0  0  0
  -82.9134   32.9832    0.0020 Cl  0  0  0  0  0  0  0  0  0  0  0  0
  -84.7816   27.7167    2.2002 C   0  0  0  0  0  0  0  0  0  0  0  0
  -86.0890   27.2596    2.0217 N   0  0  0  0  0  0  0  0  0  0  0  0
  -83.9905   26.9761    2.8518 O   0  0  0  0  0  0  0  0  0  0  0  0
  -86.7008   27.0590    2.8648 H   0  0  0  0  0  0  0  0  0  0  0  0
  -86.5599   27.0843    1.0967 H   0  0  0  0  0  0  0  0  0  0  0  0
 17 18  1  0  0  0
 18  5  1  0  0  0
  5  6  2  0  0  0
  6  7  1  0  0  0
  7  8  2  0  0  0
  8  9  1  0  0  0
  9 10  2  0  0  0
 10  1  1  0  0  0
  1  2  2  0  0  0
  1  3  1  0  0  0
  3 19  1  0  0  0
 19 20  2  0  0  0
 20 21  1  0  0  0
 21 22  2  0  0  0
 22 23  1  0  0  0
 23 24  2  0  0  0
 24 25  1  0  0  0
 21 26  1  0  0  0
 26 27  1  0  0  0
 26 28  2  0  0  0
 10 11  1  0  0  0
 11 12  2  0  0  0
 11 13  1  0  0  0
 13 14  1  0  0  0
 14 15  2  0  0  0
 15  5  1  0  0  0
 14  8  1  0  0  0
 24 19  1  0  0  0
  3  4  1  0  0  0
 27 29  1  0  0  0
 27 30  1  0  0  0
 13 16  1  0  0  0
M  END
> <minimizedAffinity>
-8.93132

> <CNNscore>
0.5396466851

> <CNNaffinity>
6.4748396873

> <CNN_VS>
3.4941258430

> <CNNaffinity_variance>
0.1853043437

$$$$
[H]c1c([H])c(C(=O)N([H])[H])c([H])c(N([H])C(=O)c2c([H])c3c([H])nc(OC([H])([H])[H])nc3n([H])c2=O)c1Cl


 30 32  0  0  0  0  0  0  0  0999 V2000
  -86.9345   31.6643   -1.1926 C   0  0  0  0  0  0  0  0  0  0  0  0
  -87.7147   31.5389   -0.1774 O   0  0  0  0  0  0  0  0  0  0  0  0
  -85.5933   31.2343   -1.1464 N   0  0  0  0  0  0  0  0  0  0  0  0
  -85.0458   31.4104   -2.0288 H   0  0  0  0  0  0  0  0  0  0  0  0
  -89.5640   35.6043   -5.4674 C   0  0  0  0  0  0  0  0  0  0  0  0
  -89.2167   36.3252   -4.3637 N   0  0  0  0  0  0  0  0  0  0  0  0
  -88.6480   35.7125   -3.3134 C   0  0  0  0  0  0  0  0  0  0  0  0
  -88.4149   34.3383   -3.3569 C   0  0  0  0  0  0  0  0  0  0  0  0
  -87.8383   33.6664   -2.3194 C   0  0  0  0  0  0  0  0  0  0  0  0
  -87.5893   32.2826   -2.3393 C   0  0  0  0  0  0  0  0  0  0  0  0
  -87.9765   31.6588   -3.4924 C   0  0  0  0  0  0  0  0  0  0  0  0
  -87.8141   30.4336   -3.6354 O   0  0  0  0  0  0  0  0  0  0  0  0
  -88.5556   32.3094   -4.5441 N   0  0  0  0  0  0  0  0  0  0  0  0
  -88.7693   33.6264   -4.4725 C   0  0  0  0  0  0  0  0  0  0  0  0
  -89.3349   34.2854   -5.4960 N   0  0  0  0  0  0  0  0  0  0  0  0
  -88.8414   31.8149   -5.4120 H   0  0  0  0  0  0  0  0  0  0  0  0
  -91.5188   36.1812   -6.7531 C   0  0  0  0  0  0  0  0  0  0  0  0
  -90.1436   36.2872   -6.5137 O   0  0  0  0  0  0  0  0  0  0  0  0
  -84.8979   30.6283   -0.0779 C   0  0  0  0  0  0  0  0  0  0  0  0
  -85.1957   29.4128    0.4919 C   0  0  0  0  0  0  0  0  0  0  0  0
  -84.4715   28.8593    1.5522 C   0  0  0  0  0  0  0  0  0  0  0  0
  -83.4134   29.5893    2.0301 C   0  0  0  0  0  0  0  0  0  0  0  0
  -83.0824   30.8164    1.4831 C   0  0  0  0  0  0  0  0  0  0  0  0
  -83.8048   31.3434    0.4426 C   0  0  0  0  0  0  0  0  0  0  0  0
  -83.3165   32.8990   -0.1895 Cl  0  0  0  0  0  0  0  0  0  0  0  0
  -84.8338   27.5684    2.1215 C   0  0  0  0  0  0  0  0  0  0  0  0
  -86.0998   27.0110    1.9299 N   0  0  0  0  0  0  0  0  0  0  0  0
  -84.0060   26.9076    2.8122 O   0  0  0  0  0  0  0  0  0  0  0  0
  -86.7147   26.7908    2.7658 H   0  0  0  0  0  0  0  0  0  0  0  0
  -86.5350   26.7745    1.0011 H   0  0  0  0  0  0  0  0  0  0  0  0
 17 18  1  0  0  0
 18  5  1  0  0  0
  5  6  2  0  0  0
  6  7  1  0  0  0
  7  8  2  0  0  0
  8  9  1  0  0  0
  9 10  2  0  0  0
 10  1  1  0  0  0
  1  2  2  0  0  0
  1  3  1  0  0  0
  3 19  1  0  0  0
 19 20  2  0  0  0
 20 21  1  0  0  0
 21 22  2  0  0  0
 22 23  1  0  0  0
 23 24  2  0  0  0
 24 25  1  0  0  0
 21 26  1  0  0  0
 26 27  1  0  0  0
 26 28  2  0  0  0
 10 11  1  0  0  0
 11 12  2  0  0  0
 11 13  1  0  0  0
 13 14  1  0  0  0
 14 15  2  0  0  0
 15  5  1  0  0  0
 14  8  1  0  0  0
 24 19  1  0  0  0
  3  4  1  0  0  0
 27 29  1  0  0  0
 27 30  1  0  0  0
 13 16  1  0  0  0
M  END
> <minimizedAffinity>
-7.74207

> <CNNscore>
0.3463593125

> <CNNaffinity>
6.2602114677

> <CNN_VS>
2.1682825089

> <CNNaffinity_variance>
0.2320427001

$$$$
[H]c1c([H])c(C(=O)N([H])[H])c([H])c(N([H])C(=O)c2c([H])c3c([H])nc(OC([H])([H])[H])nc3n([H])c2=O)c1Cl


 30 32  0  0  0  0  0  0  0  0999 V2000
  -87.3705   31.6682   -1.0204 C   0  0  0  0  0  0  0  0  0  0  0  0
  -88.4834   31.6674   -0.3751 O   0  0  0  0  0  0  0  0  0  0  0  0
  -86.3126   30.8090   -0.6623 N   0  0  0  0  0  0  0  0  0  0  0  0
  -85.4434   30.9163   -1.2474 H   0  0  0  0  0  0  0  0  0  0  0  0
  -88.6636   35.4545   -5.9908 C   0  0  0  0  0  0  0  0  0  0  0  0
  -89.7377   34.6455   -5.7661 N   0  0  0  0  0  0  0  0  0  0  0  0
  -89.7042   33.7467   -4.7696 C   0  0  0  0  0  0  0  0  0  0  0  0
  -88.5679   33.6448   -3.9675 C   0  0  0  0  0  0  0  0  0  0  0  0
  -88.4816   32.7512   -2.9407 C   0  0  0  0  0  0  0  0  0  0  0  0
  -87.3495   32.6308   -2.1154 C   0  0  0  0  0  0  0  0  0  0  0  0
  -86.3324   33.4888   -2.4286 C   0  0  0  0  0  0  0  0  0  0  0  0
  -85.2733   33.4811   -1.7759 O   0  0  0  0  0  0  0  0  0  0  0  0
  -86.3951   34.3916   -3.4512 N   0  0  0  0  0  0  0  0  0  0  0  0
  -87.4959   34.4642   -4.2050 C   0  0  0  0  0  0  0  0  0  0  0  0
  -87.5789   35.3461   -5.2134 N   0  0  0  0  0  0  0  0  0  0  0  0
  -85.6095   35.0351   -3.6710 H   0  0  0  0  0  0  0  0  0  0  0  0
  -87.7503   37.3100   -7.2277 C   0  0  0  0  0  0  0  0  0  0  0  0
  -88.7561   36.3572   -7.0269 O   0  0  0  0  0  0  0  0  0  0  0  0
  -86.2644   29.8555    0.3775 C   0  0  0  0  0  0  0  0  0  0  0  0
  -86.9220   28.6480    0.3953 C   0  0  0  0  0  0  0  0  0  0  0  0
  -86.8391   27.7396    1.4552 C   0  0  0  0  0  0  0  0  0  0  0  0
  -86.0538   28.0981    2.5208 C   0  0  0  0  0  0  0  0  0  0  0  0
  -85.3765   29.3045    2.5399 C   0  0  0  0  0  0  0  0  0  0  0  0
  -85.4698   30.1830    1.4903 C   0  0  0  0  0  0  0  0  0  0  0  0
  -84.5794   31.6843    1.5962 Cl  0  0  0  0  0  0  0  0  0  0  0  0
  -87.5611   26.4749    1.4238 C   0  0  0  0  0  0  0  0  0  0  0  0
  -87.4472   25.5911    0.3487 N   0  0  0  0  0  0  0  0  0  0  0  0
  -88.3195   26.1360    2.3773 O   0  0  0  0  0  0  0  0  0  0  0  0
  -88.3081   25.3192   -0.2083 H   0  0  0  0  0  0  0  0  0  0  0  0
  -86.5566   25.1429    0.0109 H   0  0  0  0  0  0  0  0  0  0  0  0
 17 18  1  0  0  0
 18  5  1  0  0  0
  5  6  2  0  0  0
  6  7  1  0  0  0
  7  8  2  0  0  0
  8  9  1  0  0  0
  9 10  2  0  0  0
 10  1  1  0  0  0
  1  2  2  0  0  0
  1  3  1  0  0  0
  3 19  1  0  0  0
 19 20  2  0  0  0
 20 21  1  0  0  0
 21 22  2  0  0  0
 22 23  1  0  0  0
 23 24  2  0  0  0
 24 25  1  0  0  0
 21 26  1  0  0  0
 26 27  1  0  0  0
 26 28  2  0  0  0
 10 11  1  0  0  0
 11 12  2  0  0  0
 11 13  1  0  0  0
 13 14  1  0  0  0
 14 15  2  0  0  0
 15  5  1  0  0  0
 14  8  1  0  0  0
 24 19  1  0  0  0
  3  4  1  0  0  0
 27 29  1  0  0  0
 27 30  1  0  0  0
 13 16  1  0  0  0
M  END
> <minimizedAffinity>
-8.09281

> <CNNscore>
0.3238666952

> <CNNaffinity>
6.0666017532

> <CNN_VS>
1.9647703171

> <CNNaffinity_variance>
0.1206281781

$$$$
[H]c1c([H])c(C(=O)N([H])[H])c([H])c(N([H])C(=O)c2c([H])c3c([H])nc(OC([H])([H])[H])nc3n([H])c2=O)c1Cl


 30 32  0  0  0  0  0  0  0  0999 V2000
  -88.0506   31.5649   -1.4820 C   0  0  0  0  0  0  0  0  0  0  0  0
  -88.8017   31.7900   -0.4621 O   0  0  0  0  0  0  0  0  0  0  0  0
  -86.7878   30.9549   -1.3445 N   0  0  0  0  0  0  0  0  0  0  0  0
  -86.2540   30.8439   -2.2457 H   0  0  0  0  0  0  0  0  0  0  0  0
  -90.7968   34.7676   -6.2687 C   0  0  0  0  0  0  0  0  0  0  0  0
  -90.7629   35.5708   -5.1677 N   0  0  0  0  0  0  0  0  0  0  0  0
  -90.2355   35.1152   -4.0205 C   0  0  0  0  0  0  0  0  0  0  0  0
  -89.7238   33.8193   -3.9608 C   0  0  0  0  0  0  0  0  0  0  0  0
  -89.1748   33.3071   -2.8221 C   0  0  0  0  0  0  0  0  0  0  0  0
  -88.6490   32.0058   -2.7364 C   0  0  0  0  0  0  0  0  0  0  0  0
  -88.7343   31.2881   -3.8967 C   0  0  0  0  0  0  0  0  0  0  0  0
  -88.3074   30.1209   -3.9528 O   0  0  0  0  0  0  0  0  0  0  0  0
  -89.2793   31.7787   -5.0487 N   0  0  0  0  0  0  0  0  0  0  0  0
  -89.7646   33.0233   -5.0750 C   0  0  0  0  0  0  0  0  0  0  0  0
  -90.3023   33.5254   -6.1977 N   0  0  0  0  0  0  0  0  0  0  0  0
  -89.3329   31.2151   -5.9200 H   0  0  0  0  0  0  0  0  0  0  0  0
  -91.0924   34.6975   -8.6593 C   0  0  0  0  0  0  0  0  0  0  0  0
  -91.3495   35.2898   -7.4171 O   0  0  0  0  0  0  0  0  0  0  0  0
  -86.1504   30.5022   -0.1691 C   0  0  0  0  0  0  0  0  0  0  0  0
  -86.1580   29.2120    0.3065 C   0  0  0  0  0  0  0  0  0  0  0  0
  -85.5084   28.8185    1.4805 C   0  0  0  0  0  0  0  0  0  0  0  0
  -84.8365   29.7916    2.1751 C   0  0  0  0  0  0  0  0  0  0  0  0
  -84.8059   31.1010    1.7287 C   0  0  0  0  0  0  0  0  0  0  0  0
  -85.4491   31.4682    0.5739 C   0  0  0  0  0  0  0  0  0  0  0  0
  -85.3577   33.1437    0.0819 Cl  0  0  0  0  0  0  0  0  0  0  0  0
  -85.5526   27.4373    1.9413 C   0  0  0  0  0  0  0  0  0  0  0  0
  -86.7197   26.6746    1.8632 N   0  0  0  0  0  0  0  0  0  0  0  0
  -84.5269   26.8824    2.4300 O   0  0  0  0  0  0  0  0  0  0  0  0
  -87.1498   26.2708    2.7449 H   0  0  0  0  0  0  0  0  0  0  0  0
  -87.2485   26.4452    0.9824 H   0  0  0  0  0  0  0  0  0  0  0  0
 17 18  1  0  0  0
 18  5  1  0  0  0
  5  6  2  0  0  0
  6  7  1  0  0  0
  7  8  2  0  0  0
  8  9  1  0  0  0
  9 10  2  0  0  0
 10  1  1  0  0  0
  1  2  2  0  0  0
  1  3  1  0  0  0
  3 19  1  0  0  0
 19 20  2  0  0  0
 20 21  1  0  0  0
 21 22  2  0  0  0
 22 23  1  0  0  0
 23 24  2  0  0  0
 24 25  1  0  0  0
 21 26  1  0  0  0
 26 27  1  0  0  0
 26 28  2  0  0  0
 10 11  1  0  0  0
 11 12  2  0  0  0
 11 13  1  0  0  0
 13 14  1  0  0  0
 14 15  2  0  0  0
 15  5  1  0  0  0
 14  8  1  0  0  0
 24 19  1  0  0  0
  3  4  1  0  0  0
 27 29  1  0  0  0
 27 30  1  0  0  0
 13 16  1  0  0  0
M  END
> <minimizedAffinity>
-7.91775

> <CNNscore>
0.3165856302

> <CNNaffinity>
6.0537862778

> <CNN_VS>
1.9165416956

> <CNNaffinity_variance>
0.2998406887

$$$$
[H]c1c([H])c(C(=O)N([H])[H])c([H])c(N([H])C(=O)c2c([H])c3c([H])nc(OC([H])([H])[H])nc3n([H])c2=O)c1Cl


 30 32  0  0  0  0  0  0  0  0999 V2000
  -87.3570   30.0949   -1.0209 C   0  0  0  0  0  0  0  0  0  0  0  0
  -86.9170   28.9984   -1.5299 O   0  0  0  0  0  0  0  0  0  0  0  0
  -86.6357   30.7851   -0.0264 N   0  0  0  0  0  0  0  0  0  0  0  0
  -87.1062   31.6569    0.3311 H   0  0  0  0  0  0  0  0  0  0  0  0
  -93.1381   30.4636   -3.6957 C   0  0  0  0  0  0  0  0  0  0  0  0
  -92.7095   29.1709   -3.7568 N   0  0  0  0  0  0  0  0  0  0  0  0
  -91.5066   28.8385   -3.2624 C   0  0  0  0  0  0  0  0  0  0  0  0
  -90.6996   29.8198   -2.6874 C   0  0  0  0  0  0  0  0  0  0  0  0
  -89.4705   29.5367   -2.1682 C   0  0  0  0  0  0  0  0  0  0  0  0
  -88.6391   30.5064   -1.5802 C   0  0  0  0  0  0  0  0  0  0  0  0
  -89.1661   31.7677   -1.5720 C   0  0  0  0  0  0  0  0  0  0  0  0
  -88.5289   32.7176   -1.0828 O   0  0  0  0  0  0  0  0  0  0  0  0
  -90.3934   32.0757   -2.0855 N   0  0  0  0  0  0  0  0  0  0  0  0
  -91.1432   31.1148   -2.6330 C   0  0  0  0  0  0  0  0  0  0  0  0
  -92.3532   31.3959   -3.1413 N   0  0  0  0  0  0  0  0  0  0  0  0
  -90.7747   33.0421   -2.0677 H   0  0  0  0  0  0  0  0  0  0  0  0
  -95.1072   29.7532   -4.8895 C   0  0  0  0  0  0  0  0  0  0  0  0
  -94.3809   30.7444   -4.2188 O   0  0  0  0  0  0  0  0  0  0  0  0
  -85.3946   30.4489    0.5563 C   0  0  0  0  0  0  0  0  0  0  0  0
  -85.1005   29.2725    1.2046 C   0  0  0  0  0  0  0  0  0  0  0  0
  -83.8507   28.9920    1.7655 C   0  0  0  0  0  0  0  0  0  0  0  0
  -82.8859   29.9597    1.6489 C   0  0  0  0  0  0  0  0  0  0  0  0
  -83.1436   31.1564    1.0037 C   0  0  0  0  0  0  0  0  0  0  0  0
  -84.3762   31.4136    0.4592 C   0  0  0  0  0  0  0  0  0  0  0  0
  -84.6150   32.9506   -0.3397 Cl  0  0  0  0  0  0  0  0  0  0  0  0
  -83.5946   27.7298    2.4459 C   0  0  0  0  0  0  0  0  0  0  0  0
  -82.3245   27.3968    2.9214 N   0  0  0  0  0  0  0  0  0  0  0  0
  -84.5224   26.8901    2.6282 O   0  0  0  0  0  0  0  0  0  0  0  0
  -81.8361   26.5251    2.5650 H   0  0  0  0  0  0  0  0  0  0  0  0
  -81.7684   27.9430    3.6288 H   0  0  0  0  0  0  0  0  0  0  0  0
 17 18  1  0  0  0
 18  5  1  0  0  0
  5  6  2  0  0  0
  6  7  1  0  0  0
  7  8  2  0  0  0
  8  9  1  0  0  0
  9 10  2  0  0  0
 10  1  1  0  0  0
  1  2  2  0  0  0
  1  3  1  0  0  0
  3 19  1  0  0  0
 19 20  2  0  0  0
 20 21  1  0  0  0
 21 22  2  0  0  0
 22 23  1  0  0  0
 23 24  2  0  0  0
 24 25  1  0  0  0
 21 26  1  0  0  0
 26 27  1  0  0  0
 26 28  2  0  0  0
 10 11  1  0  0  0
 11 12  2  0  0  0
 11 13  1  0  0  0
 13 14  1  0  0  0
 14 15  2  0  0  0
 15  5  1  0  0  0
 14  8  1  0  0  0
 24 19  1  0  0  0
  3  4  1  0  0  0
 27 29  1  0  0  0
 27 30  1  0  0  0
 13 16  1  0  0  0
M  END
> <minimizedAffinity>
-8.14381

> <CNNscore>
0.2901471853

> <CNNaffinity>
6.1889839172

> <CNN_VS>
1.7957162857

> <CNNaffinity_variance>
0.2071634829

$$$$
[H]c1c([H])c(C(=O)N([H])[H])c([H])c(N([H])C(=O)c2c([H])c3c([H])nc(OC([H])([H])[H])nc3n([H])c2=O)c1Cl


 30 32  0  0  0  0  0  0  0  0999 V2000
  -88.2730   33.6776   -3.1042 C   0  0  0  0  0  0  0  0  0  0  0  0
  -89.1206   34.4662   -2.5432 O   0  0  0  0  0  0  0  0  0  0  0  0
  -88.1777   33.5786   -4.5066 N   0  0  0  0  0  0  0  0  0  0  0  0
  -87.4649   32.8832   -4.8497 H   0  0  0  0  0  0  0  0  0  0  0  0
  -83.7643   31.4774    0.8382 C   0  0  0  0  0  0  0  0  0  0  0  0
  -83.2655   32.5479    0.1573 N   0  0  0  0  0  0  0  0  0  0  0  0
  -84.0285   33.1837   -0.7458 C   0  0  0  0  0  0  0  0  0  0  0  0
  -85.3306   32.7446   -0.9834 C   0  0  0  0  0  0  0  0  0  0  0  0
  -86.1491   33.3551   -1.8877 C   0  0  0  0  0  0  0  0  0  0  0  0
  -87.4663   32.9346   -2.1434 C   0  0  0  0  0  0  0  0  0  0  0  0
  -87.8639   31.8538   -1.4067 C   0  0  0  0  0  0  0  0  0  0  0  0
  -89.0069   31.3812   -1.5409 O   0  0  0  0  0  0  0  0  0  0  0  0
  -87.0631   31.2259   -0.4961 N   0  0  0  0  0  0  0  0  0  0  0  0
  -85.8186   31.6674   -0.2919 C   0  0  0  0  0  0  0  0  0  0  0  0
  -85.0161   31.0660    0.6003 N   0  0  0  0  0  0  0  0  0  0  0  0
  -87.3866   30.4059    0.0538 H   0  0  0  0  0  0  0  0  0  0  0  0
  -82.9935   29.4802    1.9447 C   0  0  0  0  0  0  0  0  0  0  0  0
  -82.9353   30.8657    1.7523 O   0  0  0  0  0  0  0  0  0  0  0  0
  -88.9197   34.2657   -5.4916 C   0  0  0  0  0  0  0  0  0  0  0  0
  -90.0663   33.8118   -6.1002 C   0  0  0  0  0  0  0  0  0  0  0  0
  -90.7619   34.5359   -7.0732 C   0  0  0  0  0  0  0  0  0  0  0  0
  -90.2508   35.7602   -7.4206 C   0  0  0  0  0  0  0  0  0  0  0  0
  -89.0994   36.2512   -6.8308 C   0  0  0  0  0  0  0  0  0  0  0  0
  -88.4305   35.5262   -5.8773 C   0  0  0  0  0  0  0  0  0  0  0  0
  -86.9847   36.2226   -5.1826 Cl  0  0  0  0  0  0  0  0  0  0  0  0
  -91.9704   34.0050   -7.6892 C   0  0  0  0  0  0  0  0  0  0  0  0
  -92.1722   34.0528   -9.0702 N   0  0  0  0  0  0  0  0  0  0  0  0
  -92.8812   33.4802   -6.9863 O   0  0  0  0  0  0  0  0  0  0  0  0
  -93.0101   34.5686   -9.4666 H   0  0  0  0  0  0  0  0  0  0  0  0
  -91.5531   33.6131   -9.7992 H   0  0  0  0  0  0  0  0  0  0  0  0
 17 18  1  0  0  0
 18  5  1  0  0  0
  5  6  2  0  0  0
  6  7  1  0  0  0
  7  8  2  0  0  0
  8  9  1  0  0  0
  9 10  2  0  0  0
 10  1  1  0  0  0
  1  2  2  0  0  0
  1  3  1  0  0  0
  3 19  1  0  0  0
 19 20  2  0  0  0
 20 21  1  0  0  0
 21 22  2  0  0  0
 22 23  1  0  0  0
 23 24  2  0  0  0
 24 25  1  0  0  0
 21 26  1  0  0  0
 26 27  1  0  0  0
 26 28  2  0  0  0
 10 11  1  0  0  0
 11 12  2  0  0  0
 11 13  1  0  0  0
 13 14  1  0  0  0
 14 15  2  0  0  0
 15  5  1  0  0  0
 14  8  1  0  0  0
 24 19  1  0  0  0
  3  4  1  0  0  0
 27 29  1  0  0  0
 27 30  1  0  0  0
 13 16  1  0  0  0
M  END
> <minimizedAffinity>
-7.35520

> <CNNscore>
0.2761590779

> <CNNaffinity>
5.6574587822

> <CNN_VS>
1.5623586178

> <CNNaffinity_variance>
0.0341161788

$$$$
[H]c1c([H])c(C(=O)N([H])[H])c([H])c(N([H])C(=O)c2c([H])c3c([H])nc(OC([H])([H])[H])nc3n([H])c2=O)c1Cl


 30 32  0  0  0  0  0  0  0  0999 V2000
  -86.8984   28.3944    0.2792 C   0  0  0  0  0  0  0  0  0  0  0  0
  -86.8841   28.7677   -0.9518 O   0  0  0  0  0  0  0  0  0  0  0  0
  -85.9751   28.9057    1.2130 N   0  0  0  0  0  0  0  0  0  0  0  0
  -86.0684   28.5088    2.1842 H   0  0  0  0  0  0  0  0  0  0  0  0
  -92.1265   24.7381    0.3786 C   0  0  0  0  0  0  0  0  0  0  0  0
  -92.2806   25.6956   -0.5795 N   0  0  0  0  0  0  0  0  0  0  0  0
  -91.3098   26.5990   -0.7878 C   0  0  0  0  0  0  0  0  0  0  0  0
  -90.1459   26.5533   -0.0209 C   0  0  0  0  0  0  0  0  0  0  0  0
  -89.1279   27.4447   -0.1924 C   0  0  0  0  0  0  0  0  0  0  0  0
  -87.9432   27.4183    0.5647 C   0  0  0  0  0  0  0  0  0  0  0  0
  -87.8940   26.4188    1.4960 C   0  0  0  0  0  0  0  0  0  0  0  0
  -86.9005   26.2880    2.2333 O   0  0  0  0  0  0  0  0  0  0  0  0
  -88.8999   25.5151    1.6864 N   0  0  0  0  0  0  0  0  0  0  0  0
  -90.0049   25.5856    0.9385 C   0  0  0  0  0  0  0  0  0  0  0  0
  -91.0042   24.7056    1.1079 N   0  0  0  0  0  0  0  0  0  0  0  0
  -88.8406   24.7624    2.4002 H   0  0  0  0  0  0  0  0  0  0  0  0
  -94.3738   24.0240   -0.1183 C   0  0  0  0  0  0  0  0  0  0  0  0
  -93.1558   23.8385    0.5465 O   0  0  0  0  0  0  0  0  0  0  0  0
  -84.9453   29.8493    1.0089 C   0  0  0  0  0  0  0  0  0  0  0  0
  -85.0491   31.0116    0.2814 C   0  0  0  0  0  0  0  0  0  0  0  0
  -83.9932   31.9121    0.1108 C   0  0  0  0  0  0  0  0  0  0  0  0
  -82.8019   31.5939    0.7110 C   0  0  0  0  0  0  0  0  0  0  0  0
  -82.6581   30.4337    1.4511 C   0  0  0  0  0  0  0  0  0  0  0  0
  -83.7060   29.5620    1.6077 C   0  0  0  0  0  0  0  0  0  0  0  0
  -83.4377   28.1204    2.5604 Cl  0  0  0  0  0  0  0  0  0  0  0  0
  -84.1572   33.1278   -0.6748 C   0  0  0  0  0  0  0  0  0  0  0  0
  -85.1859   33.2647   -1.6091 N   0  0  0  0  0  0  0  0  0  0  0  0
  -83.3663   34.1043   -0.5333 O   0  0  0  0  0  0  0  0  0  0  0  0
  -84.9561   33.4453   -2.6289 H   0  0  0  0  0  0  0  0  0  0  0  0
  -86.2167   33.2040   -1.4044 H   0  0  0  0  0  0  0  0  0  0  0  0
 17 18  1  0  0  0
 18  5  1  0  0  0
  5  6  2  0  0  0
  6  7  1  0  0  0
  7  8  2  0  0  0
  8  9  1  0  0  0
  9 10  2  0  0  0
 10  1  1  0  0  0
  1  2  2  0  0  0
  1  3  1  0  0  0
  3 19  1  0  0  0
 19 20  2  0  0  0
 20 21  1  0  0  0
 21 22  2  0  0  0
 22 23  1  0  0  0
 23 24  2  0  0  0
 24 25  1  0  0  0
 21 26  1  0  0  0
 26 27  1  0  0  0
 26 28  2  0  0  0
 10 11  1  0  0  0
 11 12  2  0  0  0
 11 13  1  0  0  0
 13 14  1  0  0  0
 14 15  2  0  0  0
 15  5  1  0  0  0
 14  8  1  0  0  0
 24 19  1  0  0  0
  3  4  1  0  0  0
 27 29  1  0  0  0
 27 30  1  0  0  0
 13 16  1  0  0  0
M  END
> <minimizedAffinity>
-8.75306

> <CNNscore>
0.2088183314

> <CNNaffinity>
6.2026467323

> <CNN_VS>
1.2952263355

> <CNNaffinity_variance>
0.2897015214

$$$$
[H]c1c([H])c(C(=O)N([H])[H])c([H])c(N([H])C(=O)c2c([H])c3c([H])nc(OC([H])([H])[H])nc3n([H])c2=O)c1Cl


 30 32  0  0  0  0  0  0  0  0999 V2000
  -87.8084   34.5708   -3.2016 C   0  0  0  0  0  0  0  0  0  0  0  0
  -88.2066   35.7011   -2.7338 O   0  0  0  0  0  0  0  0  0  0  0  0
  -87.9046   34.2686   -4.5746 N   0  0  0  0  0  0  0  0  0  0  0  0
  -87.5694   33.3049   -4.8360 H   0  0  0  0  0  0  0  0  0  0  0  0
  -84.2355   31.4480    1.0639 C   0  0  0  0  0  0  0  0  0  0  0  0
  -83.4396   32.3185    0.3803 N   0  0  0  0  0  0  0  0  0  0  0  0
  -83.9633   33.0902   -0.5851 C   0  0  0  0  0  0  0  0  0  0  0  0
  -85.3222   32.9971   -0.8846 C   0  0  0  0  0  0  0  0  0  0  0  0
  -85.9060   33.7589   -1.8537 C   0  0  0  0  0  0  0  0  0  0  0  0
  -87.2736   33.6869   -2.1727 C   0  0  0  0  0  0  0  0  0  0  0  0
  -87.9773   32.7825   -1.4272 C   0  0  0  0  0  0  0  0  0  0  0  0
  -89.1967   32.6201   -1.6131 O   0  0  0  0  0  0  0  0  0  0  0  0
  -87.4154   32.0088   -0.4523 N   0  0  0  0  0  0  0  0  0  0  0  0
  -86.1099   32.1178   -0.1896 C   0  0  0  0  0  0  0  0  0  0  0  0
  -85.5385   31.3684    0.7662 N   0  0  0  0  0  0  0  0  0  0  0  0
  -87.9701   31.3280    0.1030 H   0  0  0  0  0  0  0  0  0  0  0  0
  -82.8761   29.5626    1.6997 C   0  0  0  0  0  0  0  0  0  0  0  0
  -83.6423   30.6827    2.0434 O   0  0  0  0  0  0  0  0  0  0  0  0
  -88.4053   35.0724   -5.6215 C   0  0  0  0  0  0  0  0  0  0  0  0
  -87.7302   36.0938   -6.2475 C   0  0  0  0  0  0  0  0  0  0  0  0
  -88.2767   36.8603   -7.2814 C   0  0  0  0  0  0  0  0  0  0  0  0
  -89.5558   36.5561   -7.6712 C   0  0  0  0  0  0  0  0  0  0  0  0
  -90.2675   35.5356   -7.0656 C   0  0  0  0  0  0  0  0  0  0  0  0
  -89.7143   34.7940   -6.0526 C   0  0  0  0  0  0  0  0  0  0  0  0
  -90.6833   33.5222   -5.3444 Cl  0  0  0  0  0  0  0  0  0  0  0  0
  -87.5178   37.9348   -7.9070 C   0  0  0  0  0  0  0  0  0  0  0  0
  -88.1216   39.1353   -8.2864 N   0  0  0  0  0  0  0  0  0  0  0  0
  -86.2786   37.8120   -8.1273 O   0  0  0  0  0  0  0  0  0  0  0  0
  -88.0990   39.4433   -9.3014 H   0  0  0  0  0  0  0  0  0  0  0  0
  -88.6239   39.8023   -7.6454 H   0  0  0  0  0  0  0  0  0  0  0  0
 17 18  1  0  0  0
 18  5  1  0  0  0
  5  6  2  0  0  0
  6  7  1  0  0  0
  7  8  2  0  0  0
  8  9  1  0  0  0
  9 10  2  0  0  0
 10  1  1  0  0  0
  1  2  2  0  0  0
  1  3  1  0  0  0
  3 19  1  0  0  0
 19 20  2  0  0  0
 20 21  1  0  0  0
 21 22  2  0  0  0
 22 23  1  0  0  0
 23 24  2  0  0  0
 24 25  1  0  0  0
 21 26  1  0  0  0
 26 27  1  0  0  0
 26 28  2  0  0  0
 10 11  1  0  0  0
 11 12  2  0  0  0
 11 13  1  0  0  0
 13 14  1  0  0  0
 14 15  2  0  0  0
 15  5  1  0  0  0
 14  8  1  0  0  0
 24 19  1  0  0  0
  3  4  1  0  0  0
 27 29  1  0  0  0
 27 30  1  0  0  0
 13 16  1  0  0  0
M  END
> <minimizedAffinity>
-7.59500

> <CNNscore>
0.2012324780

> <CNNaffinity>
5.6834006310

> <CNN_VS>
1.1436847448

> <CNNaffinity_variance>
0.1530664116

$$$$
[H]N=C(OC([H])([H])[H])c1nc2c([H])c([H])c3nc([H])nc(N([H])c4c([H])c([H])c5c(c4[H])OC([H])([H])O5)c3c2s1


 29 33  0  0  0  0  0  0  0  0999 V2000
  -86.5941   32.5071   -0.8779 C   0  0  0  0  0  0  0  0  0  0  0  0
  -85.3596   32.7352   -0.4806 N   0  0  0  0  0  0  0  0  0  0  0  0
  -84.7074   31.8273    0.1930 C   0  0  0  0  0  0  0  0  0  0  0  0
  -83.3894   31.9612    0.6767 C   0  0  0  0  0  0  0  0  0  0  0  0
  -82.8442   30.9340    1.3701 C   0  0  0  0  0  0  0  0  0  0  0  0
  -83.4850   29.7511    1.6437 C   0  0  0  0  0  0  0  0  0  0  0  0
  -82.9347   28.7517    2.3383 N   0  0  0  0  0  0  0  0  0  0  0  0
  -83.6483   27.6183    2.5703 C   0  0  0  0  0  0  0  0  0  0  0  0
  -84.8861   27.4901    2.1148 N   0  0  0  0  0  0  0  0  0  0  0  0
  -85.5260   28.4618    1.3951 C   0  0  0  0  0  0  0  0  0  0  0  0
  -84.7825   29.5900    1.1798 C   0  0  0  0  0  0  0  0  0  0  0  0
  -85.3512   30.6443    0.4653 C   0  0  0  0  0  0  0  0  0  0  0  0
  -86.8686   30.9474   -0.2857 S   0  0  0  0  0  0  0  0  0  0  0  0
  -87.5362   33.3204   -1.6279 C   0  0  0  0  0  0  0  0  0  0  0  0
  -88.7864   33.0623   -1.5590 N   0  0  0  0  0  0  0  0  0  0  0  0
  -89.4681   33.6313   -2.0863 H   0  0  0  0  0  0  0  0  0  0  0  0
  -87.9399   35.1520   -3.2197 C   0  0  0  0  0  0  0  0  0  0  0  0
  -87.0943   34.3613   -2.4084 O   0  0  0  0  0  0  0  0  0  0  0  0
  -86.8156   28.2321    0.8875 N   0  0  0  0  0  0  0  0  0  0  0  0
  -87.1275   28.5766   -0.0077 H   0  0  0  0  0  0  0  0  0  0  0  0
  -87.8088   27.4590    1.5949 C   0  0  0  0  0  0  0  0  0  0  0  0
  -88.3903   26.3505    0.9599 C   0  0  0  0  0  0  0  0  0  0  0  0
  -89.3603   25.5687    1.5159 C   0  0  0  0  0  0  0  0  0  0  0  0
  -89.7851   25.9028    2.7834 C   0  0  0  0  0  0  0  0  0  0  0  0
  -90.7458   25.2897    3.5792 O   0  0  0  0  0  0  0  0  0  0  0  0
  -91.0399   26.1868    4.6350 C   0  0  0  0  0  0  0  0  0  0  0  0
  -89.8983   27.0277    4.6876 O   0  0  0  0  0  0  0  0  0  0  0  0
  -89.2671   26.9651    3.4608 C   0  0  0  0  0  0  0  0  0  0  0  0
  -88.2704   27.7411    2.8468 C   0  0  0  0  0  0  0  0  0  0  0  0
 17 18  1  0  0  0
 18 14  1  0  0  0
 14 15  2  0  0  0
 14  1  1  0  0  0
  1  2  2  0  0  0
  2  3  1  0  0  0
  3  4  2  0  0  0
  4  5  1  0  0  0
  5  6  2  0  0  0
  6  7  1  0  0  0
  7  8  2  0  0  0
  8  9  1  0  0  0
  9 10  2  0  0  0
 10 19  1  0  0  0
 19 21  1  0  0  0
 21 22  2  0  0  0
 22 23  1  0  0  0
 23 24  2  0  0  0
 24 25  1  0  0  0
 25 26  1  0  0  0
 26 27  1  0  0  0
 27 28  1  0  0  0
 28 29  2  0  0  0
 10 11  1  0  0  0
 11 12  2  0  0  0
 12 13  1  0  0  0
 13  1  1  0  0  0
 12  3  1  0  0  0
 11  6  1  0  0  0
 29 21  1  0  0  0
 28 24  1  0  0  0
 15 16  1  0  0  0
 19 20  1  0  0  0
M  END
> <minimizedAffinity>
-9.09496

> <CNNscore>
0.6717185378

> <CNNaffinity>
7.0106391907

> <CNN_VS>
4.7091765404

> <CNNaffinity_variance>
0.1536498815

$$$$
[H]N=C(OC([H])([H])[H])c1nc2c([H])c([H])c3nc([H])nc(N([H])c4c([H])c([H])c5c(c4[H])OC([H])([H])O5)c3c2s1


 29 33  0  0  0  0  0  0  0  0999 V2000
  -86.1176   32.7395   -1.2851 C   0  0  0  0  0  0  0  0  0  0  0  0
  -84.8936   32.8536   -0.8129 N   0  0  0  0  0  0  0  0  0  0  0  0
  -84.3915   31.9172   -0.0551 C   0  0  0  0  0  0  0  0  0  0  0  0
  -83.1010   31.9332    0.5135 C   0  0  0  0  0  0  0  0  0  0  0  0
  -82.7194   30.8909    1.2888 C   0  0  0  0  0  0  0  0  0  0  0  0
  -83.5041   29.8000    1.5696 C   0  0  0  0  0  0  0  0  0  0  0  0
  -83.1146   28.7847    2.3453 N   0  0  0  0  0  0  0  0  0  0  0  0
  -83.9632   27.7486    2.5772 C   0  0  0  0  0  0  0  0  0  0  0  0
  -85.1755   27.7310    2.0422 N   0  0  0  0  0  0  0  0  0  0  0  0
  -85.6553   28.7271    1.2365 C   0  0  0  0  0  0  0  0  0  0  0  0
  -84.7787   29.7557    1.0235 C   0  0  0  0  0  0  0  0  0  0  0  0
  -85.1791   30.8264    0.2242 C   0  0  0  0  0  0  0  0  0  0  0  0
  -86.6015   31.2517   -0.6443 S   0  0  0  0  0  0  0  0  0  0  0  0
  -86.9127   33.6094   -2.1352 C   0  0  0  0  0  0  0  0  0  0  0  0
  -86.3570   34.2119   -3.1162 N   0  0  0  0  0  0  0  0  0  0  0  0
  -86.9089   34.8334   -3.7292 H   0  0  0  0  0  0  0  0  0  0  0  0
  -89.2047   34.0733   -2.8988 C   0  0  0  0  0  0  0  0  0  0  0  0
  -88.2532   33.7885   -1.8928 O   0  0  0  0  0  0  0  0  0  0  0  0
  -86.9269   28.6116    0.6505 N   0  0  0  0  0  0  0  0  0  0  0  0
  -87.2534   29.2172   -0.0872 H   0  0  0  0  0  0  0  0  0  0  0  0
  -87.8777   27.5964    1.0374 C   0  0  0  0  0  0  0  0  0  0  0  0
  -88.4217   27.6282    2.3310 C   0  0  0  0  0  0  0  0  0  0  0  0
  -89.3003   26.7048    2.8172 C   0  0  0  0  0  0  0  0  0  0  0  0
  -89.6671   25.6814    1.9706 C   0  0  0  0  0  0  0  0  0  0  0  0
  -90.5338   24.6188    2.1990 O   0  0  0  0  0  0  0  0  0  0  0  0
  -90.3243   23.6847    1.1551 C   0  0  0  0  0  0  0  0  0  0  0  0
  -89.7365   24.4615    0.1236 O   0  0  0  0  0  0  0  0  0  0  0  0
  -89.1798   25.5853    0.7022 C   0  0  0  0  0  0  0  0  0  0  0  0
  -88.2769   26.5597    0.2463 C   0  0  0  0  0  0  0  0  0  0  0  0
 17 18  1  0  0  0
 18 14  1  0  0  0
 14 15  2  0  0  0
 14  1  1  0  0  0
  1  2  2  0  0  0
  2  3  1  0  0  0
  3  4  2  0  0  0
  4  5  1  0  0  0
  5  6  2  0  0  0
  6  7  1  0  0  0
  7  8  2  0  0  0
  8  9  1  0  0  0
  9 10  2  0  0  0
 10 19  1  0  0  0
 19 21  1  0  0  0
 21 22  2  0  0  0
 22 23  1  0  0  0
 23 24  2  0  0  0
 24 25  1  0  0  0
 25 26  1  0  0  0
 26 27  1  0  0  0
 27 28  1  0  0  0
 28 29  2  0  0  0
 10 11  1  0  0  0
 11 12  2  0  0  0
 12 13  1  0  0  0
 13  1  1  0  0  0
 12  3  1  0  0  0
 11  6  1  0  0  0
 29 21  1  0  0  0
 28 24  1  0  0  0
 15 16  1  0  0  0
 19 20  1  0  0  0
M  END
> <minimizedAffinity>
-9.04515

> <CNNscore>
0.6704435945

> <CNNaffinity>
7.0632834435

> <CNN_VS>
4.7355332375

> <CNNaffinity_variance>
0.1296686530

$$$$
[H]N=C(OC([H])([H])[H])c1nc2c([H])c([H])c3nc([H])nc(N([H])c4c([H])c([H])c5c(c4[H])OC([H])([H])O5)c3c2s1


 29 33  0  0  0  0  0  0  0  0999 V2000
  -86.1578   33.1964   -1.6702 C   0  0  0  0  0  0  0  0  0  0  0  0
  -84.8822   33.3041   -1.3616 N   0  0  0  0  0  0  0  0  0  0  0  0
  -84.3234   32.4362   -0.5630 C   0  0  0  0  0  0  0  0  0  0  0  0
  -82.9734   32.4542   -0.1556 C   0  0  0  0  0  0  0  0  0  0  0  0
  -82.5357   31.4890    0.6868 C   0  0  0  0  0  0  0  0  0  0  0  0
  -83.3170   30.4756    1.1842 C   0  0  0  0  0  0  0  0  0  0  0  0
  -82.8705   29.5368    2.0229 N   0  0  0  0  0  0  0  0  0  0  0  0
  -83.7193   28.5754    2.4733 C   0  0  0  0  0  0  0  0  0  0  0  0
  -84.9877   28.5557    2.0900 N   0  0  0  0  0  0  0  0  0  0  0  0
  -85.5281   29.4764    1.2345 C   0  0  0  0  0  0  0  0  0  0  0  0
  -84.6495   30.4312    0.8005 C   0  0  0  0  0  0  0  0  0  0  0  0
  -85.1078   31.4228   -0.0668 C   0  0  0  0  0  0  0  0  0  0  0  0
  -86.6103   31.8152   -0.8063 S   0  0  0  0  0  0  0  0  0  0  0  0
  -87.0207   34.0019   -2.5176 C   0  0  0  0  0  0  0  0  0  0  0  0
  -86.5317   34.5787   -3.5484 N   0  0  0  0  0  0  0  0  0  0  0  0
  -87.1323   35.1545   -4.1602 H   0  0  0  0  0  0  0  0  0  0  0  0
  -89.3584   34.3697   -3.1895 C   0  0  0  0  0  0  0  0  0  0  0  0
  -88.3540   34.1479   -2.2196 O   0  0  0  0  0  0  0  0  0  0  0  0
  -86.8648   29.3567    0.8195 N   0  0  0  0  0  0  0  0  0  0  0  0
  -87.4552   30.1496    0.6189 H   0  0  0  0  0  0  0  0  0  0  0  0
  -87.5110   28.0812    0.6196 C   0  0  0  0  0  0  0  0  0  0  0  0
  -87.4074   27.4521   -0.6309 C   0  0  0  0  0  0  0  0  0  0  0  0
  -88.0025   26.2653   -0.9449 C   0  0  0  0  0  0  0  0  0  0  0  0
  -88.7498   25.6583    0.0408 C   0  0  0  0  0  0  0  0  0  0  0  0
  -89.4553   24.4613   -0.0016 O   0  0  0  0  0  0  0  0  0  0  0  0
  -90.3044   24.4431    1.1318 C   0  0  0  0  0  0  0  0  0  0  0  0
  -89.6939   25.3637    2.0223 O   0  0  0  0  0  0  0  0  0  0  0  0
  -88.8956   26.2099    1.2778 C   0  0  0  0  0  0  0  0  0  0  0  0
  -88.2643   27.4336    1.5541 C   0  0  0  0  0  0  0  0  0  0  0  0
 17 18  1  0  0  0
 18 14  1  0  0  0
 14 15  2  0  0  0
 14  1  1  0  0  0
  1  2  2  0  0  0
  2  3  1  0  0  0
  3  4  2  0  0  0
  4  5  1  0  0  0
  5  6  2  0  0  0
  6  7  1  0  0  0
  7  8  2  0  0  0
  8  9  1  0  0  0
  9 10  2  0  0  0
 10 19  1  0  0  0
 19 21  1  0  0  0
 21 22  2  0  0  0
 22 23  1  0  0  0
 23 24  2  0  0  0
 24 25  1  0  0  0
 25 26  1  0  0  0
 26 27  1  0  0  0
 27 28  1  0  0  0
 28 29  2  0  0  0
 10 11  1  0  0  0
 11 12  2  0  0  0
 12 13  1  0  0  0
 13  1  1  0  0  0
 12  3  1  0  0  0
 11  6  1  0  0  0
 29 21  1  0  0  0
 28 24  1  0  0  0
 15 16  1  0  0  0
 19 20  1  0  0  0
M  END
> <minimizedAffinity>
-9.15845

> <CNNscore>
0.6633697152

> <CNNaffinity>
7.0613923073

> <CNN_VS>
4.6843137741

> <CNNaffinity_variance>
0.2112368047

$$$$
[H]N=C(OC([H])([H])[H])c1nc2c([H])c([H])c3nc([H])nc(N([H])c4c([H])c([H])c5c(c4[H])OC([H])([H])O5)c3c2s1


 29 33  0  0  0  0  0  0  0  0999 V2000
  -86.9698   27.1712    1.7950 C   0  0  0  0  0  0  0  0  0  0  0  0
  -85.7245   27.0856    2.2144 N   0  0  0  0  0  0  0  0  0  0  0  0
  -84.8834   28.0554    1.9791 C   0  0  0  0  0  0  0  0  0  0  0  0
  -83.5284   28.0721    2.3698 C   0  0  0  0  0  0  0  0  0  0  0  0
  -82.7721   29.1474    2.0465 C   0  0  0  0  0  0  0  0  0  0  0  0
  -83.2289   30.2426    1.3561 C   0  0  0  0  0  0  0  0  0  0  0  0
  -82.4653   31.2910    1.0369 N   0  0  0  0  0  0  0  0  0  0  0  0
  -83.0008   32.3289    0.3416 C   0  0  0  0  0  0  0  0  0  0  0  0
  -84.2743   32.3158   -0.0246 N   0  0  0  0  0  0  0  0  0  0  0  0
  -85.1270   31.2846    0.2602 C   0  0  0  0  0  0  0  0  0  0  0  0
  -84.5582   30.2551    0.9591 C   0  0  0  0  0  0  0  0  0  0  0  0
  -85.3435   29.1504    1.2880 C   0  0  0  0  0  0  0  0  0  0  0  0
  -86.9779   28.6797    1.0315 S   0  0  0  0  0  0  0  0  0  0  0  0
  -88.0970   26.2620    1.9150 C   0  0  0  0  0  0  0  0  0  0  0  0
  -88.4107   25.5130    0.9277 N   0  0  0  0  0  0  0  0  0  0  0  0
  -89.2092   24.8617    0.9977 H   0  0  0  0  0  0  0  0  0  0  0  0
  -89.5551   27.2910    3.6081 C   0  0  0  0  0  0  0  0  0  0  0  0
  -88.8258   26.2020    3.0782 O   0  0  0  0  0  0  0  0  0  0  0  0
  -86.4818   31.3668   -0.1024 N   0  0  0  0  0  0  0  0  0  0  0  0
  -87.2293   30.9909    0.4610 H   0  0  0  0  0  0  0  0  0  0  0  0
  -86.9308   32.0200   -1.3091 C   0  0  0  0  0  0  0  0  0  0  0  0
  -87.4702   31.2425   -2.3458 C   0  0  0  0  0  0  0  0  0  0  0  0
  -87.8945   31.7448   -3.5411 C   0  0  0  0  0  0  0  0  0  0  0  0
  -87.7791   33.1054   -3.7262 C   0  0  0  0  0  0  0  0  0  0  0  0
  -88.1280   33.8757   -4.8294 O   0  0  0  0  0  0  0  0  0  0  0  0
  -87.5217   35.1438   -4.6549 C   0  0  0  0  0  0  0  0  0  0  0  0
  -87.2868   35.2130   -3.2573 O   0  0  0  0  0  0  0  0  0  0  0  0
  -87.2650   33.9226   -2.7653 C   0  0  0  0  0  0  0  0  0  0  0  0
  -86.8407   33.3592   -1.5508 C   0  0  0  0  0  0  0  0  0  0  0  0
 17 18  1  0  0  0
 18 14  1  0  0  0
 14 15  2  0  0  0
 14  1  1  0  0  0
  1  2  2  0  0  0
  2  3  1  0  0  0
  3  4  2  0  0  0
  4  5  1  0  0  0
  5  6  2  0  0  0
  6  7  1  0  0  0
  7  8  2  0  0  0
  8  9  1  0  0  0
  9 10  2  0  0  0
 10 19  1  0  0  0
 19 21  1  0  0  0
 21 22  2  0  0  0
 22 23  1  0  0  0
 23 24  2  0  0  0
 24 25  1  0  0  0
 25 26  1  0  0  0
 26 27  1  0  0  0
 27 28  1  0  0  0
 28 29  2  0  0  0
 10 11  1  0  0  0
 11 12  2  0  0  0
 12 13  1  0  0  0
 13  1  1  0  0  0
 12  3  1  0  0  0
 11  6  1  0  0  0
 29 21  1  0  0  0
 28 24  1  0  0  0
 15 16  1  0  0  0
 19 20  1  0  0  0
M  END
> <minimizedAffinity>
-9.58386

> <CNNscore>
0.6548636556

> <CNNaffinity>
7.0750670433

> <CNN_VS>
4.6332044601

> <CNNaffinity_variance>
0.1678142697

$$$$
[H]N=C(OC([H])([H])[H])c1nc2c([H])c([H])c3nc([H])nc(N([H])c4c([H])c([H])c5c(c4[H])OC([H])([H])O5)c3c2s1


 29 33  0  0  0  0  0  0  0  0999 V2000
  -85.2474   32.0579   -0.0909 C   0  0  0  0  0  0  0  0  0  0  0  0
  -85.8540   32.9783   -0.8113 N   0  0  0  0  0  0  0  0  0  0  0  0
  -87.0455   32.7552   -1.2947 C   0  0  0  0  0  0  0  0  0  0  0  0
  -87.7873   33.6583   -2.0841 C   0  0  0  0  0  0  0  0  0  0  0  0
  -89.0117   33.2833   -2.5236 C   0  0  0  0  0  0  0  0  0  0  0  0
  -89.5986   32.0714   -2.2559 C   0  0  0  0  0  0  0  0  0  0  0  0
  -90.8043   31.7144   -2.7064 N   0  0  0  0  0  0  0  0  0  0  0  0
  -91.3033   30.4879   -2.3994 C   0  0  0  0  0  0  0  0  0  0  0  0
  -90.6085   29.6388   -1.6561 N   0  0  0  0  0  0  0  0  0  0  0  0
  -89.3681   29.9219   -1.1532 C   0  0  0  0  0  0  0  0  0  0  0  0
  -88.8931   31.1624   -1.4808 C   0  0  0  0  0  0  0  0  0  0  0  0
  -87.6306   31.5414   -1.0250 C   0  0  0  0  0  0  0  0  0  0  0  0
  -86.3908   30.8125   -0.0816 S   0  0  0  0  0  0  0  0  0  0  0  0
  -83.9479   32.0373    0.5591 C   0  0  0  0  0  0  0  0  0  0  0  0
  -83.0108   32.7870    0.1188 N   0  0  0  0  0  0  0  0  0  0  0  0
  -82.0818   32.7834    0.5700 H   0  0  0  0  0  0  0  0  0  0  0  0
  -83.0062   30.0019    1.5700 C   0  0  0  0  0  0  0  0  0  0  0  0
  -83.7199   31.2203    1.6400 O   0  0  0  0  0  0  0  0  0  0  0  0
  -88.7164   28.9992   -0.3181 N   0  0  0  0  0  0  0  0  0  0  0  0
  -87.7784   28.6678   -0.4852 H   0  0  0  0  0  0  0  0  0  0  0  0
  -89.3247   28.4562    0.8734 C   0  0  0  0  0  0  0  0  0  0  0  0
  -90.5044   29.0382    1.3633 C   0  0  0  0  0  0  0  0  0  0  0  0
  -91.1477   28.6324    2.4959 C   0  0  0  0  0  0  0  0  0  0  0  0
  -90.5899   27.5821    3.1918 C   0  0  0  0  0  0  0  0  0  0  0  0
  -91.0269   26.9711    4.3615 O   0  0  0  0  0  0  0  0  0  0  0  0
  -89.9547   26.1771    4.8369 C   0  0  0  0  0  0  0  0  0  0  0  0
  -89.1562   25.9673    3.6831 O   0  0  0  0  0  0  0  0  0  0  0  0
  -89.4466   26.9686    2.7771 C   0  0  0  0  0  0  0  0  0  0  0  0
  -88.8197   27.4220    1.6050 C   0  0  0  0  0  0  0  0  0  0  0  0
 17 18  1  0  0  0
 18 14  1  0  0  0
 14 15  2  0  0  0
 14  1  1  0  0  0
  1  2  2  0  0  0
  2  3  1  0  0  0
  3  4  2  0  0  0
  4  5  1  0  0  0
  5  6  2  0  0  0
  6  7  1  0  0  0
  7  8  2  0  0  0
  8  9  1  0  0  0
  9 10  2  0  0  0
 10 19  1  0  0  0
 19 21  1  0  0  0
 21 22  2  0  0  0
 22 23  1  0  0  0
 23 24  2  0  0  0
 24 25  1  0  0  0
 25 26  1  0  0  0
 26 27  1  0  0  0
 27 28  1  0  0  0
 28 29  2  0  0  0
 10 11  1  0  0  0
 11 12  2  0  0  0
 12 13  1  0  0  0
 13  1  1  0  0  0
 12  3  1  0  0  0
 11  6  1  0  0  0
 29 21  1  0  0  0
 28 24  1  0  0  0
 15 16  1  0  0  0
 19 20  1  0  0  0
M  END
> <minimizedAffinity>
-8.10101

> <CNNscore>
0.4352862537

> <CNNaffinity>
6.6812224388

> <CNN_VS>
2.9082443714

> <CNNaffinity_variance>
0.0796621814

$$$$
[H]N=C(OC([H])([H])[H])c1nc2c([H])c([H])c3nc([H])nc(N([H])c4c([H])c([H])c5c(c4[H])OC([H])([H])O5)c3c2s1


 29 33  0  0  0  0  0  0  0  0999 V2000
  -87.0875   28.0110    1.7897 C   0  0  0  0  0  0  0  0  0  0  0  0
  -85.7804   28.0859    1.9307 N   0  0  0  0  0  0  0  0  0  0  0  0
  -85.1268   29.1152    1.4652 C   0  0  0  0  0  0  0  0  0  0  0  0
  -83.7313   29.3005    1.5488 C   0  0  0  0  0  0  0  0  0  0  0  0
  -83.1908   30.4190    1.0104 C   0  0  0  0  0  0  0  0  0  0  0  0
  -83.9076   31.4047    0.3785 C   0  0  0  0  0  0  0  0  0  0  0  0
  -83.3561   32.4976   -0.1560 N   0  0  0  0  0  0  0  0  0  0  0  0
  -84.1435   33.4182   -0.7724 C   0  0  0  0  0  0  0  0  0  0  0  0
  -85.4553   33.2466   -0.8502 N   0  0  0  0  0  0  0  0  0  0  0  0
  -86.1025   32.1591   -0.3305 C   0  0  0  0  0  0  0  0  0  0  0  0
  -85.2829   31.2506    0.2816 C   0  0  0  0  0  0  0  0  0  0  0  0
  -85.8469   30.1004    0.8334 C   0  0  0  0  0  0  0  0  0  0  0  0
  -87.4323   29.4468    0.9660 S   0  0  0  0  0  0  0  0  0  0  0  0
  -88.0501   27.0036    2.2020 C   0  0  0  0  0  0  0  0  0  0  0  0
  -87.8974   25.7927    1.8217 N   0  0  0  0  0  0  0  0  0  0  0  0
  -88.5732   25.0655    2.1065 H   0  0  0  0  0  0  0  0  0  0  0  0
  -89.6546   26.5014    3.9978 C   0  0  0  0  0  0  0  0  0  0  0  0
  -89.1199   27.3422    2.9950 O   0  0  0  0  0  0  0  0  0  0  0  0
  -87.5034   32.0741   -0.3922 N   0  0  0  0  0  0  0  0  0  0  0  0
  -88.1060   32.2943    0.3863 H   0  0  0  0  0  0  0  0  0  0  0  0
  -88.2120   31.6837   -1.5879 C   0  0  0  0  0  0  0  0  0  0  0  0
  -87.5141   31.6178   -2.8040 C   0  0  0  0  0  0  0  0  0  0  0  0
  -88.0850   31.2947   -4.0002 C   0  0  0  0  0  0  0  0  0  0  0  0
  -89.4348   31.0180   -3.9966 C   0  0  0  0  0  0  0  0  0  0  0  0
  -90.2631   30.6651   -5.0557 O   0  0  0  0  0  0  0  0  0  0  0  0
  -91.5969   30.8061   -4.6002 C   0  0  0  0  0  0  0  0  0  0  0  0
  -91.4774   30.7380   -3.1881 O   0  0  0  0  0  0  0  0  0  0  0  0
  -90.1768   31.0625   -2.8551 C   0  0  0  0  0  0  0  0  0  0  0  0
  -89.5448   31.4007   -1.6474 C   0  0  0  0  0  0  0  0  0  0  0  0
 17 18  1  0  0  0
 18 14  1  0  0  0
 14 15  2  0  0  0
 14  1  1  0  0  0
  1  2  2  0  0  0
  2  3  1  0  0  0
  3  4  2  0  0  0
  4  5  1  0  0  0
  5  6  2  0  0  0
  6  7  1  0  0  0
  7  8  2  0  0  0
  8  9  1  0  0  0
  9 10  2  0  0  0
 10 19  1  0  0  0
 19 21  1  0  0  0
 21 22  2  0  0  0
 22 23  1  0  0  0
 23 24  2  0  0  0
 24 25  1  0  0  0
 25 26  1  0  0  0
 26 27  1  0  0  0
 27 28  1  0  0  0
 28 29  2  0  0  0
 10 11  1  0  0  0
 11 12  2  0  0  0
 12 13  1  0  0  0
 13  1  1  0  0  0
 12  3  1  0  0  0
 11  6  1  0  0  0
 29 21  1  0  0  0
 28 24  1  0  0  0
 15 16  1  0  0  0
 19 20  1  0  0  0
M  END
> <minimizedAffinity>
-8.02377

> <CNNscore>
0.2592883110

> <CNNaffinity>
6.6645226479

> <CNN_VS>
1.7280328274

> <CNNaffinity_variance>
0.3327669501

$$$$
[H]N=C(OC([H])([H])[H])c1nc2c([H])c([H])c3nc([H])nc(N([H])c4c([H])c([H])c5c(c4[H])OC([H])([H])O5)c3c2s1


 29 33  0  0  0  0  0  0  0  0999 V2000
  -85.0451   30.3587    0.9410 C   0  0  0  0  0  0  0  0  0  0  0  0
  -85.3401   31.5259    0.4076 N   0  0  0  0  0  0  0  0  0  0  0  0
  -86.4709   31.6941   -0.2219 C   0  0  0  0  0  0  0  0  0  0  0  0
  -86.8905   32.8911   -0.8386 C   0  0  0  0  0  0  0  0  0  0  0  0
  -88.0907   32.9135   -1.4646 C   0  0  0  0  0  0  0  0  0  0  0  0
  -88.9469   31.8435   -1.5473 C   0  0  0  0  0  0  0  0  0  0  0  0
  -90.1237   31.8809   -2.1781 N   0  0  0  0  0  0  0  0  0  0  0  0
  -90.9034   30.7683   -2.2182 C   0  0  0  0  0  0  0  0  0  0  0  0
  -90.5116   29.6433   -1.6376 N   0  0  0  0  0  0  0  0  0  0  0  0
  -89.3239   29.5165   -0.9706 C   0  0  0  0  0  0  0  0  0  0  0  0
  -88.5616   30.6525   -0.9493 C   0  0  0  0  0  0  0  0  0  0  0  0
  -87.3260   30.6215   -0.3030 C   0  0  0  0  0  0  0  0  0  0  0  0
  -86.4102   29.4412    0.5495 S   0  0  0  0  0  0  0  0  0  0  0  0
  -83.8837   29.8988    1.6835 C   0  0  0  0  0  0  0  0  0  0  0  0
  -82.7343   30.3965    1.4278 N   0  0  0  0  0  0  0  0  0  0  0  0
  -81.8995   30.0798    1.9469 H   0  0  0  0  0  0  0  0  0  0  0  0
  -83.2594   27.7392    2.6824 C   0  0  0  0  0  0  0  0  0  0  0  0
  -84.0117   28.9358    2.6551 O   0  0  0  0  0  0  0  0  0  0  0  0
  -89.0020   28.3124   -0.3226 N   0  0  0  0  0  0  0  0  0  0  0  0
  -88.3717   27.6267   -0.7101 H   0  0  0  0  0  0  0  0  0  0  0  0
  -89.5291   27.9557    0.9733 C   0  0  0  0  0  0  0  0  0  0  0  0
  -90.5765   28.7159    1.5168 C   0  0  0  0  0  0  0  0  0  0  0  0
  -91.1298   28.4937    2.7439 C   0  0  0  0  0  0  0  0  0  0  0  0
  -90.6156   27.4516    3.4844 C   0  0  0  0  0  0  0  0  0  0  0  0
  -90.9833   27.0054    4.7485 O   0  0  0  0  0  0  0  0  0  0  0  0
  -89.9576   26.1355    5.1928 C   0  0  0  0  0  0  0  0  0  0  0  0
  -89.3202   25.7287    3.9923 O   0  0  0  0  0  0  0  0  0  0  0  0
  -89.5992   26.6714    3.0221 C   0  0  0  0  0  0  0  0  0  0  0  0
  -89.0612   26.9391    1.7527 C   0  0  0  0  0  0  0  0  0  0  0  0
 17 18  1  0  0  0
 18 14  1  0  0  0
 14 15  2  0  0  0
 14  1  1  0  0  0
  1  2  2  0  0  0
  2  3  1  0  0  0
  3  4  2  0  0  0
  4  5  1  0  0  0
  5  6  2  0  0  0
  6  7  1  0  0  0
  7  8  2  0  0  0
  8  9  1  0  0  0
  9 10  2  0  0  0
 10 19  1  0  0  0
 19 21  1  0  0  0
 21 22  2  0  0  0
 22 23  1  0  0  0
 23 24  2  0  0  0
 24 25  1  0  0  0
 25 26  1  0  0  0
 26 27  1  0  0  0
 27 28  1  0  0  0
 28 29  2  0  0  0
 10 11  1  0  0  0
 11 12  2  0  0  0
 12 13  1  0  0  0
 13  1  1  0  0  0
 12  3  1  0  0  0
 11  6  1  0  0  0
 29 21  1  0  0  0
 28 24  1  0  0  0
 15 16  1  0  0  0
 19 20  1  0  0  0
M  END
> <minimizedAffinity>
-8.43000

> <CNNscore>
0.2274260521

> <CNNaffinity>
6.3735322952

> <CNN_VS>
1.4495072365

> <CNNaffinity_variance>
0.1630337536

$$$$
[H]N=C(OC([H])([H])[H])c1nc2c([H])c([H])c3nc([H])nc(N([H])c4c([H])c([H])c5c(c4[H])OC([H])([H])O5)c3c2s1


 29 33  0  0  0  0  0  0  0  0999 V2000
  -87.6777   33.7537   -2.2527 C   0  0  0  0  0  0  0  0  0  0  0  0
  -86.3884   33.9753   -2.1025 N   0  0  0  0  0  0  0  0  0  0  0  0
  -85.6711   33.1934   -1.3426 C   0  0  0  0  0  0  0  0  0  0  0  0
  -84.2892   33.3363   -1.0998 C   0  0  0  0  0  0  0  0  0  0  0  0
  -83.6787   32.4502   -0.2781 C   0  0  0  0  0  0  0  0  0  0  0  0
  -84.3105   31.4046    0.3481 C   0  0  0  0  0  0  0  0  0  0  0  0
  -83.6938   30.5453    1.1639 N   0  0  0  0  0  0  0  0  0  0  0  0
  -84.4021   29.5439    1.7494 C   0  0  0  0  0  0  0  0  0  0  0  0
  -85.7003   29.4069    1.5208 N   0  0  0  0  0  0  0  0  0  0  0  0
  -86.4103   30.2400    0.7002 C   0  0  0  0  0  0  0  0  0  0  0  0
  -85.6700   31.2380    0.1276 C   0  0  0  0  0  0  0  0  0  0  0  0
  -86.3061   32.1475   -0.7172 C   0  0  0  0  0  0  0  0  0  0  0  0
  -87.9112   32.3852   -1.2876 S   0  0  0  0  0  0  0  0  0  0  0  0
  -88.6965   34.4473   -3.0223 C   0  0  0  0  0  0  0  0  0  0  0  0
  -89.8868   33.9824   -3.0560 N   0  0  0  0  0  0  0  0  0  0  0  0
  -90.6218   34.4641   -3.5986 H   0  0  0  0  0  0  0  0  0  0  0  0
  -89.2211   36.7390   -3.7467 C   0  0  0  0  0  0  0  0  0  0  0  0
  -88.3905   35.5956   -3.7122 O   0  0  0  0  0  0  0  0  0  0  0  0
  -87.7715   29.9965    0.4522 N   0  0  0  0  0  0  0  0  0  0  0  0
  -88.4996   30.6633    0.6587 H   0  0  0  0  0  0  0  0  0  0  0  0
  -88.2515   28.7726   -0.1446 C   0  0  0  0  0  0  0  0  0  0  0  0
  -87.3553   27.7096   -0.3367 C   0  0  0  0  0  0  0  0  0  0  0  0
  -87.6870   26.5216   -0.9198 C   0  0  0  0  0  0  0  0  0  0  0  0
  -88.9902   26.3723   -1.3417 C   0  0  0  0  0  0  0  0  0  0  0  0
  -89.5957   25.2838   -1.9588 O   0  0  0  0  0  0  0  0  0  0  0  0
  -90.8333   25.7391   -2.4757 C   0  0  0  0  0  0  0  0  0  0  0  0
  -91.1091   26.9008   -1.7092 O   0  0  0  0  0  0  0  0  0  0  0  0
  -89.9151   27.3606   -1.1891 C   0  0  0  0  0  0  0  0  0  0  0  0
  -89.5263   28.5666   -0.5833 C   0  0  0  0  0  0  0  0  0  0  0  0
 17 18  1  0  0  0
 18 14  1  0  0  0
 14 15  2  0  0  0
 14  1  1  0  0  0
  1  2  2  0  0  0
  2  3  1  0  0  0
  3  4  2  0  0  0
  4  5  1  0  0  0
  5  6  2  0  0  0
  6  7  1  0  0  0
  7  8  2  0  0  0
  8  9  1  0  0  0
  9 10  2  0  0  0
 10 19  1  0  0  0
 19 21  1  0  0  0
 21 22  2  0  0  0
 22 23  1  0  0  0
 23 24  2  0  0  0
 24 25  1  0  0  0
 25 26  1  0  0  0
 26 27  1  0  0  0
 27 28  1  0  0  0
 28 29  2  0  0  0
 10 11  1  0  0  0
 11 12  2  0  0  0
 12 13  1  0  0  0
 13  1  1  0  0  0
 12  3  1  0  0  0
 11  6  1  0  0  0
 29 21  1  0  0  0
 28 24  1  0  0  0
 15 16  1  0  0  0
 19 20  1  0  0  0
M  END
> <minimizedAffinity>
-7.75236

> <CNNscore>
0.1857862025

> <CNNaffinity>
6.4349641800

> <CNN_VS>
1.1955275536

> <CNNaffinity_variance>
0.2659328580

$$$$
[H]N=C(OC([H])([H])[H])c1nc2c([H])c([H])c3nc([H])nc(N([H])c4c([H])c([H])c5c(c4[H])OC([H])([H])O5)c3c2s1


 29 33  0  0  0  0  0  0  0  0999 V2000
  -84.8877   31.4754    0.3589 C   0  0  0  0  0  0  0  0  0  0  0  0
  -85.5682   32.4824   -0.1480 N   0  0  0  0  0  0  0  0  0  0  0  0
  -86.7660   32.2904   -0.6293 C   0  0  0  0  0  0  0  0  0  0  0  0
  -87.5833   33.2863   -1.2030 C   0  0  0  0  0  0  0  0  0  0  0  0
  -88.8046   32.9352   -1.6700 C   0  0  0  0  0  0  0  0  0  0  0  0
  -89.3192   31.6632   -1.6278 C   0  0  0  0  0  0  0  0  0  0  0  0
  -90.5231   31.3329   -2.1027 N   0  0  0  0  0  0  0  0  0  0  0  0
  -90.9478   30.0439   -2.0274 C   0  0  0  0  0  0  0  0  0  0  0  0
  -90.1819   29.1072   -1.4868 N   0  0  0  0  0  0  0  0  0  0  0  0
  -88.9375   29.3568   -0.9761 C   0  0  0  0  0  0  0  0  0  0  0  0
  -88.5384   30.6623   -1.0681 C   0  0  0  0  0  0  0  0  0  0  0  0
  -87.2786   31.0162   -0.5855 C   0  0  0  0  0  0  0  0  0  0  0  0
  -85.9666   30.1892    0.1582 S   0  0  0  0  0  0  0  0  0  0  0  0
  -83.5633   31.4024    0.9523 C   0  0  0  0  0  0  0  0  0  0  0  0
  -82.6204   32.1253    0.4805 N   0  0  0  0  0  0  0  0  0  0  0  0
  -81.6737   32.0845    0.8915 H   0  0  0  0  0  0  0  0  0  0  0  0
  -82.6734   29.3117    1.8950 C   0  0  0  0  0  0  0  0  0  0  0  0
  -83.3179   30.5644    2.0131 O   0  0  0  0  0  0  0  0  0  0  0  0
  -88.2072   28.3278   -0.3587 N   0  0  0  0  0  0  0  0  0  0  0  0
  -87.2465   28.1188   -0.5842 H   0  0  0  0  0  0  0  0  0  0  0  0
  -88.7613   27.4867    0.6757 C   0  0  0  0  0  0  0  0  0  0  0  0
  -89.1670   26.1828    0.3507 C   0  0  0  0  0  0  0  0  0  0  0  0
  -89.7336   25.3122    1.2351 C   0  0  0  0  0  0  0  0  0  0  0  0
  -89.9120   25.7577    2.5268 C   0  0  0  0  0  0  0  0  0  0  0  0
  -90.4563   25.0925    3.6193 O   0  0  0  0  0  0  0  0  0  0  0  0
  -90.7115   26.0704    4.6117 C   0  0  0  0  0  0  0  0  0  0  0  0
  -89.8530   27.1420    4.2543 O   0  0  0  0  0  0  0  0  0  0  0  0
  -89.5432   27.0103    2.9148 C   0  0  0  0  0  0  0  0  0  0  0  0
  -88.9642   27.8712    1.9683 C   0  0  0  0  0  0  0  0  0  0  0  0
 17 18  1  0  0  0
 18 14  1  0  0  0
 14 15  2  0  0  0
 14  1  1  0  0  0
  1  2  2  0  0  0
  2  3  1  0  0  0
  3  4  2  0  0  0
  4  5  1  0  0  0
  5  6  2  0  0  0
  6  7  1  0  0  0
  7  8  2  0  0  0
  8  9  1  0  0  0
  9 10  2  0  0  0
 10 19  1  0  0  0
 19 21  1  0  0  0
 21 22  2  0  0  0
 22 23  1  0  0  0
 23 24  2  0  0  0
 24 25  1  0  0  0
 25 26  1  0  0  0
 26 27  1  0  0  0
 27 28  1  0  0  0
 28 29  2  0  0  0
 10 11  1  0  0  0
 11 12  2  0  0  0
 12 13  1  0  0  0
 13  1  1  0  0  0
 12  3  1  0  0  0
 11  6  1  0  0  0
 29 21  1  0  0  0
 28 24  1  0  0  0
 15 16  1  0  0  0
 19 20  1  0  0  0
M  END
> <minimizedAffinity>
-8.09809

> <CNNscore>
0.1734323800

> <CNNaffinity>
6.4401588440

> <CNN_VS>
1.1169320345

> <CNNaffinity_variance>
0.0952193663

$$$$
[H]c1nc([H])c2c([H])c(C#N)c3c4c([H])c([H])c(OC([H])([H])[H])c([H])c4n([H])c3c2c1OC([H])([H])[H]


 24 27  0  0  0  0  0  0  0  0999 V2000
  -88.8820   27.0876    1.1914 C   0  0  0  0  0  0  0  0  0  0  0  0
  -87.8366   26.5109    1.8625 C   0  0  0  0  0  0  0  0  0  0  0  0
  -86.6209   27.1429    1.9186 C   0  0  0  0  0  0  0  0  0  0  0  0
  -86.4368   28.3585    1.3045 C   0  0  0  0  0  0  0  0  0  0  0  0
  -87.5021   28.9489    0.6191 C   0  0  0  0  0  0  0  0  0  0  0  0
  -88.7328   28.3037    0.5652 C   0  0  0  0  0  0  0  0  0  0  0  0
  -87.1210   30.1333    0.0883 N   0  0  0  0  0  0  0  0  0  0  0  0
  -85.8530   30.3286    0.4048 C   0  0  0  0  0  0  0  0  0  0  0  0
  -85.3862   29.2512    1.1604 C   0  0  0  0  0  0  0  0  0  0  0  0
  -84.1063   29.1743    1.6322 C   0  0  0  0  0  0  0  0  0  0  0  0
  -83.2128   30.2078    1.3571 C   0  0  0  0  0  0  0  0  0  0  0  0
  -83.6586   31.2724    0.6158 C   0  0  0  0  0  0  0  0  0  0  0  0
  -82.7877   32.3027    0.3348 C   0  0  0  0  0  0  0  0  0  0  0  0
  -83.1858   33.3604   -0.3867 N   0  0  0  0  0  0  0  0  0  0  0  0
  -84.4347   33.4381   -0.8487 C   0  0  0  0  0  0  0  0  0  0  0  0
  -85.3832   32.4324   -0.6074 C   0  0  0  0  0  0  0  0  0  0  0  0
  -84.9630   31.3516    0.1343 C   0  0  0  0  0  0  0  0  0  0  0  0
  -87.7918   30.7256   -0.4659 H   0  0  0  0  0  0  0  0  0  0  0  0
  -91.1924   26.9915    0.4117 C   0  0  0  0  0  0  0  0  0  0  0  0
  -90.1208   26.4271    1.1433 O   0  0  0  0  0  0  0  0  0  0  0  0
  -86.6590   32.5699   -1.1116 O   0  0  0  0  0  0  0  0  0  0  0  0
  -86.9268   33.5607   -2.0765 C   0  0  0  0  0  0  0  0  0  0  0  0
  -83.5794   28.0851    2.4145 C   0  0  0  0  0  0  0  0  0  0  0  0
  -83.1891   27.1948    3.0524 N   0  0  0  0  0  0  0  0  0  0  0  0
 19 20  1  0  0  0
 20  1  1  0  0  0
  1  2  2  0  0  0
  2  3  1  0  0  0
  3  4  2  0  0  0
  4  5  1  0  0  0
  5  6  2  0  0  0
  5  7  1  0  0  0
  7  8  1  0  0  0
  8  9  2  0  0  0
  9 10  1  0  0  0
 10 11  2  0  0  0
 11 12  1  0  0  0
 12 13  2  0  0  0
 13 14  1  0  0  0
 14 15  2  0  0  0
 15 16  1  0  0  0
 16 21  1  0  0  0
 21 22  1  0  0  0
 16 17  2  0  0  0
 10 23  1  0  0  0
 23 24  3  0  0  0
  6  1  1  0  0  0
 17  8  1  0  0  0
  9  4  1  0  0  0
 17 12  1  0  0  0
  7 18  1  0  0  0
M  END
> <minimizedAffinity>
-9.33168

> <CNNscore>
0.9743694663

> <CNNaffinity>
7.2831392288

> <CNN_VS>
7.0964684486

> <CNNaffinity_variance>
0.1197125763

$$$$
[H]c1nc([H])c2c([H])c(C#N)c3c4c([H])c([H])c(OC([H])([H])[H])c([H])c4n([H])c3c2c1OC([H])([H])[H]


 24 27  0  0  0  0  0  0  0  0999 V2000
  -88.5298   33.3725   -2.0753 C   0  0  0  0  0  0  0  0  0  0  0  0
  -87.3097   33.9896   -1.9947 C   0  0  0  0  0  0  0  0  0  0  0  0
  -86.2691   33.3772   -1.3448 C   0  0  0  0  0  0  0  0  0  0  0  0
  -86.4365   32.1410   -0.7682 C   0  0  0  0  0  0  0  0  0  0  0  0
  -87.6805   31.5093   -0.8491 C   0  0  0  0  0  0  0  0  0  0  0  0
  -88.7326   32.1348   -1.5093 C   0  0  0  0  0  0  0  0  0  0  0  0
  -87.6407   30.3103   -0.2242 N   0  0  0  0  0  0  0  0  0  0  0  0
  -86.4205   30.1452    0.2555 C   0  0  0  0  0  0  0  0  0  0  0  0
  -85.6377   31.2579   -0.0585 C   0  0  0  0  0  0  0  0  0  0  0  0
  -84.3267   31.3710    0.3088 C   0  0  0  0  0  0  0  0  0  0  0  0
  -83.7269   30.3400    1.0293 C   0  0  0  0  0  0  0  0  0  0  0  0
  -84.4848   29.2409    1.3445 C   0  0  0  0  0  0  0  0  0  0  0  0
  -83.9069   28.2124    2.0568 C   0  0  0  0  0  0  0  0  0  0  0  0
  -84.6148   27.1217    2.3840 N   0  0  0  0  0  0  0  0  0  0  0  0
  -85.8950   27.0085    2.0268 C   0  0  0  0  0  0  0  0  0  0  0  0
  -86.5581   28.0098    1.3008 C   0  0  0  0  0  0  0  0  0  0  0  0
  -85.8213   29.1247    0.9707 C   0  0  0  0  0  0  0  0  0  0  0  0
  -88.4880   29.6874   -0.1810 H   0  0  0  0  0  0  0  0  0  0  0  0
  -89.3210   35.1321   -3.5696 C   0  0  0  0  0  0  0  0  0  0  0  0
  -89.5855   34.0134   -2.7446 O   0  0  0  0  0  0  0  0  0  0  0  0
  -87.8827   27.8348    0.9607 O   0  0  0  0  0  0  0  0  0  0  0  0
  -88.7671   27.2347    1.8783 C   0  0  0  0  0  0  0  0  0  0  0  0
  -83.4799   32.4974    0.0084 C   0  0  0  0  0  0  0  0  0  0  0  0
  -82.8234   33.4197   -0.2565 N   0  0  0  0  0  0  0  0  0  0  0  0
 19 20  1  0  0  0
 20  1  1  0  0  0
  1  2  2  0  0  0
  2  3  1  0  0  0
  3  4  2  0  0  0
  4  5  1  0  0  0
  5  6  2  0  0  0
  5  7  1  0  0  0
  7  8  1  0  0  0
  8  9  2  0  0  0
  9 10  1  0  0  0
 10 11  2  0  0  0
 11 12  1  0  0  0
 12 13  2  0  0  0
 13 14  1  0  0  0
 14 15  2  0  0  0
 15 16  1  0  0  0
 16 21  1  0  0  0
 21 22  1  0  0  0
 16 17  2  0  0  0
 10 23  1  0  0  0
 23 24  3  0  0  0
  6  1  1  0  0  0
 17  8  1  0  0  0
  9  4  1  0  0  0
 17 12  1  0  0  0
  7 18  1  0  0  0
M  END
> <minimizedAffinity>
-8.53859

> <CNNscore>
0.9275450706

> <CNNaffinity>
6.8875608444

> <CNN_VS>
6.3885231018

> <CNNaffinity_variance>
0.1459079087

$$$$
[H]c1nc([H])c2c([H])c(C#N)c3c4c([H])c([H])c(OC([H])([H])[H])c([H])c4n([H])c3c2c1OC([H])([H])[H]


 24 27  0  0  0  0  0  0  0  0999 V2000
  -90.1105   28.4206    0.1381 C   0  0  0  0  0  0  0  0  0  0  0  0
  -90.6034   29.4921   -0.5582 C   0  0  0  0  0  0  0  0  0  0  0  0
  -89.7842   30.5460   -0.8723 C   0  0  0  0  0  0  0  0  0  0  0  0
  -88.4631   30.5405   -0.4939 C   0  0  0  0  0  0  0  0  0  0  0  0
  -87.9578   29.4483    0.2168 C   0  0  0  0  0  0  0  0  0  0  0  0
  -88.7929   28.3821    0.5328 C   0  0  0  0  0  0  0  0  0  0  0  0
  -86.6467   29.6332    0.4936 N   0  0  0  0  0  0  0  0  0  0  0  0
  -86.2882   30.8008   -0.0106 C   0  0  0  0  0  0  0  0  0  0  0  0
  -87.3847   31.4002   -0.6335 C   0  0  0  0  0  0  0  0  0  0  0  0
  -87.3157   32.6192   -1.2466 C   0  0  0  0  0  0  0  0  0  0  0  0
  -86.1054   33.3098   -1.2611 C   0  0  0  0  0  0  0  0  0  0  0  0
  -85.0201   32.7322   -0.6527 C   0  0  0  0  0  0  0  0  0  0  0  0
  -83.8158   33.4022   -0.6579 C   0  0  0  0  0  0  0  0  0  0  0  0
  -82.7322   32.8706   -0.0739 N   0  0  0  0  0  0  0  0  0  0  0  0
  -82.7967   31.6807    0.5255 C   0  0  0  0  0  0  0  0  0  0  0  0
  -83.9838   30.9340    0.5755 C   0  0  0  0  0  0  0  0  0  0  0  0
  -85.0895   31.4898   -0.0273 C   0  0  0  0  0  0  0  0  0  0  0  0
  -86.0928   28.9130    1.0249 H   0  0  0  0  0  0  0  0  0  0  0  0
  -90.4179   26.1247    0.9058 C   0  0  0  0  0  0  0  0  0  0  0  0
  -90.9629   27.3491    0.4520 O   0  0  0  0  0  0  0  0  0  0  0  0
  -83.9875   29.7099    1.2099 O   0  0  0  0  0  0  0  0  0  0  0  0
  -82.8502   29.2904    1.9275 C   0  0  0  0  0  0  0  0  0  0  0  0
  -88.4177   33.2769   -1.9015 C   0  0  0  0  0  0  0  0  0  0  0  0
  -89.3271   33.7764   -2.4261 N   0  0  0  0  0  0  0  0  0  0  0  0
 19 20  1  0  0  0
 20  1  1  0  0  0
  1  2  2  0  0  0
  2  3  1  0  0  0
  3  4  2  0  0  0
  4  5  1  0  0  0
  5  6  2  0  0  0
  5  7  1  0  0  0
  7  8  1  0  0  0
  8  9  2  0  0  0
  9 10  1  0  0  0
 10 11  2  0  0  0
 11 12  1  0  0  0
 12 13  2  0  0  0
 13 14  1  0  0  0
 14 15  2  0  0  0
 15 16  1  0  0  0
 16 21  1  0  0  0
 21 22  1  0  0  0
 16 17  2  0  0  0
 10 23  1  0  0  0
 23 24  3  0  0  0
  6  1  1  0  0  0
 17  8  1  0  0  0
  9  4  1  0  0  0
 17 12  1  0  0  0
  7 18  1  0  0  0
M  END
> <minimizedAffinity>
-7.95640

> <CNNscore>
0.8418899179

> <CNNaffinity>
6.8196768761

> <CNN_VS>
5.7414174080

> <CNNaffinity_variance>
0.1749728620

$$$$
[H]c1nc([H])c2c([H])c(C#N)c3c4c([H])c([H])c(OC([H])([H])[H])c([H])c4n([H])c3c2c1OC([H])([H])[H]


 24 27  0  0  0  0  0  0  0  0999 V2000
  -83.9962   28.4384    2.2311 C   0  0  0  0  0  0  0  0  0  0  0  0
  -83.2284   29.5275    1.9143 C   0  0  0  0  0  0  0  0  0  0  0  0
  -83.7504   30.5406    1.1516 C   0  0  0  0  0  0  0  0  0  0  0  0
  -85.0457   30.4762    0.6971 C   0  0  0  0  0  0  0  0  0  0  0  0
  -85.8311   29.3659    1.0189 C   0  0  0  0  0  0  0  0  0  0  0  0
  -85.2969   28.3413    1.7927 C   0  0  0  0  0  0  0  0  0  0  0  0
  -87.0660   29.4916    0.4813 N   0  0  0  0  0  0  0  0  0  0  0  0
  -87.1065   30.6385   -0.1738 C   0  0  0  0  0  0  0  0  0  0  0  0
  -85.8731   31.2843   -0.0670 C   0  0  0  0  0  0  0  0  0  0  0  0
  -85.6164   32.4952   -0.6452 C   0  0  0  0  0  0  0  0  0  0  0  0
  -86.6180   33.1292   -1.3780 C   0  0  0  0  0  0  0  0  0  0  0  0
  -87.8346   32.5056   -1.4908 C   0  0  0  0  0  0  0  0  0  0  0  0
  -88.8358   33.1190   -2.2122 C   0  0  0  0  0  0  0  0  0  0  0  0
  -90.0385   32.5413   -2.3453 N   0  0  0  0  0  0  0  0  0  0  0  0
  -90.2919   31.3590   -1.7819 C   0  0  0  0  0  0  0  0  0  0  0  0
  -89.3279   30.6684   -1.0316 C   0  0  0  0  0  0  0  0  0  0  0  0
  -88.0972   31.2712   -0.9018 C   0  0  0  0  0  0  0  0  0  0  0  0
  -87.8000   28.7496    0.6171 H   0  0  0  0  0  0  0  0  0  0  0  0
  -82.0685   27.1046    2.9094 C   0  0  0  0  0  0  0  0  0  0  0  0
  -83.4464   27.4093    3.0133 O   0  0  0  0  0  0  0  0  0  0  0  0
  -89.6499   29.4494   -0.4736 O   0  0  0  0  0  0  0  0  0  0  0  0
  -90.7336   29.3541    0.4212 C   0  0  0  0  0  0  0  0  0  0  0  0
  -84.3622   33.1995   -0.5630 C   0  0  0  0  0  0  0  0  0  0  0  0
  -83.3325   33.7366   -0.5074 N   0  0  0  0  0  0  0  0  0  0  0  0
 19 20  1  0  0  0
 20  1  1  0  0  0
  1  2  2  0  0  0
  2  3  1  0  0  0
  3  4  2  0  0  0
  4  5  1  0  0  0
  5  6  2  0  0  0
  5  7  1  0  0  0
  7  8  1  0  0  0
  8  9  2  0  0  0
  9 10  1  0  0  0
 10 11  2  0  0  0
 11 12  1  0  0  0
 12 13  2  0  0  0
 13 14  1  0  0  0
 14 15  2  0  0  0
 15 16  1  0  0  0
 16 21  1  0  0  0
 21 22  1  0  0  0
 16 17  2  0  0  0
 10 23  1  0  0  0
 23 24  3  0  0  0
  6  1  1  0  0  0
 17  8  1  0  0  0
  9  4  1  0  0  0
 17 12  1  0  0  0
  7 18  1  0  0  0
M  END
> <minimizedAffinity>
-8.32677

> <CNNscore>
0.8124119639

> <CNNaffinity>
6.6897521019

> <CNN_VS>
5.4348344803

> <CNNaffinity_variance>
0.0708640218

$$$$
[H]c1nc([H])c2c([H])c(C#N)c3c4c([H])c([H])c(OC([H])([H])[H])c([H])c4n([H])c3c2c1OC([H])([H])[H]


 24 27  0  0  0  0  0  0  0  0999 V2000
  -90.6101   29.9589   -1.0973 C   0  0  0  0  0  0  0  0  0  0  0  0
  -90.5406   31.1465   -1.7759 C   0  0  0  0  0  0  0  0  0  0  0  0
  -89.3756   31.8698   -1.7819 C   0  0  0  0  0  0  0  0  0  0  0  0
  -88.2671   31.4139   -1.1096 C   0  0  0  0  0  0  0  0  0  0  0  0
  -88.3356   30.2024   -0.4164 C   0  0  0  0  0  0  0  0  0  0  0  0
  -89.5195   29.4728   -0.4134 C   0  0  0  0  0  0  0  0  0  0  0  0
  -87.1495   29.9310    0.1747 N   0  0  0  0  0  0  0  0  0  0  0  0
  -86.3205   30.9197   -0.1105 C   0  0  0  0  0  0  0  0  0  0  0  0
  -86.9719   31.8641   -0.9065 C   0  0  0  0  0  0  0  0  0  0  0  0
  -86.3632   33.0004   -1.3591 C   0  0  0  0  0  0  0  0  0  0  0  0
  -85.0334   33.2447   -1.0215 C   0  0  0  0  0  0  0  0  0  0  0  0
  -84.3816   32.3249   -0.2399 C   0  0  0  0  0  0  0  0  0  0  0  0
  -83.0663   32.5515    0.1030 C   0  0  0  0  0  0  0  0  0  0  0  0
  -82.3952   31.6761    0.8654 N   0  0  0  0  0  0  0  0  0  0  0  0
  -82.9870   30.5659    1.3087 C   0  0  0  0  0  0  0  0  0  0  0  0
  -84.3226   30.2604    1.0051 C   0  0  0  0  0  0  0  0  0  0  0  0
  -85.0013   31.1664    0.2220 C   0  0  0  0  0  0  0  0  0  0  0  0
  -87.0091   29.0568    0.7438 H   0  0  0  0  0  0  0  0  0  0  0  0
  -92.8878   29.6504   -1.9171 C   0  0  0  0  0  0  0  0  0  0  0  0
  -91.8110   29.2301   -1.1010 O   0  0  0  0  0  0  0  0  0  0  0  0
  -84.8787   29.0969    1.4929 O   0  0  0  0  0  0  0  0  0  0  0  0
  -84.1793   28.3345    2.4490 C   0  0  0  0  0  0  0  0  0  0  0  0
  -86.9928   34.0022   -2.1813 C   0  0  0  0  0  0  0  0  0  0  0  0
  -87.4674   34.8184   -2.8597 N   0  0  0  0  0  0  0  0  0  0  0  0
 19 20  1  0  0  0
 20  1  1  0  0  0
  1  2  2  0  0  0
  2  3  1  0  0  0
  3  4  2  0  0  0
  4  5  1  0  0  0
  5  6  2  0  0  0
  5  7  1  0  0  0
  7  8  1  0  0  0
  8  9  2  0  0  0
  9 10  1  0  0  0
 10 11  2  0  0  0
 11 12  1  0  0  0
 12 13  2  0  0  0
 13 14  1  0  0  0
 14 15  2  0  0  0
 15 16  1  0  0  0
 16 21  1  0  0  0
 21 22  1  0  0  0
 16 17  2  0  0  0
 10 23  1  0  0  0
 23 24  3  0  0  0
  6  1  1  0  0  0
 17  8  1  0  0  0
  9  4  1  0  0  0
 17 12  1  0  0  0
  7 18  1  0  0  0
M  END
> <minimizedAffinity>
-7.81099

> <CNNscore>
0.7373389602

> <CNNaffinity>
6.5696740150

> <CNN_VS>
4.8440766335

> <CNNaffinity_variance>
0.0982468352

$$$$
[H]c1nc([H])c2c([H])c(C#N)c3c4c([H])c([H])c(OC([H])([H])[H])c([H])c4n([H])c3c2c1OC([H])([H])[H]


 24 27  0  0  0  0  0  0  0  0999 V2000
  -88.3162   33.4276   -1.9644 C   0  0  0  0  0  0  0  0  0  0  0  0
  -89.2496   32.4396   -2.1329 C   0  0  0  0  0  0  0  0  0  0  0  0
  -89.0531   31.2030   -1.5737 C   0  0  0  0  0  0  0  0  0  0  0  0
  -87.9212   30.9403   -0.8399 C   0  0  0  0  0  0  0  0  0  0  0  0
  -86.9673   31.9468   -0.6667 C   0  0  0  0  0  0  0  0  0  0  0  0
  -87.1714   33.1992   -1.2359 C   0  0  0  0  0  0  0  0  0  0  0  0
  -85.9349   31.4928    0.0803 N   0  0  0  0  0  0  0  0  0  0  0  0
  -86.1866   30.2342    0.3946 C   0  0  0  0  0  0  0  0  0  0  0  0
  -87.4103   29.8483   -0.1559 C   0  0  0  0  0  0  0  0  0  0  0  0
  -87.9340   28.5963    0.0025 C   0  0  0  0  0  0  0  0  0  0  0  0
  -87.2296   27.6492    0.7433 C   0  0  0  0  0  0  0  0  0  0  0  0
  -86.0258   28.0153    1.2896 C   0  0  0  0  0  0  0  0  0  0  0  0
  -85.3165   27.0905    2.0249 C   0  0  0  0  0  0  0  0  0  0  0  0
  -84.1362   27.4102    2.5749 N   0  0  0  0  0  0  0  0  0  0  0  0
  -83.6225   28.6317    2.4218 C   0  0  0  0  0  0  0  0  0  0  0  0
  -84.2804   29.6311    1.6885 C   0  0  0  0  0  0  0  0  0  0  0  0
  -85.4912   29.2912    1.1287 C   0  0  0  0  0  0  0  0  0  0  0  0
  -85.1172   32.1117    0.3172 H   0  0  0  0  0  0  0  0  0  0  0  0
  -87.5432   35.2600   -3.3786 C   0  0  0  0  0  0  0  0  0  0  0  0
  -88.5326   34.6889   -2.5438 O   0  0  0  0  0  0  0  0  0  0  0  0
  -83.6985   30.8750    1.5658 O   0  0  0  0  0  0  0  0  0  0  0  0
  -82.5225   31.0251    0.8050 C   0  0  0  0  0  0  0  0  0  0  0  0
  -89.1904   28.1521   -0.5452 C   0  0  0  0  0  0  0  0  0  0  0  0
  -90.1890   27.7601   -0.9934 N   0  0  0  0  0  0  0  0  0  0  0  0
 19 20  1  0  0  0
 20  1  1  0  0  0
  1  2  2  0  0  0
  2  3  1  0  0  0
  3  4  2  0  0  0
  4  5  1  0  0  0
  5  6  2  0  0  0
  5  7  1  0  0  0
  7  8  1  0  0  0
  8  9  2  0  0  0
  9 10  1  0  0  0
 10 11  2  0  0  0
 11 12  1  0  0  0
 12 13  2  0  0  0
 13 14  1  0  0  0
 14 15  2  0  0  0
 15 16  1  0  0  0
 16 21  1  0  0  0
 21 22  1  0  0  0
 16 17  2  0  0  0
 10 23  1  0  0  0
 23 24  3  0  0  0
  6  1  1  0  0  0
 17  8  1  0  0  0
  9  4  1  0  0  0
 17 12  1  0  0  0
  7 18  1  0  0  0
M  END
> <minimizedAffinity>
-8.09299

> <CNNscore>
0.6450679898

> <CNNaffinity>
6.6329879761

> <CNN_VS>
4.2787280083

> <CNNaffinity_variance>
0.2772282064

$$$$
[H]c1nc([H])c2c([H])c(C#N)c3c4c([H])c([H])c(OC([H])([H])[H])c([H])c4n([H])c3c2c1OC([H])([H])[H]


 24 27  0  0  0  0  0  0  0  0999 V2000
  -88.9058   34.6596   -3.1397 C   0  0  0  0  0  0  0  0  0  0  0  0
  -87.6089   35.0358   -2.9104 C   0  0  0  0  0  0  0  0  0  0  0  0
  -86.7832   34.2407   -2.1578 C   0  0  0  0  0  0  0  0  0  0  0  0
  -87.2448   33.0605   -1.6260 C   0  0  0  0  0  0  0  0  0  0  0  0
  -88.5677   32.6745   -1.8586 C   0  0  0  0  0  0  0  0  0  0  0  0
  -89.4009   33.4846   -2.6224 C   0  0  0  0  0  0  0  0  0  0  0  0
  -88.8256   31.4918   -1.2547 N   0  0  0  0  0  0  0  0  0  0  0  0
  -87.7213   31.1015   -0.6428 C   0  0  0  0  0  0  0  0  0  0  0  0
  -86.7128   32.0454   -0.8463 C   0  0  0  0  0  0  0  0  0  0  0  0
  -85.4547   31.9107   -0.3309 C   0  0  0  0  0  0  0  0  0  0  0  0
  -85.1458   30.7878    0.4344 C   0  0  0  0  0  0  0  0  0  0  0  0
  -86.1276   29.8526    0.6421 C   0  0  0  0  0  0  0  0  0  0  0  0
  -85.8386   28.7364    1.3969 C   0  0  0  0  0  0  0  0  0  0  0  0
  -86.7715   27.8000    1.6223 N   0  0  0  0  0  0  0  0  0  0  0  0
  -88.0006   27.9289    1.1204 C   0  0  0  0  0  0  0  0  0  0  0  0
  -88.3763   29.0344    0.3419 C   0  0  0  0  0  0  0  0  0  0  0  0
  -87.4104   29.9891    0.1173 C   0  0  0  0  0  0  0  0  0  0  0  0
  -89.7740   31.0401   -1.3188 H   0  0  0  0  0  0  0  0  0  0  0  0
  -90.8467   34.9289   -4.5941 C   0  0  0  0  0  0  0  0  0  0  0  0
  -89.7385   35.4855   -3.9127 O   0  0  0  0  0  0  0  0  0  0  0  0
  -89.6623   29.1111   -0.1492 O   0  0  0  0  0  0  0  0  0  0  0  0
  -90.7543   29.0642    0.7395 C   0  0  0  0  0  0  0  0  0  0  0  0
  -84.3827   32.8560   -0.5133 C   0  0  0  0  0  0  0  0  0  0  0  0
  -83.5142   33.6210   -0.6234 N   0  0  0  0  0  0  0  0  0  0  0  0
 19 20  1  0  0  0
 20  1  1  0  0  0
  1  2  2  0  0  0
  2  3  1  0  0  0
  3  4  2  0  0  0
  4  5  1  0  0  0
  5  6  2  0  0  0
  5  7  1  0  0  0
  7  8  1  0  0  0
  8  9  2  0  0  0
  9 10  1  0  0  0
 10 11  2  0  0  0
 11 12  1  0  0  0
 12 13  2  0  0  0
 13 14  1  0  0  0
 14 15  2  0  0  0
 15 16  1  0  0  0
 16 21  1  0  0  0
 21 22  1  0  0  0
 16 17  2  0  0  0
 10 23  1  0  0  0
 23 24  3  0  0  0
  6  1  1  0  0  0
 17  8  1  0  0  0
  9  4  1  0  0  0
 17 12  1  0  0  0
  7 18  1  0  0  0
M  END
> <minimizedAffinity>
-7.53223

> <CNNscore>
0.6016961336

> <CNNaffinity>
6.4216985703

> <CNN_VS>
3.8639111519

> <CNNaffinity_variance>
0.5932628512

$$$$
[H]c1nc([H])c2c([H])c(C#N)c3c4c([H])c([H])c(OC([H])([H])[H])c([H])c4n([H])c3c2c1OC([H])([H])[H]


 24 27  0  0  0  0  0  0  0  0999 V2000
  -89.8977   26.4381    0.3083 C   0  0  0  0  0  0  0  0  0  0  0  0
  -88.8407   25.9469    1.0275 C   0  0  0  0  0  0  0  0  0  0  0  0
  -87.7114   26.7057    1.1990 C   0  0  0  0  0  0  0  0  0  0  0  0
  -87.6262   27.9641    0.6533 C   0  0  0  0  0  0  0  0  0  0  0  0
  -88.7035   28.4675   -0.0811 C   0  0  0  0  0  0  0  0  0  0  0  0
  -89.8463   27.6938   -0.2520 C   0  0  0  0  0  0  0  0  0  0  0  0
  -88.4252   29.7125   -0.5309 N   0  0  0  0  0  0  0  0  0  0  0  0
  -87.2117   30.0303   -0.1152 C   0  0  0  0  0  0  0  0  0  0  0  0
  -86.6769   28.9737    0.6245 C   0  0  0  0  0  0  0  0  0  0  0  0
  -85.4311   29.0147    1.1839 C   0  0  0  0  0  0  0  0  0  0  0  0
  -84.6448   30.1534    1.0196 C   0  0  0  0  0  0  0  0  0  0  0  0
  -85.1582   31.1989    0.2949 C   0  0  0  0  0  0  0  0  0  0  0  0
  -84.3934   32.3322    0.1228 C   0  0  0  0  0  0  0  0  0  0  0  0
  -84.8602   33.3751   -0.5789 N   0  0  0  0  0  0  0  0  0  0  0  0
  -86.0761   33.3379   -1.1262 C   0  0  0  0  0  0  0  0  0  0  0  0
  -86.9178   32.2224   -0.9982 C   0  0  0  0  0  0  0  0  0  0  0  0
  -86.4279   31.1580   -0.2758 C   0  0  0  0  0  0  0  0  0  0  0  0
  -89.1203   30.2547   -1.1058 H   0  0  0  0  0  0  0  0  0  0  0  0
  -90.9363   24.2374    0.1249 C   0  0  0  0  0  0  0  0  0  0  0  0
  -91.0471   25.6480    0.1419 O   0  0  0  0  0  0  0  0  0  0  0  0
  -88.1643   32.2437   -1.5870 O   0  0  0  0  0  0  0  0  0  0  0  0
  -88.2886   32.5774   -2.9499 C   0  0  0  0  0  0  0  0  0  0  0  0
  -84.8371   27.9517    1.9542 C   0  0  0  0  0  0  0  0  0  0  0  0
  -84.3285   27.0943    2.5525 N   0  0  0  0  0  0  0  0  0  0  0  0
 19 20  1  0  0  0
 20  1  1  0  0  0
  1  2  2  0  0  0
  2  3  1  0  0  0
  3  4  2  0  0  0
  4  5  1  0  0  0
  5  6  2  0  0  0
  5  7  1  0  0  0
  7  8  1  0  0  0
  8  9  2  0  0  0
  9 10  1  0  0  0
 10 11  2  0  0  0
 11 12  1  0  0  0
 12 13  2  0  0  0
 13 14  1  0  0  0
 14 15  2  0  0  0
 15 16  1  0  0  0
 16 21  1  0  0  0
 21 22  1  0  0  0
 16 17  2  0  0  0
 10 23  1  0  0  0
 23 24  3  0  0  0
  6  1  1  0  0  0
 17  8  1  0  0  0
  9  4  1  0  0  0
 17 12  1  0  0  0
  7 18  1  0  0  0
M  END
> <minimizedAffinity>
-7.71250

> <CNNscore>
0.4826440811

> <CNNaffinity>
6.5044035912

> <CNN_VS>
3.1393117905

> <CNNaffinity_variance>
0.5778115988

$$$$
[H]c1nc([H])c2c([H])c(C#N)c3c4c([H])c([H])c(OC([H])([H])[H])c([H])c4n([H])c3c2c1OC([H])([H])[H]


 24 27  0  0  0  0  0  0  0  0999 V2000
  -84.5570   32.3894   -0.0415 C   0  0  0  0  0  0  0  0  0  0  0  0
  -85.5766   31.5492    0.3197 C   0  0  0  0  0  0  0  0  0  0  0  0
  -86.7697   31.5830   -0.3554 C   0  0  0  0  0  0  0  0  0  0  0  0
  -86.9569   32.4571   -1.3993 C   0  0  0  0  0  0  0  0  0  0  0  0
  -85.9180   33.3154   -1.7697 C   0  0  0  0  0  0  0  0  0  0  0  0
  -84.7100   33.2771   -1.0817 C   0  0  0  0  0  0  0  0  0  0  0  0
  -86.2976   34.0914   -2.8107 N   0  0  0  0  0  0  0  0  0  0  0  0
  -87.5394   33.7666   -3.1248 C   0  0  0  0  0  0  0  0  0  0  0  0
  -87.9899   32.7553   -2.2741 C   0  0  0  0  0  0  0  0  0  0  0  0
  -89.2418   32.2149   -2.3608 C   0  0  0  0  0  0  0  0  0  0  0  0
  -90.1219   32.6812   -3.3354 C   0  0  0  0  0  0  0  0  0  0  0  0
  -89.6919   33.6747   -4.1778 C   0  0  0  0  0  0  0  0  0  0  0  0
  -90.5500   34.1472   -5.1471 C   0  0  0  0  0  0  0  0  0  0  0  0
  -90.1666   35.1175   -5.9893 N   0  0  0  0  0  0  0  0  0  0  0  0
  -88.9451   35.6470   -5.9069 C   0  0  0  0  0  0  0  0  0  0  0  0
  -88.0112   35.2227   -4.9492 C   0  0  0  0  0  0  0  0  0  0  0  0
  -88.4161   34.2263   -4.0902 C   0  0  0  0  0  0  0  0  0  0  0  0
  -85.6448   34.8030   -3.2293 H   0  0  0  0  0  0  0  0  0  0  0  0
  -82.8407   31.1011    1.1203 C   0  0  0  0  0  0  0  0  0  0  0  0
  -83.3411   32.3421    0.6603 O   0  0  0  0  0  0  0  0  0  0  0  0
  -86.7637   35.8087   -4.9140 O   0  0  0  0  0  0  0  0  0  0  0  0
  -86.6386   37.1993   -5.1004 C   0  0  0  0  0  0  0  0  0  0  0  0
  -89.7511   31.1717   -1.5073 C   0  0  0  0  0  0  0  0  0  0  0  0
  -90.1340   30.3366   -0.7948 N   0  0  0  0  0  0  0  0  0  0  0  0
 19 20  1  0  0  0
 20  1  1  0  0  0
  1  2  2  0  0  0
  2  3  1  0  0  0
  3  4  2  0  0  0
  4  5  1  0  0  0
  5  6  2  0  0  0
  5  7  1  0  0  0
  7  8  1  0  0  0
  8  9  2  0  0  0
  9 10  1  0  0  0
 10 11  2  0  0  0
 11 12  1  0  0  0
 12 13  2  0  0  0
 13 14  1  0  0  0
 14 15  2  0  0  0
 15 16  1  0  0  0
 16 21  1  0  0  0
 21 22  1  0  0  0
 16 17  2  0  0  0
 10 23  1  0  0  0
 23 24  3  0  0  0
  6  1  1  0  0  0
 17  8  1  0  0  0
  9  4  1  0  0  0
 17 12  1  0  0  0
  7 18  1  0  0  0
M  END
> <minimizedAffinity>
-7.10870

> <CNNscore>
0.4477549493

> <CNNaffinity>
5.7114477158

> <CNN_VS>
2.5573289394

> <CNNaffinity_variance>
0.3173430860

$$$$
[H]N=C(OC([H])([H])[H])c1nc2c([H])c([H])c3nc([H])nc(N([H])c4c([H])c([H])c(F)c([H])c4[H])c3c2s1


 27 30  0  0  0  0  0  0  0  0999 V2000
  -86.1571   33.1790   -1.6701 C   0  0  0  0  0  0  0  0  0  0  0  0
  -84.9078   33.3408   -1.3505 N   0  0  0  0  0  0  0  0  0  0  0  0
  -84.3239   32.4827   -0.5463 C   0  0  0  0  0  0  0  0  0  0  0  0
  -82.9802   32.5355   -0.1299 C   0  0  0  0  0  0  0  0  0  0  0  0
  -82.4933   31.5796    0.6979 C   0  0  0  0  0  0  0  0  0  0  0  0
  -83.2376   30.5264    1.1788 C   0  0  0  0  0  0  0  0  0  0  0  0
  -82.7870   29.5671    1.9837 N   0  0  0  0  0  0  0  0  0  0  0  0
  -83.5873   28.5728    2.3929 C   0  0  0  0  0  0  0  0  0  0  0  0
  -84.8497   28.5375    1.9945 N   0  0  0  0  0  0  0  0  0  0  0  0
  -85.4081   29.4547    1.1829 C   0  0  0  0  0  0  0  0  0  0  0  0
  -84.5769   30.4653    0.7708 C   0  0  0  0  0  0  0  0  0  0  0  0
  -85.0744   31.4391   -0.0740 C   0  0  0  0  0  0  0  0  0  0  0  0
  -86.5799   31.7708   -0.8292 S   0  0  0  0  0  0  0  0  0  0  0  0
  -87.0287   33.9948   -2.5392 C   0  0  0  0  0  0  0  0  0  0  0  0
  -86.5437   34.6012   -3.5555 N   0  0  0  0  0  0  0  0  0  0  0  0
  -87.1416   35.1722   -4.1684 H   0  0  0  0  0  0  0  0  0  0  0  0
  -89.3174   34.5697   -3.2058 C   0  0  0  0  0  0  0  0  0  0  0  0
  -88.3540   34.0963   -2.2507 O   0  0  0  0  0  0  0  0  0  0  0  0
  -86.7863   29.3521    0.8801 N   0  0  0  0  0  0  0  0  0  0  0  0
  -87.3694   30.1851    0.8069 H   0  0  0  0  0  0  0  0  0  0  0  0
  -87.4623   28.1037    0.6808 C   0  0  0  0  0  0  0  0  0  0  0  0
  -87.3842   27.5279   -0.5951 C   0  0  0  0  0  0  0  0  0  0  0  0
  -87.9652   26.3161   -0.9006 C   0  0  0  0  0  0  0  0  0  0  0  0
  -88.6499   25.6396    0.0797 C   0  0  0  0  0  0  0  0  0  0  0  0
  -89.2389   24.4454   -0.1706 F   0  0  0  0  0  0  0  0  0  0  0  0
  -88.7412   26.1763    1.3297 C   0  0  0  0  0  0  0  0  0  0  0  0
  -88.1408   27.4046    1.6041 C   0  0  0  0  0  0  0  0  0  0  0  0
 17 18  1  0  0  0
 18 14  1  0  0  0
 14 15  2  0  0  0
 14  1  1  0  0  0
  1  2  2  0  0  0
  2  3  1  0  0  0
  3  4  2  0  0  0
  4  5  1  0  0  0
  5  6  2  0  0  0
  6  7  1  0  0  0
  7  8  2  0  0  0
  8  9  1  0  0  0
  9 10  2  0  0  0
 10 19  1  0  0  0
 19 21  1  0  0  0
 21 22  2  0  0  0
 22 23  1  0  0  0
 23 24  2  0  0  0
 24 25  1  0  0  0
 24 26  1  0  0  0
 26 27  2  0  0  0
 10 11  1  0  0  0
 11 12  2  0  0  0
 12 13  1  0  0  0
 13  1  1  0  0  0
 12  3  1  0  0  0
 11  6  1  0  0  0
 27 21  1  0  0  0
 15 16  1  0  0  0
 19 20  1  0  0  0
M  END
> <minimizedAffinity>
-8.76047

> <CNNscore>
0.7641183138

> <CNNaffinity>
7.0753984451

> <CNN_VS>
5.4064416885

> <CNNaffinity_variance>
0.1706175357

$$$$
[H]N=C(OC([H])([H])[H])c1nc2c([H])c([H])c3nc([H])nc(N([H])c4c([H])c([H])c(F)c([H])c4[H])c3c2s1


 27 30  0  0  0  0  0  0  0  0999 V2000
  -84.8021   31.6542    0.3311 C   0  0  0  0  0  0  0  0  0  0  0  0
  -85.1084   32.6922   -0.3885 N   0  0  0  0  0  0  0  0  0  0  0  0
  -86.2487   32.7218   -1.0387 C   0  0  0  0  0  0  0  0  0  0  0  0
  -86.7050   33.7838   -1.8421 C   0  0  0  0  0  0  0  0  0  0  0  0
  -87.9103   33.6954   -2.4548 C   0  0  0  0  0  0  0  0  0  0  0  0
  -88.7498   32.6100   -2.3481 C   0  0  0  0  0  0  0  0  0  0  0  0
  -89.9423   32.4970   -2.9280 N   0  0  0  0  0  0  0  0  0  0  0  0
  -90.6953   31.4014   -2.7568 C   0  0  0  0  0  0  0  0  0  0  0  0
  -90.2519   30.4095   -1.9997 N   0  0  0  0  0  0  0  0  0  0  0  0
  -89.0633   30.4188   -1.3683 C   0  0  0  0  0  0  0  0  0  0  0  0
  -88.3043   31.5468   -1.5511 C   0  0  0  0  0  0  0  0  0  0  0  0
  -87.0756   31.6361   -0.9251 C   0  0  0  0  0  0  0  0  0  0  0  0
  -86.1439   30.6424    0.1197 S   0  0  0  0  0  0  0  0  0  0  0  0
  -83.5977   31.3811    1.1406 C   0  0  0  0  0  0  0  0  0  0  0  0
  -82.5149   32.0275    0.9276 N   0  0  0  0  0  0  0  0  0  0  0  0
  -81.6694   31.8460    1.4857 H   0  0  0  0  0  0  0  0  0  0  0  0
  -82.9495   29.1843    2.0161 C   0  0  0  0  0  0  0  0  0  0  0  0
  -83.6487   30.4355    2.1169 O   0  0  0  0  0  0  0  0  0  0  0  0
  -88.6650   29.2717   -0.6421 N   0  0  0  0  0  0  0  0  0  0  0  0
  -87.8667   28.7134   -0.9424 H   0  0  0  0  0  0  0  0  0  0  0  0
  -89.3457   28.7996    0.5279 C   0  0  0  0  0  0  0  0  0  0  0  0
  -88.6401   27.9341    1.3757 C   0  0  0  0  0  0  0  0  0  0  0  0
  -89.1754   27.4391    2.5452 C   0  0  0  0  0  0  0  0  0  0  0  0
  -90.4512   27.8045    2.9009 C   0  0  0  0  0  0  0  0  0  0  0  0
  -91.0222   27.3446    4.0403 F   0  0  0  0  0  0  0  0  0  0  0  0
  -91.1599   28.6453    2.0950 C   0  0  0  0  0  0  0  0  0  0  0  0
  -90.5871   29.1276    0.9188 C   0  0  0  0  0  0  0  0  0  0  0  0
 17 18  1  0  0  0
 18 14  1  0  0  0
 14 15  2  0  0  0
 14  1  1  0  0  0
  1  2  2  0  0  0
  2  3  1  0  0  0
  3  4  2  0  0  0
  4  5  1  0  0  0
  5  6  2  0  0  0
  6  7  1  0  0  0
  7  8  2  0  0  0
  8  9  1  0  0  0
  9 10  2  0  0  0
 10 19  1  0  0  0
 19 21  1  0  0  0
 21 22  2  0  0  0
 22 23  1  0  0  0
 23 24  2  0  0  0
 24 25  1  0  0  0
 24 26  1  0  0  0
 26 27  2  0  0  0
 10 11  1  0  0  0
 11 12  2  0  0  0
 12 13  1  0  0  0
 13  1  1  0  0  0
 12  3  1  0  0  0
 11  6  1  0  0  0
 27 21  1  0  0  0
 15 16  1  0  0  0
 19 20  1  0  0  0
M  END
> <minimizedAffinity>
-7.81851

> <CNNscore>
0.6569063663

> <CNNaffinity>
6.8724222183

> <CNN_VS>
4.5145378113

> <CNNaffinity_variance>
0.0491363518

$$$$
[H]N=C(OC([H])([H])[H])c1nc2c([H])c([H])c3nc([H])nc(N([H])c4c([H])c([H])c(F)c([H])c4[H])c3c2s1


 27 30  0  0  0  0  0  0  0  0999 V2000
  -87.2406   32.2411   -0.7203 C   0  0  0  0  0  0  0  0  0  0  0  0
  -86.0573   32.5494   -0.2798 N   0  0  0  0  0  0  0  0  0  0  0  0
  -85.3572   31.6605    0.3862 C   0  0  0  0  0  0  0  0  0  0  0  0
  -84.0650   31.8605    0.9075 C   0  0  0  0  0  0  0  0  0  0  0  0
  -83.4428   30.8557    1.5702 C   0  0  0  0  0  0  0  0  0  0  0  0
  -83.9970   29.6133    1.7797 C   0  0  0  0  0  0  0  0  0  0  0  0
  -83.4088   28.6036    2.4167 N   0  0  0  0  0  0  0  0  0  0  0  0
  -84.0261   27.4228    2.5631 C   0  0  0  0  0  0  0  0  0  0  0  0
  -85.2425   27.2501    2.0689 N   0  0  0  0  0  0  0  0  0  0  0  0
  -85.9283   28.2019    1.4091 C   0  0  0  0  0  0  0  0  0  0  0  0
  -85.2837   29.4043    1.2654 C   0  0  0  0  0  0  0  0  0  0  0  0
  -85.9189   30.4281    0.5886 C   0  0  0  0  0  0  0  0  0  0  0  0
  -87.4278   30.6393   -0.2024 S   0  0  0  0  0  0  0  0  0  0  0  0
  -88.2127   33.0523   -1.4802 C   0  0  0  0  0  0  0  0  0  0  0  0
  -89.4662   32.8164   -1.3855 N   0  0  0  0  0  0  0  0  0  0  0  0
  -90.1528   33.3754   -1.9101 H   0  0  0  0  0  0  0  0  0  0  0  0
  -87.1032   33.8038   -3.5338 C   0  0  0  0  0  0  0  0  0  0  0  0
  -87.7643   34.0545   -2.2829 O   0  0  0  0  0  0  0  0  0  0  0  0
  -87.2498   27.9246    0.9866 N   0  0  0  0  0  0  0  0  0  0  0  0
  -87.5635   28.1769    0.0500 H   0  0  0  0  0  0  0  0  0  0  0  0
  -88.2354   27.3060    1.8240 C   0  0  0  0  0  0  0  0  0  0  0  0
  -88.7722   26.0858    1.3898 C   0  0  0  0  0  0  0  0  0  0  0  0
  -89.7022   25.3802    2.1223 C   0  0  0  0  0  0  0  0  0  0  0  0
  -90.1247   25.8870    3.3273 C   0  0  0  0  0  0  0  0  0  0  0  0
  -91.0376   25.2317    4.0843 F   0  0  0  0  0  0  0  0  0  0  0  0
  -89.6188   27.0717    3.7739 C   0  0  0  0  0  0  0  0  0  0  0  0
  -88.6787   27.7590    3.0071 C   0  0  0  0  0  0  0  0  0  0  0  0
 17 18  1  0  0  0
 18 14  1  0  0  0
 14 15  2  0  0  0
 14  1  1  0  0  0
  1  2  2  0  0  0
  2  3  1  0  0  0
  3  4  2  0  0  0
  4  5  1  0  0  0
  5  6  2  0  0  0
  6  7  1  0  0  0
  7  8  2  0  0  0
  8  9  1  0  0  0
  9 10  2  0  0  0
 10 19  1  0  0  0
 19 21  1  0  0  0
 21 22  2  0  0  0
 22 23  1  0  0  0
 23 24  2  0  0  0
 24 25  1  0  0  0
 24 26  1  0  0  0
 26 27  2  0  0  0
 10 11  1  0  0  0
 11 12  2  0  0  0
 12 13  1  0  0  0
 13  1  1  0  0  0
 12  3  1  0  0  0
 11  6  1  0  0  0
 27 21  1  0  0  0
 15 16  1  0  0  0
 19 20  1  0  0  0
M  END
> <minimizedAffinity>
-8.40195

> <CNNscore>
0.5096434951

> <CNNaffinity>
6.8191323280

> <CNN_VS>
3.4753265381

> <CNNaffinity_variance>
0.1070384979

$$$$
[H]N=C(OC([H])([H])[H])c1nc2c([H])c([H])c3nc([H])nc(N([H])c4c([H])c([H])c(F)c([H])c4[H])c3c2s1


 27 30  0  0  0  0  0  0  0  0999 V2000
  -87.1658   27.0600    1.9134 C   0  0  0  0  0  0  0  0  0  0  0  0
  -85.9190   26.9857    2.2726 N   0  0  0  0  0  0  0  0  0  0  0  0
  -85.1040   27.9811    2.0101 C   0  0  0  0  0  0  0  0  0  0  0  0
  -83.7392   28.0327    2.3510 C   0  0  0  0  0  0  0  0  0  0  0  0
  -83.0057   29.1261    2.0310 C   0  0  0  0  0  0  0  0  0  0  0  0
  -83.5104   30.2263    1.3757 C   0  0  0  0  0  0  0  0  0  0  0  0
  -82.8198   31.3182    1.0565 N   0  0  0  0  0  0  0  0  0  0  0  0
  -83.4024   32.3469    0.4248 C   0  0  0  0  0  0  0  0  0  0  0  0
  -84.6869   32.2831    0.1088 N   0  0  0  0  0  0  0  0  0  0  0  0
  -85.4773   31.2288    0.3830 C   0  0  0  0  0  0  0  0  0  0  0  0
  -84.8681   30.1844    1.0310 C   0  0  0  0  0  0  0  0  0  0  0  0
  -85.6174   29.0701    1.3576 C   0  0  0  0  0  0  0  0  0  0  0  0
  -87.2513   28.5786    1.1680 S   0  0  0  0  0  0  0  0  0  0  0  0
  -88.2640   26.0882    2.0865 C   0  0  0  0  0  0  0  0  0  0  0  0
  -88.5967   25.3104    1.1272 N   0  0  0  0  0  0  0  0  0  0  0  0
  -89.3601   24.6290    1.2364 H   0  0  0  0  0  0  0  0  0  0  0  0
  -89.7113   27.1149    3.7789 C   0  0  0  0  0  0  0  0  0  0  0  0
  -88.9202   26.0258    3.2762 O   0  0  0  0  0  0  0  0  0  0  0  0
  -86.8192   31.2446   -0.0653 N   0  0  0  0  0  0  0  0  0  0  0  0
  -87.5924   31.1713    0.5951 H   0  0  0  0  0  0  0  0  0  0  0  0
  -87.1915   31.3378   -1.4465 C   0  0  0  0  0  0  0  0  0  0  0  0
  -87.6264   30.1623   -2.0749 C   0  0  0  0  0  0  0  0  0  0  0  0
  -88.0403   30.1314   -3.3891 C   0  0  0  0  0  0  0  0  0  0  0  0
  -88.0290   31.2956   -4.1186 C   0  0  0  0  0  0  0  0  0  0  0  0
  -88.4258   31.3173   -5.4139 F   0  0  0  0  0  0  0  0  0  0  0  0
  -87.6112   32.4533   -3.5323 C   0  0  0  0  0  0  0  0  0  0  0  0
  -87.1994   32.4484   -2.2001 C   0  0  0  0  0  0  0  0  0  0  0  0
 17 18  1  0  0  0
 18 14  1  0  0  0
 14 15  2  0  0  0
 14  1  1  0  0  0
  1  2  2  0  0  0
  2  3  1  0  0  0
  3  4  2  0  0  0
  4  5  1  0  0  0
  5  6  2  0  0  0
  6  7  1  0  0  0
  7  8  2  0  0  0
  8  9  1  0  0  0
  9 10  2  0  0  0
 10 19  1  0  0  0
 19 21  1  0  0  0
 21 22  2  0  0  0
 22 23  1  0  0  0
 23 24  2  0  0  0
 24 25  1  0  0  0
 24 26  1  0  0  0
 26 27  2  0  0  0
 10 11  1  0  0  0
 11 12  2  0  0  0
 12 13  1  0  0  0
 13  1  1  0  0  0
 12  3  1  0  0  0
 11  6  1  0  0  0
 27 21  1  0  0  0
 15 16  1  0  0  0
 19 20  1  0  0  0
M  END
> <minimizedAffinity>
-9.10217

> <CNNscore>
0.4370034933

> <CNNaffinity>
6.7726807594

> <CNN_VS>
2.9596850872

> <CNNaffinity_variance>
0.1796503216

$$$$
[H]N=C(OC([H])([H])[H])c1nc2c([H])c([H])c3nc([H])nc(N([H])c4c([H])c([H])c(F)c([H])c4[H])c3c2s1


 27 30  0  0  0  0  0  0  0  0999 V2000
  -87.2560   27.0717    1.8603 C   0  0  0  0  0  0  0  0  0  0  0  0
  -86.0204   26.9407    2.2418 N   0  0  0  0  0  0  0  0  0  0  0  0
  -85.1616   27.9075    2.0146 C   0  0  0  0  0  0  0  0  0  0  0  0
  -83.8029   27.8980    2.3825 C   0  0  0  0  0  0  0  0  0  0  0  0
  -83.0204   28.9671    2.0982 C   0  0  0  0  0  0  0  0  0  0  0  0
  -83.4679   30.0987    1.4553 C   0  0  0  0  0  0  0  0  0  0  0  0
  -82.7283   31.1681    1.1710 N   0  0  0  0  0  0  0  0  0  0  0  0
  -83.2571   32.2310    0.5488 C   0  0  0  0  0  0  0  0  0  0  0  0
  -84.5365   32.2247    0.2070 N   0  0  0  0  0  0  0  0  0  0  0  0
  -85.3734   31.1979    0.4452 C   0  0  0  0  0  0  0  0  0  0  0  0
  -84.8191   30.1178    1.0839 C   0  0  0  0  0  0  0  0  0  0  0  0
  -85.6183   29.0284    1.3741 C   0  0  0  0  0  0  0  0  0  0  0  0
  -87.2663   28.6063    1.1436 S   0  0  0  0  0  0  0  0  0  0  0  0
  -88.3950   26.1415    1.9931 C   0  0  0  0  0  0  0  0  0  0  0  0
  -88.5757   25.4910    3.0794 N   0  0  0  0  0  0  0  0  0  0  0  0
  -89.3662   24.8402    3.1835 H   0  0  0  0  0  0  0  0  0  0  0  0
  -88.8660   25.3374   -0.2750 C   0  0  0  0  0  0  0  0  0  0  0  0
  -89.2527   25.9816    0.9497 O   0  0  0  0  0  0  0  0  0  0  0  0
  -86.7044   31.2758   -0.0283 N   0  0  0  0  0  0  0  0  0  0  0  0
  -87.4784   30.9068    0.5232 H   0  0  0  0  0  0  0  0  0  0  0  0
  -87.0620   31.8417   -1.2960 C   0  0  0  0  0  0  0  0  0  0  0  0
  -86.9938   33.2367   -1.4185 C   0  0  0  0  0  0  0  0  0  0  0  0
  -87.2820   33.8946   -2.5947 C   0  0  0  0  0  0  0  0  0  0  0  0
  -87.6515   33.1601   -3.6955 C   0  0  0  0  0  0  0  0  0  0  0  0
  -87.9453   33.7599   -4.8744 F   0  0  0  0  0  0  0  0  0  0  0  0
  -87.7256   31.8018   -3.6045 C   0  0  0  0  0  0  0  0  0  0  0  0
  -87.4266   31.1688   -2.3986 C   0  0  0  0  0  0  0  0  0  0  0  0
 17 18  1  0  0  0
 18 14  1  0  0  0
 14 15  2  0  0  0
 14  1  1  0  0  0
  1  2  2  0  0  0
  2  3  1  0  0  0
  3  4  2  0  0  0
  4  5  1  0  0  0
  5  6  2  0  0  0
  6  7  1  0  0  0
  7  8  2  0  0  0
  8  9  1  0  0  0
  9 10  2  0  0  0
 10 19  1  0  0  0
 19 21  1  0  0  0
 21 22  2  0  0  0
 22 23  1  0  0  0
 23 24  2  0  0  0
 24 25  1  0  0  0
 24 26  1  0  0  0
 26 27  2  0  0  0
 10 11  1  0  0  0
 11 12  2  0  0  0
 12 13  1  0  0  0
 13  1  1  0  0  0
 12  3  1  0  0  0
 11  6  1  0  0  0
 27 21  1  0  0  0
 15 16  1  0  0  0
 19 20  1  0  0  0
M  END
> <minimizedAffinity>
-8.86441

> <CNNscore>
0.3825840354

> <CNNaffinity>
6.7055625916

> <CNN_VS>
2.5654411316

> <CNNaffinity_variance>
0.2298434228

$$$$
[H]N=C(OC([H])([H])[H])c1nc2c([H])c([H])c3nc([H])nc(N([H])c4c([H])c([H])c(F)c([H])c4[H])c3c2s1


 27 30  0  0  0  0  0  0  0  0999 V2000
  -86.5610   32.4281   -1.2834 C   0  0  0  0  0  0  0  0  0  0  0  0
  -85.4550   32.2948   -0.6138 N   0  0  0  0  0  0  0  0  0  0  0  0
  -85.2496   31.2103    0.0973 C   0  0  0  0  0  0  0  0  0  0  0  0
  -84.0969   30.9367    0.8574 C   0  0  0  0  0  0  0  0  0  0  0  0
  -84.0023   29.7713    1.5422 C   0  0  0  0  0  0  0  0  0  0  0  0
  -84.9805   28.8030    1.5517 C   0  0  0  0  0  0  0  0  0  0  0  0
  -84.9138   27.6453    2.2047 N   0  0  0  0  0  0  0  0  0  0  0  0
  -85.9163   26.7575    2.1457 C   0  0  0  0  0  0  0  0  0  0  0  0
  -86.9954   27.0298    1.4280 N   0  0  0  0  0  0  0  0  0  0  0  0
  -87.1672   28.1679    0.7304 C   0  0  0  0  0  0  0  0  0  0  0  0
  -86.1327   29.0663    0.7987 C   0  0  0  0  0  0  0  0  0  0  0  0
  -86.2299   30.2541    0.0992 C   0  0  0  0  0  0  0  0  0  0  0  0
  -87.3868   30.9914   -0.9328 S   0  0  0  0  0  0  0  0  0  0  0  0
  -87.0244   33.5367   -2.1416 C   0  0  0  0  0  0  0  0  0  0  0  0
  -86.2296   34.0771   -2.9856 N   0  0  0  0  0  0  0  0  0  0  0  0
  -86.5416   34.8501   -3.5892 H   0  0  0  0  0  0  0  0  0  0  0  0
  -88.9869   34.6518   -3.0997 C   0  0  0  0  0  0  0  0  0  0  0  0
  -88.3053   33.9796   -2.0282 O   0  0  0  0  0  0  0  0  0  0  0  0
  -88.3929   28.3789    0.0559 N   0  0  0  0  0  0  0  0  0  0  0  0
  -88.7460   29.3215   -0.1052 H   0  0  0  0  0  0  0  0  0  0  0  0
  -89.2271   27.3153   -0.4216 C   0  0  0  0  0  0  0  0  0  0  0  0
  -90.5151   27.2156    0.1231 C   0  0  0  0  0  0  0  0  0  0  0  0
  -91.4195   26.2561   -0.2777 C   0  0  0  0  0  0  0  0  0  0  0  0
  -91.0509   25.3579   -1.2498 C   0  0  0  0  0  0  0  0  0  0  0  0
  -91.9035   24.3957   -1.6776 F   0  0  0  0  0  0  0  0  0  0  0  0
  -89.8044   25.4321   -1.7970 C   0  0  0  0  0  0  0  0  0  0  0  0
  -88.9145   26.4162   -1.3680 C   0  0  0  0  0  0  0  0  0  0  0  0
 17 18  1  0  0  0
 18 14  1  0  0  0
 14 15  2  0  0  0
 14  1  1  0  0  0
  1  2  2  0  0  0
  2  3  1  0  0  0
  3  4  2  0  0  0
  4  5  1  0  0  0
  5  6  2  0  0  0
  6  7  1  0  0  0
  7  8  2  0  0  0
  8  9  1  0  0  0
  9 10  2  0  0  0
 10 19  1  0  0  0
 19 21  1  0  0  0
 21 22  2  0  0  0
 22 23  1  0  0  0
 23 24  2  0  0  0
 24 25  1  0  0  0
 24 26  1  0  0  0
 26 27  2  0  0  0
 10 11  1  0  0  0
 11 12  2  0  0  0
 12 13  1  0  0  0
 13  1  1  0  0  0
 12  3  1  0  0  0
 11  6  1  0  0  0
 27 21  1  0  0  0
 15 16  1  0  0  0
 19 20  1  0  0  0
M  END
> <minimizedAffinity>
-7.42957

> <CNNscore>
0.3692751527

> <CNNaffinity>
6.6440138817

> <CNN_VS>
2.4534692764

> <CNNaffinity_variance>
0.4347127378

$$$$
[H]N=C(OC([H])([H])[H])c1nc2c([H])c([H])c3nc([H])nc(N([H])c4c([H])c([H])c(F)c([H])c4[H])c3c2s1


 27 30  0  0  0  0  0  0  0  0999 V2000
  -87.0900   33.6202   -2.1552 C   0  0  0  0  0  0  0  0  0  0  0  0
  -86.0884   33.5376   -1.3311 N   0  0  0  0  0  0  0  0  0  0  0  0
  -85.9629   32.4818   -0.5606 C   0  0  0  0  0  0  0  0  0  0  0  0
  -84.9249   32.2630    0.3647 C   0  0  0  0  0  0  0  0  0  0  0  0
  -84.9036   31.1227    1.0962 C   0  0  0  0  0  0  0  0  0  0  0  0
  -85.8516   30.1294    1.0004 C   0  0  0  0  0  0  0  0  0  0  0  0
  -85.8536   28.9950    1.6962 N   0  0  0  0  0  0  0  0  0  0  0  0
  -86.8176   28.0793    1.5264 C   0  0  0  0  0  0  0  0  0  0  0  0
  -87.7889   28.3000    0.6536 N   0  0  0  0  0  0  0  0  0  0  0  0
  -87.8841   29.4107   -0.1006 C   0  0  0  0  0  0  0  0  0  0  0  0
  -86.8900   30.3381    0.0826 C   0  0  0  0  0  0  0  0  0  0  0  0
  -86.9122   31.5004   -0.6646 C   0  0  0  0  0  0  0  0  0  0  0  0
  -87.9257   32.1737   -1.8756 S   0  0  0  0  0  0  0  0  0  0  0  0
  -87.4502   34.6886   -3.1087 C   0  0  0  0  0  0  0  0  0  0  0  0
  -86.6429   35.0204   -4.0436 N   0  0  0  0  0  0  0  0  0  0  0  0
  -86.8834   35.7632   -4.7141 H   0  0  0  0  0  0  0  0  0  0  0  0
  -89.1146   36.2855   -3.9407 C   0  0  0  0  0  0  0  0  0  0  0  0
  -88.6495   35.3182   -2.9855 O   0  0  0  0  0  0  0  0  0  0  0  0
  -89.0052   29.5676   -0.9493 N   0  0  0  0  0  0  0  0  0  0  0  0
  -89.2519   30.4819   -1.3267 H   0  0  0  0  0  0  0  0  0  0  0  0
  -89.8755   28.4900   -1.3187 C   0  0  0  0  0  0  0  0  0  0  0  0
  -89.4220   27.6100   -2.3115 C   0  0  0  0  0  0  0  0  0  0  0  0
  -90.1538   26.5193   -2.7288 C   0  0  0  0  0  0  0  0  0  0  0  0
  -91.3778   26.2785   -2.1530 C   0  0  0  0  0  0  0  0  0  0  0  0
  -92.1354   25.2200   -2.5289 F   0  0  0  0  0  0  0  0  0  0  0  0
  -91.8430   27.1181   -1.1848 C   0  0  0  0  0  0  0  0  0  0  0  0
  -91.0759   28.2122   -0.7864 C   0  0  0  0  0  0  0  0  0  0  0  0
 17 18  1  0  0  0
 18 14  1  0  0  0
 14 15  2  0  0  0
 14  1  1  0  0  0
  1  2  2  0  0  0
  2  3  1  0  0  0
  3  4  2  0  0  0
  4  5  1  0  0  0
  5  6  2  0  0  0
  6  7  1  0  0  0
  7  8  2  0  0  0
  8  9  1  0  0  0
  9 10  2  0  0  0
 10 19  1  0  0  0
 19 21  1  0  0  0
 21 22  2  0  0  0
 22 23  1  0  0  0
 23 24  2  0  0  0
 24 25  1  0  0  0
 24 26  1  0  0  0
 26 27  2  0  0  0
 10 11  1  0  0  0
 11 12  2  0  0  0
 12 13  1  0  0  0
 13  1  1  0  0  0
 12  3  1  0  0  0
 11  6  1  0  0  0
 27 21  1  0  0  0
 15 16  1  0  0  0
 19 20  1  0  0  0
M  END
> <minimizedAffinity>
-7.21855

> <CNNscore>
0.2339850068

> <CNNaffinity>
6.3373918533

> <CNN_VS>
1.4828547239

> <CNNaffinity_variance>
0.4535054564

$$$$
[H]N=C(OC([H])([H])[H])c1nc2c([H])c([H])c3nc([H])nc(N([H])c4c([H])c([H])c(F)c([H])c4[H])c3c2s1


 27 30  0  0  0  0  0  0  0  0999 V2000
  -88.9011   27.8351   -2.0323 C   0  0  0  0  0  0  0  0  0  0  0  0
  -88.9951   28.6608   -3.0316 N   0  0  0  0  0  0  0  0  0  0  0  0
  -88.4404   29.8482   -2.9511 C   0  0  0  0  0  0  0  0  0  0  0  0
  -88.4590   30.8299   -3.9597 C   0  0  0  0  0  0  0  0  0  0  0  0
  -87.8379   32.0169   -3.7562 C   0  0  0  0  0  0  0  0  0  0  0  0
  -87.1685   32.3465   -2.5997 C   0  0  0  0  0  0  0  0  0  0  0  0
  -86.5406   33.4978   -2.3731 N   0  0  0  0  0  0  0  0  0  0  0  0
  -85.9051   33.7246   -1.2149 C   0  0  0  0  0  0  0  0  0  0  0  0
  -85.8979   32.7922   -0.2745 N   0  0  0  0  0  0  0  0  0  0  0  0
  -86.5000   31.5948   -0.3980 C   0  0  0  0  0  0  0  0  0  0  0  0
  -87.1449   31.3761   -1.5889 C   0  0  0  0  0  0  0  0  0  0  0  0
  -87.7773   30.1649   -1.7956 C   0  0  0  0  0  0  0  0  0  0  0  0
  -88.0014   28.7173   -0.9004 S   0  0  0  0  0  0  0  0  0  0  0  0
  -89.4329   26.4663   -1.8776 C   0  0  0  0  0  0  0  0  0  0  0  0
  -88.6410   25.4851   -1.6629 N   0  0  0  0  0  0  0  0  0  0  0  0
  -89.0004   24.5270   -1.5531 H   0  0  0  0  0  0  0  0  0  0  0  0
  -91.7178   26.9377   -1.1229 C   0  0  0  0  0  0  0  0  0  0  0  0
  -90.7738   26.2563   -1.9649 O   0  0  0  0  0  0  0  0  0  0  0  0
  -86.4846   30.7044    0.7014 N   0  0  0  0  0  0  0  0  0  0  0  0
  -87.3430   30.4757    1.2016 H   0  0  0  0  0  0  0  0  0  0  0  0
  -85.2923   30.0869    1.2035 C   0  0  0  0  0  0  0  0  0  0  0  0
  -85.4373   28.8695    1.8837 C   0  0  0  0  0  0  0  0  0  0  0  0
  -84.3636   28.1651    2.3840 C   0  0  0  0  0  0  0  0  0  0  0  0
  -83.0974   28.6701    2.2130 C   0  0  0  0  0  0  0  0  0  0  0  0
  -82.0097   28.0158    2.6867 F   0  0  0  0  0  0  0  0  0  0  0  0
  -82.9274   29.8520    1.5549 C   0  0  0  0  0  0  0  0  0  0  0  0
  -84.0362   30.5382    1.0611 C   0  0  0  0  0  0  0  0  0  0  0  0
 17 18  1  0  0  0
 18 14  1  0  0  0
 14 15  2  0  0  0
 14  1  1  0  0  0
  1  2  2  0  0  0
  2  3  1  0  0  0
  3  4  2  0  0  0
  4  5  1  0  0  0
  5  6  2  0  0  0
  6  7  1  0  0  0
  7  8  2  0  0  0
  8  9  1  0  0  0
  9 10  2  0  0  0
 10 19  1  0  0  0
 19 21  1  0  0  0
 21 22  2  0  0  0
 22 23  1  0  0  0
 23 24  2  0  0  0
 24 25  1  0  0  0
 24 26  1  0  0  0
 26 27  2  0  0  0
 10 11  1  0  0  0
 11 12  2  0  0  0
 12 13  1  0  0  0
 13  1  1  0  0  0
 12  3  1  0  0  0
 11  6  1  0  0  0
 27 21  1  0  0  0
 15 16  1  0  0  0
 19 20  1  0  0  0
M  END
> <minimizedAffinity>
-9.06916

> <CNNscore>
0.2101169527

> <CNNaffinity>
5.9739217758

> <CNN_VS>
1.2552222013

> <CNNaffinity_variance>
0.5158659220

$$$$
[H]N=C(OC([H])([H])[H])c1nc2c([H])c([H])c3nc([H])nc(N([H])c4c([H])c([H])c(F)c([H])c4[H])c3c2s1


 27 30  0  0  0  0  0  0  0  0999 V2000
  -88.6935   28.8133   -2.0573 C   0  0  0  0  0  0  0  0  0  0  0  0
  -89.0713   29.2274   -3.2299 N   0  0  0  0  0  0  0  0  0  0  0  0
  -88.8298   30.4657   -3.5935 C   0  0  0  0  0  0  0  0  0  0  0  0
  -89.1750   31.0365   -4.8330 C   0  0  0  0  0  0  0  0  0  0  0  0
  -88.8596   32.3289   -5.0908 C   0  0  0  0  0  0  0  0  0  0  0  0
  -88.2063   33.1532   -4.2031 C   0  0  0  0  0  0  0  0  0  0  0  0
  -87.8737   34.4217   -4.4296 N   0  0  0  0  0  0  0  0  0  0  0  0
  -87.2270   35.1445   -3.5044 C   0  0  0  0  0  0  0  0  0  0  0  0
  -86.9106   34.5945   -2.3421 N   0  0  0  0  0  0  0  0  0  0  0  0
  -87.1987   33.3227   -2.0087 C   0  0  0  0  0  0  0  0  0  0  0  0
  -87.8591   32.5946   -2.9656 C   0  0  0  0  0  0  0  0  0  0  0  0
  -88.1794   31.2765   -2.7019 C   0  0  0  0  0  0  0  0  0  0  0  0
  -87.9596   30.1877   -1.3930 S   0  0  0  0  0  0  0  0  0  0  0  0
  -88.8486   27.4895   -1.4217 C   0  0  0  0  0  0  0  0  0  0  0  0
  -89.0804   26.4530   -2.1343 N   0  0  0  0  0  0  0  0  0  0  0  0
  -89.1900   25.5253   -1.7024 H   0  0  0  0  0  0  0  0  0  0  0  0
  -87.5801   26.8298    0.5704 C   0  0  0  0  0  0  0  0  0  0  0  0
  -88.7425   27.3803   -0.0702 O   0  0  0  0  0  0  0  0  0  0  0  0
  -86.8726   32.8649   -0.7104 N   0  0  0  0  0  0  0  0  0  0  0  0
  -87.5973   32.7266   -0.0068 H   0  0  0  0  0  0  0  0  0  0  0  0
  -85.5328   32.5885   -0.2816 C   0  0  0  0  0  0  0  0  0  0  0  0
  -85.3729   31.7092    0.7987 C   0  0  0  0  0  0  0  0  0  0  0  0
  -84.1354   31.3418    1.2812 C   0  0  0  0  0  0  0  0  0  0  0  0
  -83.0088   31.8538    0.6844 C   0  0  0  0  0  0  0  0  0  0  0  0
  -81.7697   31.5237    1.1220 F   0  0  0  0  0  0  0  0  0  0  0  0
  -83.1351   32.7109   -0.3684 C   0  0  0  0  0  0  0  0  0  0  0  0
  -84.4030   33.0610   -0.8312 C   0  0  0  0  0  0  0  0  0  0  0  0
 17 18  1  0  0  0
 18 14  1  0  0  0
 14 15  2  0  0  0
 14  1  1  0  0  0
  1  2  2  0  0  0
  2  3  1  0  0  0
  3  4  2  0  0  0
  4  5  1  0  0  0
  5  6  2  0  0  0
  6  7  1  0  0  0
  7  8  2  0  0  0
  8  9  1  0  0  0
  9 10  2  0  0  0
 10 19  1  0  0  0
 19 21  1  0  0  0
 21 22  2  0  0  0
 22 23  1  0  0  0
 23 24  2  0  0  0
 24 25  1  0  0  0
 24 26  1  0  0  0
 26 27  2  0  0  0
 10 11  1  0  0  0
 11 12  2  0  0  0
 12 13  1  0  0  0
 13  1  1  0  0  0
 12  3  1  0  0  0
 11  6  1  0  0  0
 27 21  1  0  0  0
 15 16  1  0  0  0
 19 20  1  0  0  0
M  END
> <minimizedAffinity>
-7.94453

> <CNNscore>
0.1882455796

> <CNNaffinity>
5.8137960434

> <CNN_VS>
1.0944213867

> <CNNaffinity_variance>
0.5718163848

$$$$
[H]c1nc(N([H])C([H])([H])C(C([H])([H])[H])(C([H])([H])[H])C([H])([H])[H])c2c([H])c(-c3c([H])c([H])c4c(c3[H])OC([H])([H])O4)c([H])c([H])c2n1


 26 29  0  0  0  0  0  0  0  0999 V2000
  -85.1532   27.8672    2.0236 C   0  0  0  0  0  0  0  0  0  0  0  0
  -84.1786   27.1737    2.6800 N   0  0  0  0  0  0  0  0  0  0  0  0
  -82.9173   27.5800    2.7980 C   0  0  0  0  0  0  0  0  0  0  0  0
  -82.5383   28.7323    2.2554 N   0  0  0  0  0  0  0  0  0  0  0  0
  -83.4448   29.4830    1.5855 C   0  0  0  0  0  0  0  0  0  0  0  0
  -82.9785   30.6721    1.0456 C   0  0  0  0  0  0  0  0  0  0  0  0
  -83.8823   31.4548    0.3580 C   0  0  0  0  0  0  0  0  0  0  0  0
  -85.1933   31.0428    0.2294 C   0  0  0  0  0  0  0  0  0  0  0  0
  -85.6488   29.8394    0.7804 C   0  0  0  0  0  0  0  0  0  0  0  0
  -84.7546   29.0646    1.4610 C   0  0  0  0  0  0  0  0  0  0  0  0
  -86.0922   31.9245   -0.5144 C   0  0  0  0  0  0  0  0  0  0  0  0
  -85.6735   33.1838   -0.8862 C   0  0  0  0  0  0  0  0  0  0  0  0
  -86.5602   33.9838   -1.5889 C   0  0  0  0  0  0  0  0  0  0  0  0
  -87.8245   33.5221   -1.9024 C   0  0  0  0  0  0  0  0  0  0  0  0
  -88.8897   34.1100   -2.5863 O   0  0  0  0  0  0  0  0  0  0  0  0
  -89.7255   33.0428   -3.0324 C   0  0  0  0  0  0  0  0  0  0  0  0
  -89.5550   32.1074   -1.9949 O   0  0  0  0  0  0  0  0  0  0  0  0
  -88.2569   32.2593   -1.5347 C   0  0  0  0  0  0  0  0  0  0  0  0
  -87.3613   31.4797   -0.8370 C   0  0  0  0  0  0  0  0  0  0  0  0
  -86.4756   27.3675    1.9415 N   0  0  0  0  0  0  0  0  0  0  0  0
  -87.2096   27.6166    2.6114 H   0  0  0  0  0  0  0  0  0  0  0  0
  -86.8100   26.4628    0.8630 C   0  0  0  0  0  0  0  0  0  0  0  0
  -88.7943   25.6704   -0.2918 C   0  0  0  0  0  0  0  0  0  0  0  0
  -87.9621   26.9161    0.0369 C   0  0  0  0  0  0  0  0  0  0  0  0
  -88.8599   27.8960    0.7250 C   0  0  0  0  0  0  0  0  0  0  0  0
  -87.4504   27.4781   -1.2816 C   0  0  0  0  0  0  0  0  0  0  0  0
 23 24  1  0  0  0
 24 25  1  0  0  0
 24 26  1  0  0  0
 24 22  1  0  0  0
 22 20  1  0  0  0
 20  1  1  0  0  0
  1  2  2  0  0  0
  2  3  1  0  0  0
  3  4  2  0  0  0
  4  5  1  0  0  0
  5  6  2  0  0  0
  6  7  1  0  0  0
  7  8  2  0  0  0
  8  9  1  0  0  0
  9 10  2  0  0  0
  8 11  1  0  0  0
 11 12  2  0  0  0
 12 13  1  0  0  0
 13 14  2  0  0  0
 14 15  1  0  0  0
 15 16  1  0  0  0
 16 17  1  0  0  0
 17 18  1  0  0  0
 18 19  2  0  0  0
 10  1  1  0  0  0
 19 11  1  0  0  0
 10  5  1  0  0  0
 18 14  1  0  0  0
 20 21  1  0  0  0
M  END
> <minimizedAffinity>
-9.23808

> <CNNscore>
0.6192306280

> <CNNaffinity>
6.8070373535

> <CNN_VS>
4.2151260376

> <CNNaffinity_variance>
0.1977824271

$$$$
[H]c1nc(N([H])C([H])([H])C(C([H])([H])[H])(C([H])([H])[H])C([H])([H])[H])c2c([H])c(-c3c([H])c([H])c4c(c3[H])OC([H])([H])O4)c([H])c([H])c2n1


 26 29  0  0  0  0  0  0  0  0999 V2000
  -85.3826   28.1678    1.9106 C   0  0  0  0  0  0  0  0  0  0  0  0
  -84.3296   27.5729    2.5422 N   0  0  0  0  0  0  0  0  0  0  0  0
  -83.0996   28.0778    2.5898 C   0  0  0  0  0  0  0  0  0  0  0  0
  -82.8350   29.2366    1.9957 N   0  0  0  0  0  0  0  0  0  0  0  0
  -83.8251   29.8931    1.3458 C   0  0  0  0  0  0  0  0  0  0  0  0
  -83.4763   31.0953    0.7493 C   0  0  0  0  0  0  0  0  0  0  0  0
  -84.4670   31.7834    0.0804 C   0  0  0  0  0  0  0  0  0  0  0  0
  -85.7465   31.2688    0.0247 C   0  0  0  0  0  0  0  0  0  0  0  0
  -86.0830   30.0535    0.6322 C   0  0  0  0  0  0  0  0  0  0  0  0
  -85.1028   29.3724    1.2942 C   0  0  0  0  0  0  0  0  0  0  0  0
  -86.7425   32.0540   -0.7034 C   0  0  0  0  0  0  0  0  0  0  0  0
  -88.0855   31.7961   -0.5321 C   0  0  0  0  0  0  0  0  0  0  0  0
  -88.9922   32.5653   -1.2437 C   0  0  0  0  0  0  0  0  0  0  0  0
  -88.5515   33.5591   -2.0970 C   0  0  0  0  0  0  0  0  0  0  0  0
  -89.2370   34.4593   -2.9142 O   0  0  0  0  0  0  0  0  0  0  0  0
  -88.3394   35.5377   -3.1742 C   0  0  0  0  0  0  0  0  0  0  0  0
  -87.1014   34.8688   -3.1861 O   0  0  0  0  0  0  0  0  0  0  0  0
  -87.2054   33.8279   -2.2775 C   0  0  0  0  0  0  0  0  0  0  0  0
  -86.3203   33.0527   -1.5617 C   0  0  0  0  0  0  0  0  0  0  0  0
  -86.6646   27.5665    1.9045 N   0  0  0  0  0  0  0  0  0  0  0  0
  -87.4153   27.8447    2.5438 H   0  0  0  0  0  0  0  0  0  0  0  0
  -86.9311   26.5099    0.9526 C   0  0  0  0  0  0  0  0  0  0  0  0
  -88.9705   27.8158    0.7672 C   0  0  0  0  0  0  0  0  0  0  0  0
  -88.0804   26.7929    0.0503 C   0  0  0  0  0  0  0  0  0  0  0  0
  -87.6908   27.3750   -1.2723 C   0  0  0  0  0  0  0  0  0  0  0  0
  -88.9048   25.5269   -0.1330 C   0  0  0  0  0  0  0  0  0  0  0  0
 23 24  1  0  0  0
 24 25  1  0  0  0
 24 26  1  0  0  0
 24 22  1  0  0  0
 22 20  1  0  0  0
 20  1  1  0  0  0
  1  2  2  0  0  0
  2  3  1  0  0  0
  3  4  2  0  0  0
  4  5  1  0  0  0
  5  6  2  0  0  0
  6  7  1  0  0  0
  7  8  2  0  0  0
  8  9  1  0  0  0
  9 10  2  0  0  0
  8 11  1  0  0  0
 11 12  2  0  0  0
 12 13  1  0  0  0
 13 14  2  0  0  0
 14 15  1  0  0  0
 15 16  1  0  0  0
 16 17  1  0  0  0
 17 18  1  0  0  0
 18 19  2  0  0  0
 10  1  1  0  0  0
 19 11  1  0  0  0
 10  5  1  0  0  0
 18 14  1  0  0  0
 20 21  1  0  0  0
M  END
> <minimizedAffinity>
-9.37552

> <CNNscore>
0.5178996325

> <CNNaffinity>
6.6726388931

> <CNN_VS>
3.4557571411

> <CNNaffinity_variance>
0.2887834907

$$$$
[H]c1nc(N([H])C([H])([H])C(C([H])([H])[H])(C([H])([H])[H])C([H])([H])[H])c2c([H])c(-c3c([H])c([H])c4c(c3[H])OC([H])([H])O4)c([H])c([H])c2n1


 26 29  0  0  0  0  0  0  0  0999 V2000
  -85.2439   32.7094   -0.3819 C   0  0  0  0  0  0  0  0  0  0  0  0
  -84.0291   33.3194   -0.4991 N   0  0  0  0  0  0  0  0  0  0  0  0
  -82.8734   32.7668   -0.1403 C   0  0  0  0  0  0  0  0  0  0  0  0
  -82.8551   31.5403    0.3709 N   0  0  0  0  0  0  0  0  0  0  0  0
  -84.0188   30.8642    0.5213 C   0  0  0  0  0  0  0  0  0  0  0  0
  -83.9236   29.5905    1.0612 C   0  0  0  0  0  0  0  0  0  0  0  0
  -85.0949   28.8811    1.2252 C   0  0  0  0  0  0  0  0  0  0  0  0
  -86.2997   29.4448    0.8565 C   0  0  0  0  0  0  0  0  0  0  0  0
  -86.3793   30.7321    0.3126 C   0  0  0  0  0  0  0  0  0  0  0  0
  -85.2202   31.4344    0.1502 C   0  0  0  0  0  0  0  0  0  0  0  0
  -87.4985   28.6329    1.0617 C   0  0  0  0  0  0  0  0  0  0  0  0
  -88.6161   28.8417    0.2826 C   0  0  0  0  0  0  0  0  0  0  0  0
  -89.7286   28.0487    0.5141 C   0  0  0  0  0  0  0  0  0  0  0  0
  -89.7068   27.0800    1.4996 C   0  0  0  0  0  0  0  0  0  0  0  0
  -90.6688   26.1650    1.9302 O   0  0  0  0  0  0  0  0  0  0  0  0
  -89.9655   25.1215    2.6031 C   0  0  0  0  0  0  0  0  0  0  0  0
  -88.8914   25.8336    3.1687 O   0  0  0  0  0  0  0  0  0  0  0  0
  -88.5905   26.8606    2.2886 C   0  0  0  0  0  0  0  0  0  0  0  0
  -87.4953   27.6588    2.0433 C   0  0  0  0  0  0  0  0  0  0  0  0
  -86.4321   33.3646   -0.7871 N   0  0  0  0  0  0  0  0  0  0  0  0
  -86.9971   33.9390   -0.1543 H   0  0  0  0  0  0  0  0  0  0  0  0
  -86.8722   33.2188   -2.1577 C   0  0  0  0  0  0  0  0  0  0  0  0
  -88.2461   31.3477   -2.8721 C   0  0  0  0  0  0  0  0  0  0  0  0
  -88.2838   32.7654   -2.2881 C   0  0  0  0  0  0  0  0  0  0  0  0
  -89.0290   32.7051   -0.9916 C   0  0  0  0  0  0  0  0  0  0  0  0
  -89.0090   33.6486   -3.2931 C   0  0  0  0  0  0  0  0  0  0  0  0
 23 24  1  0  0  0
 24 25  1  0  0  0
 24 26  1  0  0  0
 24 22  1  0  0  0
 22 20  1  0  0  0
 20  1  1  0  0  0
  1  2  2  0  0  0
  2  3  1  0  0  0
  3  4  2  0  0  0
  4  5  1  0  0  0
  5  6  2  0  0  0
  6  7  1  0  0  0
  7  8  2  0  0  0
  8  9  1  0  0  0
  9 10  2  0  0  0
  8 11  1  0  0  0
 11 12  2  0  0  0
 12 13  1  0  0  0
 13 14  2  0  0  0
 14 15  1  0  0  0
 15 16  1  0  0  0
 16 17  1  0  0  0
 17 18  1  0  0  0
 18 19  2  0  0  0
 10  1  1  0  0  0
 19 11  1  0  0  0
 10  5  1  0  0  0
 18 14  1  0  0  0
 20 21  1  0  0  0
M  END
> <minimizedAffinity>
-8.38568

> <CNNscore>
0.4447311163

> <CNNaffinity>
6.5901961327

> <CNN_VS>
2.9308652878

> <CNNaffinity_variance>
0.2636836171

$$$$
[H]c1nc(N([H])C([H])([H])C(C([H])([H])[H])(C([H])([H])[H])C([H])([H])[H])c2c([H])c(-c3c([H])c([H])c4c(c3[H])OC([H])([H])O4)c([H])c([H])c2n1


 26 29  0  0  0  0  0  0  0  0999 V2000
  -86.0238   32.5433   -0.7839 C   0  0  0  0  0  0  0  0  0  0  0  0
  -85.6552   33.4624   -1.7226 N   0  0  0  0  0  0  0  0  0  0  0  0
  -86.3511   33.7318   -2.8239 C   0  0  0  0  0  0  0  0  0  0  0  0
  -87.4870   33.0857   -3.0653 N   0  0  0  0  0  0  0  0  0  0  0  0
  -87.9248   32.1563   -2.1831 C   0  0  0  0  0  0  0  0  0  0  0  0
  -89.1166   31.5222   -2.5000 C   0  0  0  0  0  0  0  0  0  0  0  0
  -89.5839   30.5708   -1.6176 C   0  0  0  0  0  0  0  0  0  0  0  0
  -88.8699   30.2833   -0.4718 C   0  0  0  0  0  0  0  0  0  0  0  0
  -87.6681   30.9324   -0.1659 C   0  0  0  0  0  0  0  0  0  0  0  0
  -87.2054   31.8740   -1.0390 C   0  0  0  0  0  0  0  0  0  0  0  0
  -89.4273   29.2623    0.4144 C   0  0  0  0  0  0  0  0  0  0  0  0
  -90.7344   29.3569    0.8414 C   0  0  0  0  0  0  0  0  0  0  0  0
  -91.2183   28.3665    1.6810 C   0  0  0  0  0  0  0  0  0  0  0  0
  -90.4056   27.3194    2.0721 C   0  0  0  0  0  0  0  0  0  0  0  0
  -90.6371   26.2145    2.8928 O   0  0  0  0  0  0  0  0  0  0  0  0
  -89.6486   25.2423    2.5549 C   0  0  0  0  0  0  0  0  0  0  0  0
  -88.5589   26.0647    2.2136 O   0  0  0  0  0  0  0  0  0  0  0  0
  -89.0912   27.2131    1.6500 C   0  0  0  0  0  0  0  0  0  0  0  0
  -88.6290   28.2071    0.8163 C   0  0  0  0  0  0  0  0  0  0  0  0
  -85.2280   32.3131    0.3645 N   0  0  0  0  0  0  0  0  0  0  0  0
  -85.3920   32.7811    1.2610 H   0  0  0  0  0  0  0  0  0  0  0  0
  -84.1311   31.3739    0.2719 C   0  0  0  0  0  0  0  0  0  0  0  0
  -84.9561   29.1447    0.7706 C   0  0  0  0  0  0  0  0  0  0  0  0
  -84.1505   30.3250    1.3276 C   0  0  0  0  0  0  0  0  0  0  0  0
  -82.7960   29.8142    1.7072 C   0  0  0  0  0  0  0  0  0  0  0  0
  -84.8977   30.8465    2.5466 C   0  0  0  0  0  0  0  0  0  0  0  0
 23 24  1  0  0  0
 24 25  1  0  0  0
 24 26  1  0  0  0
 24 22  1  0  0  0
 22 20  1  0  0  0
 20  1  1  0  0  0
  1  2  2  0  0  0
  2  3  1  0  0  0
  3  4  2  0  0  0
  4  5  1  0  0  0
  5  6  2  0  0  0
  6  7  1  0  0  0
  7  8  2  0  0  0
  8  9  1  0  0  0
  9 10  2  0  0  0
  8 11  1  0  0  0
 11 12  2  0  0  0
 12 13  1  0  0  0
 13 14  2  0  0  0
 14 15  1  0  0  0
 15 16  1  0  0  0
 16 17  1  0  0  0
 17 18  1  0  0  0
 18 19  2  0  0  0
 10  1  1  0  0  0
 19 11  1  0  0  0
 10  5  1  0  0  0
 18 14  1  0  0  0
 20 21  1  0  0  0
M  END
> <minimizedAffinity>
-8.34948

> <CNNscore>
0.3745042682

> <CNNaffinity>
6.4019088745

> <CNN_VS>
2.3975422382

> <CNNaffinity_variance>
0.3095121682

$$$$
[H]c1nc(N([H])C([H])([H])C(C([H])([H])[H])(C([H])([H])[H])C([H])([H])[H])c2c([H])c(-c3c([H])c([H])c4c(c3[H])OC([H])([H])O4)c([H])c([H])c2n1


 26 29  0  0  0  0  0  0  0  0999 V2000
  -85.2869   29.5079    1.2990 C   0  0  0  0  0  0  0  0  0  0  0  0
  -84.1871   29.0777    1.9825 N   0  0  0  0  0  0  0  0  0  0  0  0
  -83.0046   29.6868    1.9628 C   0  0  0  0  0  0  0  0  0  0  0  0
  -82.8394   30.7911    1.2423 N   0  0  0  0  0  0  0  0  0  0  0  0
  -83.8817   31.2857    0.5332 C   0  0  0  0  0  0  0  0  0  0  0  0
  -83.6363   32.4398   -0.1952 C   0  0  0  0  0  0  0  0  0  0  0  0
  -84.6818   32.9636   -0.9265 C   0  0  0  0  0  0  0  0  0  0  0  0
  -85.9130   32.3397   -0.9133 C   0  0  0  0  0  0  0  0  0  0  0  0
  -86.1450   31.1749   -0.1726 C   0  0  0  0  0  0  0  0  0  0  0  0
  -85.1105   30.6563    0.5512 C   0  0  0  0  0  0  0  0  0  0  0  0
  -86.9721   32.9526   -1.7141 C   0  0  0  0  0  0  0  0  0  0  0  0
  -86.8260   34.2402   -2.1835 C   0  0  0  0  0  0  0  0  0  0  0  0
  -87.8562   34.7793   -2.9373 C   0  0  0  0  0  0  0  0  0  0  0  0
  -88.9919   34.0384   -3.2044 C   0  0  0  0  0  0  0  0  0  0  0  0
  -90.1519   34.3344   -3.9220 O   0  0  0  0  0  0  0  0  0  0  0  0
  -90.7397   33.0841   -4.2791 C   0  0  0  0  0  0  0  0  0  0  0  0
  -90.3835   32.2871   -3.1753 O   0  0  0  0  0  0  0  0  0  0  0  0
  -89.1505   32.7443   -2.7388 C   0  0  0  0  0  0  0  0  0  0  0  0
  -88.1159   32.2266   -1.9916 C   0  0  0  0  0  0  0  0  0  0  0  0
  -86.5131   28.8035    1.3711 N   0  0  0  0  0  0  0  0  0  0  0  0
  -87.3102   29.1248    1.9286 H   0  0  0  0  0  0  0  0  0  0  0  0
  -86.6511   27.5720    0.6239 C   0  0  0  0  0  0  0  0  0  0  0  0
  -88.7733   28.6191    0.0774 C   0  0  0  0  0  0  0  0  0  0  0  0
  -87.7205   27.6160   -0.4103 C   0  0  0  0  0  0  0  0  0  0  0  0
  -87.2503   28.0671   -1.7576 C   0  0  0  0  0  0  0  0  0  0  0  0
  -88.3984   26.2562   -0.4966 C   0  0  0  0  0  0  0  0  0  0  0  0
 23 24  1  0  0  0
 24 25  1  0  0  0
 24 26  1  0  0  0
 24 22  1  0  0  0
 22 20  1  0  0  0
 20  1  1  0  0  0
  1  2  2  0  0  0
  2  3  1  0  0  0
  3  4  2  0  0  0
  4  5  1  0  0  0
  5  6  2  0  0  0
  6  7  1  0  0  0
  7  8  2  0  0  0
  8  9  1  0  0  0
  9 10  2  0  0  0
  8 11  1  0  0  0
 11 12  2  0  0  0
 12 13  1  0  0  0
 13 14  2  0  0  0
 14 15  1  0  0  0
 15 16  1  0  0  0
 16 17  1  0  0  0
 17 18  1  0  0  0
 18 19  2  0  0  0
 10  1  1  0  0  0
 19 11  1  0  0  0
 10  5  1  0  0  0
 18 14  1  0  0  0
 20 21  1  0  0  0
M  END
> <minimizedAffinity>
-8.06427

> <CNNscore>
0.3660476208

> <CNNaffinity>
6.5039300919

> <CNN_VS>
2.3807480335

> <CNNaffinity_variance>
0.3478087187

$$$$
[H]c1nc(N([H])C([H])([H])C(C([H])([H])[H])(C([H])([H])[H])C([H])([H])[H])c2c([H])c(-c3c([H])c([H])c4c(c3[H])OC([H])([H])O4)c([H])c([H])c2n1


 26 29  0  0  0  0  0  0  0  0999 V2000
  -89.1888   31.9726   -1.9522 C   0  0  0  0  0  0  0  0  0  0  0  0
  -89.8920   32.8814   -2.6879 N   0  0  0  0  0  0  0  0  0  0  0  0
  -89.4212   34.0664   -3.0674 C   0  0  0  0  0  0  0  0  0  0  0  0
  -88.1885   34.4295   -2.7290 N   0  0  0  0  0  0  0  0  0  0  0  0
  -87.4225   33.5850   -1.9983 C   0  0  0  0  0  0  0  0  0  0  0  0
  -86.1480   34.0302   -1.6817 C   0  0  0  0  0  0  0  0  0  0  0  0
  -85.3479   33.1886   -0.9375 C   0  0  0  0  0  0  0  0  0  0  0  0
  -85.8263   31.9570   -0.5384 C   0  0  0  0  0  0  0  0  0  0  0  0
  -87.1157   31.5217   -0.8661 C   0  0  0  0  0  0  0  0  0  0  0  0
  -87.9077   32.3544   -1.6025 C   0  0  0  0  0  0  0  0  0  0  0  0
  -84.9210   31.1209    0.2490 C   0  0  0  0  0  0  0  0  0  0  0  0
  -83.6746   31.5928    0.6003 C   0  0  0  0  0  0  0  0  0  0  0  0
  -82.8512   30.7645    1.3460 C   0  0  0  0  0  0  0  0  0  0  0  0
  -83.2776   29.5046    1.7209 C   0  0  0  0  0  0  0  0  0  0  0  0
  -82.6611   28.4912    2.4566 O   0  0  0  0  0  0  0  0  0  0  0  0
  -83.7051   27.6485    2.9426 C   0  0  0  0  0  0  0  0  0  0  0  0
  -84.6431   27.7414    1.8976 O   0  0  0  0  0  0  0  0  0  0  0  0
  -84.5270   29.0192    1.3743 C   0  0  0  0  0  0  0  0  0  0  0  0
  -85.3304   29.8571    0.6332 C   0  0  0  0  0  0  0  0  0  0  0  0
  -89.7605   30.7297   -1.5870 N   0  0  0  0  0  0  0  0  0  0  0  0
  -90.2457   30.5776   -0.6976 H   0  0  0  0  0  0  0  0  0  0  0  0
  -89.6569   29.6201   -2.5099 C   0  0  0  0  0  0  0  0  0  0  0  0
  -87.6136   28.3143   -2.3738 C   0  0  0  0  0  0  0  0  0  0  0  0
  -89.0722   28.3919   -1.9061 C   0  0  0  0  0  0  0  0  0  0  0  0
  -89.0723   28.3865   -0.4095 C   0  0  0  0  0  0  0  0  0  0  0  0
  -89.7884   27.1666   -2.4556 C   0  0  0  0  0  0  0  0  0  0  0  0
 23 24  1  0  0  0
 24 25  1  0  0  0
 24 26  1  0  0  0
 24 22  1  0  0  0
 22 20  1  0  0  0
 20  1  1  0  0  0
  1  2  2  0  0  0
  2  3  1  0  0  0
  3  4  2  0  0  0
  4  5  1  0  0  0
  5  6  2  0  0  0
  6  7  1  0  0  0
  7  8  2  0  0  0
  8  9  1  0  0  0
  9 10  2  0  0  0
  8 11  1  0  0  0
 11 12  2  0  0  0
 12 13  1  0  0  0
 13 14  2  0  0  0
 14 15  1  0  0  0
 15 16  1  0  0  0
 16 17  1  0  0  0
 17 18  1  0  0  0
 18 19  2  0  0  0
 10  1  1  0  0  0
 19 11  1  0  0  0
 10  5  1  0  0  0
 18 14  1  0  0  0
 20 21  1  0  0  0
M  END
> <minimizedAffinity>
-8.43230

> <CNNscore>
0.3376349211

> <CNNaffinity>
6.2585463524

> <CNN_VS>
2.1131038666

> <CNNaffinity_variance>
0.2666926086

$$$$
[H]c1nc(N([H])C([H])([H])C(C([H])([H])[H])(C([H])([H])[H])C([H])([H])[H])c2c([H])c(-c3c([H])c([H])c4c(c3[H])OC([H])([H])O4)c([H])c([H])c2n1


 26 29  0  0  0  0  0  0  0  0999 V2000
  -89.0240   32.4532   -1.8744 C   0  0  0  0  0  0  0  0  0  0  0  0
  -89.3127   33.5615   -2.6159 N   0  0  0  0  0  0  0  0  0  0  0  0
  -88.4531   34.5471   -2.8598 C   0  0  0  0  0  0  0  0  0  0  0  0
  -87.2202   34.4888   -2.3673 N   0  0  0  0  0  0  0  0  0  0  0  0
  -86.8517   33.4217   -1.6195 C   0  0  0  0  0  0  0  0  0  0  0  0
  -85.5511   33.4285   -1.1386 C   0  0  0  0  0  0  0  0  0  0  0  0
  -85.1512   32.3529   -0.3736 C   0  0  0  0  0  0  0  0  0  0  0  0
  -86.0349   31.3248   -0.1143 C   0  0  0  0  0  0  0  0  0  0  0  0
  -87.3450   31.3324   -0.6072 C   0  0  0  0  0  0  0  0  0  0  0  0
  -87.7410   32.3968   -1.3643 C   0  0  0  0  0  0  0  0  0  0  0  0
  -85.5394   30.2195    0.7051 C   0  0  0  0  0  0  0  0  0  0  0  0
  -86.4021   29.2300    1.1251 C   0  0  0  0  0  0  0  0  0  0  0  0
  -85.8873   28.2034    1.9004 C   0  0  0  0  0  0  0  0  0  0  0  0
  -84.5469   28.1824    2.2363 C   0  0  0  0  0  0  0  0  0  0  0  0
  -83.7872   27.2849    2.9884 O   0  0  0  0  0  0  0  0  0  0  0  0
  -82.4273   27.4800    2.6027 C   0  0  0  0  0  0  0  0  0  0  0  0
  -82.4162   28.8586    2.3203 O   0  0  0  0  0  0  0  0  0  0  0  0
  -83.6704   29.1702    1.8206 C   0  0  0  0  0  0  0  0  0  0  0  0
  -84.2011   30.1817    1.0513 C   0  0  0  0  0  0  0  0  0  0  0  0
  -89.9949   31.4451   -1.6595 N   0  0  0  0  0  0  0  0  0  0  0  0
  -90.5949   31.4151   -0.8296 H   0  0  0  0  0  0  0  0  0  0  0  0
  -90.1502   30.4074   -2.6558 C   0  0  0  0  0  0  0  0  0  0  0  0
  -88.5441   28.5884   -2.5527 C   0  0  0  0  0  0  0  0  0  0  0  0
  -89.9484   29.0321   -2.1240 C   0  0  0  0  0  0  0  0  0  0  0  0
  -90.0215   28.9363   -0.6323 C   0  0  0  0  0  0  0  0  0  0  0  0
  -90.9415   28.0840   -2.7805 C   0  0  0  0  0  0  0  0  0  0  0  0
 23 24  1  0  0  0
 24 25  1  0  0  0
 24 26  1  0  0  0
 24 22  1  0  0  0
 22 20  1  0  0  0
 20  1  1  0  0  0
  1  2  2  0  0  0
  2  3  1  0  0  0
  3  4  2  0  0  0
  4  5  1  0  0  0
  5  6  2  0  0  0
  6  7  1  0  0  0
  7  8  2  0  0  0
  8  9  1  0  0  0
  9 10  2  0  0  0
  8 11  1  0  0  0
 11 12  2  0  0  0
 12 13  1  0  0  0
 13 14  2  0  0  0
 14 15  1  0  0  0
 15 16  1  0  0  0
 16 17  1  0  0  0
 17 18  1  0  0  0
 18 19  2  0  0  0
 10  1  1  0  0  0
 19 11  1  0  0  0
 10  5  1  0  0  0
 18 14  1  0  0  0
 20 21  1  0  0  0
M  END
> <minimizedAffinity>
-8.69030

> <CNNscore>
0.2962650061

> <CNNaffinity>
6.1605601311

> <CNN_VS>
1.8251583576

> <CNNaffinity_variance>
0.2480572462

$$$$
[H]c1nc(N([H])C([H])([H])C(C([H])([H])[H])(C([H])([H])[H])C([H])([H])[H])c2c([H])c(-c3c([H])c([H])c4c(c3[H])OC([H])([H])O4)c([H])c([H])c2n1


 26 29  0  0  0  0  0  0  0  0999 V2000
  -84.9837   31.7728   -0.1991 C   0  0  0  0  0  0  0  0  0  0  0  0
  -83.8741   32.4610    0.1970 N   0  0  0  0  0  0  0  0  0  0  0  0
  -82.9941   32.0172    1.0905 C   0  0  0  0  0  0  0  0  0  0  0  0
  -83.1690   30.8294    1.6602 N   0  0  0  0  0  0  0  0  0  0  0  0
  -84.2461   30.0812    1.3227 C   0  0  0  0  0  0  0  0  0  0  0  0
  -84.3643   28.8538    1.9570 C   0  0  0  0  0  0  0  0  0  0  0  0
  -85.4532   28.0727    1.6310 C   0  0  0  0  0  0  0  0  0  0  0  0
  -86.3725   28.5233    0.7052 C   0  0  0  0  0  0  0  0  0  0  0  0
  -86.2392   29.7652    0.0733 C   0  0  0  0  0  0  0  0  0  0  0  0
  -85.1616   30.5384    0.3958 C   0  0  0  0  0  0  0  0  0  0  0  0
  -87.5011   27.6407    0.4123 C   0  0  0  0  0  0  0  0  0  0  0  0
  -87.3587   26.2749    0.5297 C   0  0  0  0  0  0  0  0  0  0  0  0
  -88.4554   25.4787    0.2407 C   0  0  0  0  0  0  0  0  0  0  0  0
  -89.6517   26.0483   -0.1524 C   0  0  0  0  0  0  0  0  0  0  0  0
  -90.8836   25.4888   -0.4950 O   0  0  0  0  0  0  0  0  0  0  0  0
  -91.8572   26.5198   -0.3357 C   0  0  0  0  0  0  0  0  0  0  0  0
  -91.1093   27.6606   -0.6815 O   0  0  0  0  0  0  0  0  0  0  0  0
  -89.8073   27.4186   -0.2740 C   0  0  0  0  0  0  0  0  0  0  0  0
  -88.7060   28.1926    0.0174 C   0  0  0  0  0  0  0  0  0  0  0  0
  -85.8748   32.3135   -1.1577 N   0  0  0  0  0  0  0  0  0  0  0  0
  -85.6737   32.3274   -2.1621 H   0  0  0  0  0  0  0  0  0  0  0  0
  -87.1286   32.8734   -0.7016 C   0  0  0  0  0  0  0  0  0  0  0  0
  -88.7935   33.7215   -2.2534 C   0  0  0  0  0  0  0  0  0  0  0  0
  -88.3004   32.4657   -1.5237 C   0  0  0  0  0  0  0  0  0  0  0  0
  -87.9910   31.4291   -2.5579 C   0  0  0  0  0  0  0  0  0  0  0  0
  -89.4255   32.0041   -0.6088 C   0  0  0  0  0  0  0  0  0  0  0  0
 23 24  1  0  0  0
 24 25  1  0  0  0
 24 26  1  0  0  0
 24 22  1  0  0  0
 22 20  1  0  0  0
 20  1  1  0  0  0
  1  2  2  0  0  0
  2  3  1  0  0  0
  3  4  2  0  0  0
  4  5  1  0  0  0
  5  6  2  0  0  0
  6  7  1  0  0  0
  7  8  2  0  0  0
  8  9  1  0  0  0
  9 10  2  0  0  0
  8 11  1  0  0  0
 11 12  2  0  0  0
 12 13  1  0  0  0
 13 14  2  0  0  0
 14 15  1  0  0  0
 15 16  1  0  0  0
 16 17  1  0  0  0
 17 18  1  0  0  0
 18 19  2  0  0  0
 10  1  1  0  0  0
 19 11  1  0  0  0
 10  5  1  0  0  0
 18 14  1  0  0  0
 20 21  1  0  0  0
M  END
> <minimizedAffinity>
-7.99847

> <CNNscore>
0.2714692354

> <CNNaffinity>
6.4315786362

> <CNN_VS>
1.7459757328

> <CNNaffinity_variance>
0.4137060642

$$$$
[H]c1nc(N([H])C([H])([H])C(C([H])([H])[H])(C([H])([H])[H])C([H])([H])[H])c2c([H])c(-c3c([H])c([H])c4c(c3[H])OC([H])([H])O4)c([H])c([H])c2n1


 26 29  0  0  0  0  0  0  0  0999 V2000
  -86.2285   30.1385    0.6266 C   0  0  0  0  0  0  0  0  0  0  0  0
  -85.1286   29.8727    1.3889 N   0  0  0  0  0  0  0  0  0  0  0  0
  -84.0630   30.6648    1.4720 C   0  0  0  0  0  0  0  0  0  0  0  0
  -84.0255   31.8004    0.7830 N   0  0  0  0  0  0  0  0  0  0  0  0
  -85.0775   32.1397    0.0006 C   0  0  0  0  0  0  0  0  0  0  0  0
  -84.9687   33.3376   -0.6893 C   0  0  0  0  0  0  0  0  0  0  0  0
  -86.0268   33.7056   -1.4936 C   0  0  0  0  0  0  0  0  0  0  0  0
  -87.1374   32.8914   -1.5873 C   0  0  0  0  0  0  0  0  0  0  0  0
  -87.2323   31.6847   -0.8843 C   0  0  0  0  0  0  0  0  0  0  0  0
  -86.1851   31.3202   -0.0882 C   0  0  0  0  0  0  0  0  0  0  0  0
  -88.2181   33.3471   -2.4608 C   0  0  0  0  0  0  0  0  0  0  0  0
  -88.3301   34.6826   -2.7821 C   0  0  0  0  0  0  0  0  0  0  0  0
  -89.3707   35.0675   -3.6123 C   0  0  0  0  0  0  0  0  0  0  0  0
  -90.2637   34.1312   -4.0980 C   0  0  0  0  0  0  0  0  0  0  0  0
  -91.3761   34.2477   -4.9329 O   0  0  0  0  0  0  0  0  0  0  0  0
  -91.6100   32.9517   -5.4824 C   0  0  0  0  0  0  0  0  0  0  0  0
  -91.1974   32.1242   -4.4215 O   0  0  0  0  0  0  0  0  0  0  0  0
  -90.1618   32.7870   -3.7826 C   0  0  0  0  0  0  0  0  0  0  0  0
  -89.1213   32.4245   -2.9563 C   0  0  0  0  0  0  0  0  0  0  0  0
  -87.3256   29.2439    0.5908 N   0  0  0  0  0  0  0  0  0  0  0  0
  -88.1785   29.3834    1.1409 H   0  0  0  0  0  0  0  0  0  0  0  0
  -87.2423   28.0773   -0.2611 C   0  0  0  0  0  0  0  0  0  0  0  0
  -87.8941   28.4834   -2.5653 C   0  0  0  0  0  0  0  0  0  0  0  0
  -88.3797   27.9484   -1.2124 C   0  0  0  0  0  0  0  0  0  0  0  0
  -88.8476   26.5419   -1.4194 C   0  0  0  0  0  0  0  0  0  0  0  0
  -89.5244   28.8423   -0.7579 C   0  0  0  0  0  0  0  0  0  0  0  0
 23 24  1  0  0  0
 24 25  1  0  0  0
 24 26  1  0  0  0
 24 22  1  0  0  0
 22 20  1  0  0  0
 20  1  1  0  0  0
  1  2  2  0  0  0
  2  3  1  0  0  0
  3  4  2  0  0  0
  4  5  1  0  0  0
  5  6  2  0  0  0
  6  7  1  0  0  0
  7  8  2  0  0  0
  8  9  1  0  0  0
  9 10  2  0  0  0
  8 11  1  0  0  0
 11 12  2  0  0  0
 12 13  1  0  0  0
 13 14  2  0  0  0
 14 15  1  0  0  0
 15 16  1  0  0  0
 16 17  1  0  0  0
 17 18  1  0  0  0
 18 19  2  0  0  0
 10  1  1  0  0  0
 19 11  1  0  0  0
 10  5  1  0  0  0
 18 14  1  0  0  0
 20 21  1  0  0  0
M  END
> <minimizedAffinity>
-7.48554

> <CNNscore>
0.1988239884

> <CNNaffinity>
6.1711511612

> <CNN_VS>
1.2269729376

> <CNNaffinity_variance>
0.6009758711

$$$$
[H]c1nc([H])c(-c2c([H])c([H])c3c(c(C([H])([H])[H])nn3[H])c2[H])c([H])c1OC([H])([H])[C@@]([H])(N([H])[H])C([H])([H])c1c([H])c([H])c([H])c([H])c1[H]


 30 33  0  0  0  0  0  0  0  0999 V2000
  -85.7642   28.5985    1.2979 C   0  0  0  0  0  0  0  0  0  0  0  0
  -85.3400   27.4953    2.0021 C   0  0  0  0  0  0  0  0  0  0  0  0
  -86.1428   26.4548    2.2733 N   0  0  0  0  0  0  0  0  0  0  0  0
  -87.4069   26.4847    1.8447 C   0  0  0  0  0  0  0  0  0  0  0  0
  -87.9388   27.5520    1.1237 C   0  0  0  0  0  0  0  0  0  0  0  0
  -87.0785   28.5962    0.8695 C   0  0  0  0  0  0  0  0  0  0  0  0
  -85.9546   33.5237   -1.3795 C   0  0  0  0  0  0  0  0  0  0  0  0
  -84.7148   33.0864   -0.7145 C   0  0  0  0  0  0  0  0  0  0  0  0
  -83.5545   33.7524   -0.6624 N   0  0  0  0  0  0  0  0  0  0  0  0
  -82.6609   33.0443    0.0251 N   0  0  0  0  0  0  0  0  0  0  0  0
  -83.2093   31.8850    0.4480 C   0  0  0  0  0  0  0  0  0  0  0  0
  -82.7510   30.8090    1.1784 C   0  0  0  0  0  0  0  0  0  0  0  0
  -83.5842   29.7384    1.4549 C   0  0  0  0  0  0  0  0  0  0  0  0
  -84.8903   29.7315    1.0024 C   0  0  0  0  0  0  0  0  0  0  0  0
  -85.3190   30.8213    0.2750 C   0  0  0  0  0  0  0  0  0  0  0  0
  -84.5244   31.9121   -0.0255 C   0  0  0  0  0  0  0  0  0  0  0  0
  -81.6784   33.3704    0.1953 H   0  0  0  0  0  0  0  0  0  0  0  0
  -89.2349   27.4758    0.7392 O   0  0  0  0  0  0  0  0  0  0  0  0
  -89.8218   26.5574   -0.1290 C   0  0  0  0  0  0  0  0  0  0  0  0
  -89.0852   26.3576   -1.4165 C   0  0  0  0  0  0  0  0  0  0  0  0
  -89.0137   24.9932   -1.8473 N   0  0  0  0  0  0  0  0  0  0  0  0
  -89.9757   24.6077   -2.0714 H   0  0  0  0  0  0  0  0  0  0  0  0
  -88.6205   24.3554   -1.1219 H   0  0  0  0  0  0  0  0  0  0  0  0
  -89.7952   27.1455   -2.4997 C   0  0  0  0  0  0  0  0  0  0  0  0
  -89.4219   28.5714   -2.4850 C   0  0  0  0  0  0  0  0  0  0  0  0
  -88.1018   28.9362   -2.6220 C   0  0  0  0  0  0  0  0  0  0  0  0
  -87.7166   30.2610   -2.6127 C   0  0  0  0  0  0  0  0  0  0  0  0
  -88.6869   31.2408   -2.4615 C   0  0  0  0  0  0  0  0  0  0  0  0
  -90.0137   30.8918   -2.3230 C   0  0  0  0  0  0  0  0  0  0  0  0
  -90.3672   29.5396   -2.3371 C   0  0  0  0  0  0  0  0  0  0  0  0
  7  8  1  0  0  0
  8  9  2  0  0  0
  9 10  1  0  0  0
 10 11  1  0  0  0
 11 12  2  0  0  0
 12 13  1  0  0  0
 13 14  2  0  0  0
 14 15  1  0  0  0
 15 16  2  0  0  0
 14  1  1  0  0  0
  1  2  2  0  0  0
  2  3  1  0  0  0
  3  4  2  0  0  0
  4  5  1  0  0  0
  5 18  1  0  0  0
 18 19  1  0  0  0
 19 20  1  0  0  0
 20 21  1  0  0  0
 20 24  1  0  0  0
 24 25  1  0  0  0
 25 26  2  0  0  0
 26 27  1  0  0  0
 27 28  2  0  0  0
 28 29  1  0  0  0
 29 30  2  0  0  0
  5  6  2  0  0  0
 16  8  1  0  0  0
  6  1  1  0  0  0
 16 11  1  0  0  0
 30 25  1  0  0  0
 10 17  1  0  0  0
 21 22  1  0  0  0
 21 23  1  0  0  0
M  END
> <minimizedAffinity>
-9.31866

> <CNNscore>
0.9639738202

> <CNNaffinity>
7.3931961060

> <CNN_VS>
7.1268472672

> <CNNaffinity_variance>
0.1225350499

$$$$
[H]c1nc([H])c(-c2c([H])c([H])c3c(c(C([H])([H])[H])nn3[H])c2[H])c([H])c1OC([H])([H])[C@@]([H])(N([H])[H])C([H])([H])c1c([H])c([H])c([H])c([H])c1[H]


 30 33  0  0  0  0  0  0  0  0999 V2000
  -85.6618   28.5435    1.0561 C   0  0  0  0  0  0  0  0  0  0  0  0
  -85.3941   27.6077    2.0285 C   0  0  0  0  0  0  0  0  0  0  0  0
  -86.1675   26.5299    2.2308 N   0  0  0  0  0  0  0  0  0  0  0  0
  -87.2430   26.3521    1.4601 C   0  0  0  0  0  0  0  0  0  0  0  0
  -87.6057   27.2377    0.4472 C   0  0  0  0  0  0  0  0  0  0  0  0
  -86.7830   28.3282    0.2766 C   0  0  0  0  0  0  0  0  0  0  0  0
  -85.9054   33.5223   -1.5157 C   0  0  0  0  0  0  0  0  0  0  0  0
  -84.6871   33.1177   -0.7927 C   0  0  0  0  0  0  0  0  0  0  0  0
  -83.5594   33.8275   -0.6609 N   0  0  0  0  0  0  0  0  0  0  0  0
  -82.6769   33.1382    0.0591 N   0  0  0  0  0  0  0  0  0  0  0  0
  -83.2000   31.9481    0.4245 C   0  0  0  0  0  0  0  0  0  0  0  0
  -82.7390   30.8732    1.1548 C   0  0  0  0  0  0  0  0  0  0  0  0
  -83.5419   29.7641    1.3601 C   0  0  0  0  0  0  0  0  0  0  0  0
  -84.8198   29.7170    0.8355 C   0  0  0  0  0  0  0  0  0  0  0  0
  -85.2520   30.8068    0.1102 C   0  0  0  0  0  0  0  0  0  0  0  0
  -84.4871   31.9352   -0.1209 C   0  0  0  0  0  0  0  0  0  0  0  0
  -81.7192   33.4984    0.2912 H   0  0  0  0  0  0  0  0  0  0  0  0
  -88.7176   26.9581   -0.2732 O   0  0  0  0  0  0  0  0  0  0  0  0
  -89.7367   27.8285   -0.6548 C   0  0  0  0  0  0  0  0  0  0  0  0
  -90.6730   28.2138    0.4474 C   0  0  0  0  0  0  0  0  0  0  0  0
  -91.8306   28.9355    0.0100 N   0  0  0  0  0  0  0  0  0  0  0  0
  -92.4452   28.3384   -0.6147 H   0  0  0  0  0  0  0  0  0  0  0  0
  -91.5966   29.7800   -0.5553 H   0  0  0  0  0  0  0  0  0  0  0  0
  -91.1512   26.9482    1.1316 C   0  0  0  0  0  0  0  0  0  0  0  0
  -90.7393   26.8915    2.5458 C   0  0  0  0  0  0  0  0  0  0  0  0
  -90.5847   28.0566    3.2624 C   0  0  0  0  0  0  0  0  0  0  0  0
  -90.2006   28.0408    4.5873 C   0  0  0  0  0  0  0  0  0  0  0  0
  -89.9669   26.8202    5.2038 C   0  0  0  0  0  0  0  0  0  0  0  0
  -90.1175   25.6442    4.4997 C   0  0  0  0  0  0  0  0  0  0  0  0
  -90.5080   25.6984    3.1588 C   0  0  0  0  0  0  0  0  0  0  0  0
  7  8  1  0  0  0
  8  9  2  0  0  0
  9 10  1  0  0  0
 10 11  1  0  0  0
 11 12  2  0  0  0
 12 13  1  0  0  0
 13 14  2  0  0  0
 14 15  1  0  0  0
 15 16  2  0  0  0
 14  1  1  0  0  0
  1  2  2  0  0  0
  2  3  1  0  0  0
  3  4  2  0  0  0
  4  5  1  0  0  0
  5 18  1  0  0  0
 18 19  1  0  0  0
 19 20  1  0  0  0
 20 21  1  0  0  0
 20 24  1  0  0  0
 24 25  1  0  0  0
 25 26  2  0  0  0
 26 27  1  0  0  0
 27 28  2  0  0  0
 28 29  1  0  0  0
 29 30  2  0  0  0
  5  6  2  0  0  0
 16  8  1  0  0  0
  6  1  1  0  0  0
 16 11  1  0  0  0
 30 25  1  0  0  0
 10 17  1  0  0  0
 21 22  1  0  0  0
 21 23  1  0  0  0
M  END
> <minimizedAffinity>
-9.50927

> <CNNscore>
0.9630810618

> <CNNaffinity>
7.3405990601

> <CNN_VS>
7.0695919991

> <CNNaffinity_variance>
0.1399036348

$$$$
[H]c1nc([H])c(-c2c([H])c([H])c3c(c(C([H])([H])[H])nn3[H])c2[H])c([H])c1OC([H])([H])[C@@]([H])(N([H])[H])C([H])([H])c1c([H])c([H])c([H])c([H])c1[H]


 30 33  0  0  0  0  0  0  0  0999 V2000
  -86.0678   28.4377    1.0876 C   0  0  0  0  0  0  0  0  0  0  0  0
  -85.9085   27.3303    1.8883 C   0  0  0  0  0  0  0  0  0  0  0  0
  -86.8456   26.3767    2.0026 N   0  0  0  0  0  0  0  0  0  0  0  0
  -87.9822   26.5013    1.3134 C   0  0  0  0  0  0  0  0  0  0  0  0
  -88.2462   27.5819    0.4740 C   0  0  0  0  0  0  0  0  0  0  0  0
  -87.2564   28.5348    0.3884 C   0  0  0  0  0  0  0  0  0  0  0  0
  -85.3527   33.4113   -1.4054 C   0  0  0  0  0  0  0  0  0  0  0  0
  -84.2759   32.8287   -0.5858 C   0  0  0  0  0  0  0  0  0  0  0  0
  -83.0732   33.3646   -0.3429 N   0  0  0  0  0  0  0  0  0  0  0  0
  -82.3683   32.5497    0.4391 N   0  0  0  0  0  0  0  0  0  0  0  0
  -83.0898   31.4474    0.7357 C   0  0  0  0  0  0  0  0  0  0  0  0
  -82.8574   30.3129    1.4841 C   0  0  0  0  0  0  0  0  0  0  0  0
  -83.8283   29.3325    1.5982 C   0  0  0  0  0  0  0  0  0  0  0  0
  -85.0475   29.4760    0.9628 C   0  0  0  0  0  0  0  0  0  0  0  0
  -85.2497   30.6211    0.2222 C   0  0  0  0  0  0  0  0  0  0  0  0
  -84.3111   31.6262    0.0795 C   0  0  0  0  0  0  0  0  0  0  0  0
  -81.3930   32.7644    0.7607 H   0  0  0  0  0  0  0  0  0  0  0  0
  -89.4334   27.6056   -0.1769 O   0  0  0  0  0  0  0  0  0  0  0  0
  -89.9484   28.6131   -0.9901 C   0  0  0  0  0  0  0  0  0  0  0  0
  -89.5683   28.5048   -2.4336 C   0  0  0  0  0  0  0  0  0  0  0  0
  -90.5637   28.9914   -3.3418 N   0  0  0  0  0  0  0  0  0  0  0  0
  -90.7188   30.0336   -3.2231 H   0  0  0  0  0  0  0  0  0  0  0  0
  -91.4987   28.5527   -3.1970 H   0  0  0  0  0  0  0  0  0  0  0  0
  -88.3065   29.3149   -2.6569 C   0  0  0  0  0  0  0  0  0  0  0  0
  -88.5394   30.7616   -2.4967 C   0  0  0  0  0  0  0  0  0  0  0  0
  -88.7512   31.2875   -1.2424 C   0  0  0  0  0  0  0  0  0  0  0  0
  -88.9723   32.6364   -1.0556 C   0  0  0  0  0  0  0  0  0  0  0  0
  -88.9799   33.4745   -2.1610 C   0  0  0  0  0  0  0  0  0  0  0  0
  -88.7693   32.9633   -3.4242 C   0  0  0  0  0  0  0  0  0  0  0  0
  -88.5485   31.5915   -3.5756 C   0  0  0  0  0  0  0  0  0  0  0  0
  7  8  1  0  0  0
  8  9  2  0  0  0
  9 10  1  0  0  0
 10 11  1  0  0  0
 11 12  2  0  0  0
 12 13  1  0  0  0
 13 14  2  0  0  0
 14 15  1  0  0  0
 15 16  2  0  0  0
 14  1  1  0  0  0
  1  2  2  0  0  0
  2  3  1  0  0  0
  3  4  2  0  0  0
  4  5  1  0  0  0
  5 18  1  0  0  0
 18 19  1  0  0  0
 19 20  1  0  0  0
 20 21  1  0  0  0
 20 24  1  0  0  0
 24 25  1  0  0  0
 25 26  2  0  0  0
 26 27  1  0  0  0
 27 28  2  0  0  0
 28 29  1  0  0  0
 29 30  2  0  0  0
  5  6  2  0  0  0
 16  8  1  0  0  0
  6  1  1  0  0  0
 16 11  1  0  0  0
 30 25  1  0  0  0
 10 17  1  0  0  0
 21 22  1  0  0  0
 21 23  1  0  0  0
M  END
> <minimizedAffinity>
-9.22133

> <CNNscore>
0.9295121431

> <CNNaffinity>
7.2820715904

> <CNN_VS>
6.7687740326

> <CNNaffinity_variance>
0.0798136294

$$$$
[H]c1nc([H])c(-c2c([H])c([H])c3c(c(C([H])([H])[H])nn3[H])c2[H])c([H])c1OC([H])([H])[C@@]([H])(N([H])[H])C([H])([H])c1c([H])c([H])c([H])c([H])c1[H]


 30 33  0  0  0  0  0  0  0  0999 V2000
  -85.8614   28.5343    1.1078 C   0  0  0  0  0  0  0  0  0  0  0  0
  -85.5913   27.5141    1.9905 C   0  0  0  0  0  0  0  0  0  0  0  0
  -86.4275   26.4829    2.1855 N   0  0  0  0  0  0  0  0  0  0  0  0
  -87.5709   26.4387    1.4976 C   0  0  0  0  0  0  0  0  0  0  0  0
  -87.9425   27.4187    0.5792 C   0  0  0  0  0  0  0  0  0  0  0  0
  -87.0537   28.4567    0.4125 C   0  0  0  0  0  0  0  0  0  0  0  0
  -85.7977   33.5234   -1.4547 C   0  0  0  0  0  0  0  0  0  0  0  0
  -84.6098   33.0473   -0.7248 C   0  0  0  0  0  0  0  0  0  0  0  0
  -83.4436   33.6898   -0.5842 N   0  0  0  0  0  0  0  0  0  0  0  0
  -82.6074   32.9490    0.1400 N   0  0  0  0  0  0  0  0  0  0  0  0
  -83.2013   31.7908    0.4995 C   0  0  0  0  0  0  0  0  0  0  0  0
  -82.8086   30.6895    1.2304 C   0  0  0  0  0  0  0  0  0  0  0  0
  -83.6760   29.6287    1.4281 C   0  0  0  0  0  0  0  0  0  0  0  0
  -84.9511   29.6571    0.8952 C   0  0  0  0  0  0  0  0  0  0  0  0
  -85.3142   30.7716    0.1694 C   0  0  0  0  0  0  0  0  0  0  0  0
  -84.4834   31.8538   -0.0542 C   0  0  0  0  0  0  0  0  0  0  0  0
  -81.6319   33.2524    0.3791 H   0  0  0  0  0  0  0  0  0  0  0  0
  -89.1259   27.2722   -0.0623 O   0  0  0  0  0  0  0  0  0  0  0  0
  -89.3800   27.3621   -1.4294 C   0  0  0  0  0  0  0  0  0  0  0  0
  -89.7620   26.0690   -2.0791 C   0  0  0  0  0  0  0  0  0  0  0  0
  -88.8545   24.9910   -1.8212 N   0  0  0  0  0  0  0  0  0  0  0  0
  -88.8404   24.7353   -0.7923 H   0  0  0  0  0  0  0  0  0  0  0  0
  -87.8667   25.2210   -2.0642 H   0  0  0  0  0  0  0  0  0  0  0  0
  -91.1249   25.6576   -1.5581 C   0  0  0  0  0  0  0  0  0  0  0  0
  -92.0553   25.3120   -2.6480 C   0  0  0  0  0  0  0  0  0  0  0  0
  -92.4663   26.2831   -3.5327 C   0  0  0  0  0  0  0  0  0  0  0  0
  -93.3360   25.9952   -4.5642 C   0  0  0  0  0  0  0  0  0  0  0  0
  -93.8021   24.6964   -4.7062 C   0  0  0  0  0  0  0  0  0  0  0  0
  -93.3998   23.7121   -3.8282 C   0  0  0  0  0  0  0  0  0  0  0  0
  -92.5176   24.0402   -2.7950 C   0  0  0  0  0  0  0  0  0  0  0  0
  7  8  1  0  0  0
  8  9  2  0  0  0
  9 10  1  0  0  0
 10 11  1  0  0  0
 11 12  2  0  0  0
 12 13  1  0  0  0
 13 14  2  0  0  0
 14 15  1  0  0  0
 15 16  2  0  0  0
 14  1  1  0  0  0
  1  2  2  0  0  0
  2  3  1  0  0  0
  3  4  2  0  0  0
  4  5  1  0  0  0
  5 18  1  0  0  0
 18 19  1  0  0  0
 19 20  1  0  0  0
 20 21  1  0  0  0
 20 24  1  0  0  0
 24 25  1  0  0  0
 25 26  2  0  0  0
 26 27  1  0  0  0
 27 28  2  0  0  0
 28 29  1  0  0  0
 29 30  2  0  0  0
  5  6  2  0  0  0
 16  8  1  0  0  0
  6  1  1  0  0  0
 16 11  1  0  0  0
 30 25  1  0  0  0
 10 17  1  0  0  0
 21 22  1  0  0  0
 21 23  1  0  0  0
M  END
> <minimizedAffinity>
-8.92161

> <CNNscore>
0.8412913680

> <CNNaffinity>
6.7610344887

> <CNN_VS>
5.6879997253

> <CNNaffinity_variance>
0.1963746846

$$$$
[H]c1nc([H])c(-c2c([H])c([H])c3c(c(C([H])([H])[H])nn3[H])c2[H])c([H])c1OC([H])([H])[C@@]([H])(N([H])[H])C([H])([H])c1c([H])c([H])c([H])c([H])c1[H]


 30 33  0  0  0  0  0  0  0  0999 V2000
  -86.2286   28.5230    1.0547 C   0  0  0  0  0  0  0  0  0  0  0  0
  -86.0121   27.4423    1.8782 C   0  0  0  0  0  0  0  0  0  0  0  0
  -86.9179   26.4671    2.0488 N   0  0  0  0  0  0  0  0  0  0  0  0
  -88.0797   26.5424    1.3954 C   0  0  0  0  0  0  0  0  0  0  0  0
  -88.4014   27.5924    0.5375 C   0  0  0  0  0  0  0  0  0  0  0  0
  -87.4419   28.5690    0.3937 C   0  0  0  0  0  0  0  0  0  0  0  0
  -85.7657   33.4856   -1.5185 C   0  0  0  0  0  0  0  0  0  0  0  0
  -84.6346   32.9387   -0.7490 C   0  0  0  0  0  0  0  0  0  0  0  0
  -83.4350   33.5067   -0.5725 N   0  0  0  0  0  0  0  0  0  0  0  0
  -82.6713   32.7179    0.1806 N   0  0  0  0  0  0  0  0  0  0  0  0
  -83.3489   31.6014    0.5239 C   0  0  0  0  0  0  0  0  0  0  0  0
  -83.0506   30.4810    1.2702 C   0  0  0  0  0  0  0  0  0  0  0  0
  -83.9895   29.4783    1.4427 C   0  0  0  0  0  0  0  0  0  0  0  0
  -85.2424   29.5848    0.8685 C   0  0  0  0  0  0  0  0  0  0  0  0
  -85.5105   30.7165    0.1283 C   0  0  0  0  0  0  0  0  0  0  0  0
  -84.6059   31.7429   -0.0713 C   0  0  0  0  0  0  0  0  0  0  0  0
  -81.6868   32.9601    0.4504 H   0  0  0  0  0  0  0  0  0  0  0  0
  -89.6095   27.5663   -0.0734 O   0  0  0  0  0  0  0  0  0  0  0  0
  -90.6018   28.5446   -0.0590 C   0  0  0  0  0  0  0  0  0  0  0  0
  -91.6212   28.4147   -1.1472 C   0  0  0  0  0  0  0  0  0  0  0  0
  -92.7978   29.2073   -0.9479 N   0  0  0  0  0  0  0  0  0  0  0  0
  -92.5737   30.2435   -0.9663 H   0  0  0  0  0  0  0  0  0  0  0  0
  -93.2538   29.0376   -0.0255 H   0  0  0  0  0  0  0  0  0  0  0  0
  -90.9857   28.8545   -2.4514 C   0  0  0  0  0  0  0  0  0  0  0  0
  -91.7581   28.4072   -3.6245 C   0  0  0  0  0  0  0  0  0  0  0  0
  -92.2633   29.3346   -4.5073 C   0  0  0  0  0  0  0  0  0  0  0  0
  -92.9905   28.9517   -5.6154 C   0  0  0  0  0  0  0  0  0  0  0  0
  -93.2133   27.6007   -5.8377 C   0  0  0  0  0  0  0  0  0  0  0  0
  -92.7140   26.6591   -4.9627 C   0  0  0  0  0  0  0  0  0  0  0  0
  -91.9816   27.0836   -3.8506 C   0  0  0  0  0  0  0  0  0  0  0  0
  7  8  1  0  0  0
  8  9  2  0  0  0
  9 10  1  0  0  0
 10 11  1  0  0  0
 11 12  2  0  0  0
 12 13  1  0  0  0
 13 14  2  0  0  0
 14 15  1  0  0  0
 15 16  2  0  0  0
 14  1  1  0  0  0
  1  2  2  0  0  0
  2  3  1  0  0  0
  3  4  2  0  0  0
  4  5  1  0  0  0
  5 18  1  0  0  0
 18 19  1  0  0  0
 19 20  1  0  0  0
 20 21  1  0  0  0
 20 24  1  0  0  0
 24 25  1  0  0  0
 25 26  2  0  0  0
 26 27  1  0  0  0
 27 28  2  0  0  0
 28 29  1  0  0  0
 29 30  2  0  0  0
  5  6  2  0  0  0
 16  8  1  0  0  0
  6  1  1  0  0  0
 16 11  1  0  0  0
 30 25  1  0  0  0
 10 17  1  0  0  0
 21 22  1  0  0  0
 21 23  1  0  0  0
M  END
> <minimizedAffinity>
-8.52386

> <CNNscore>
0.6878172159

> <CNNaffinity>
6.6991834641

> <CNN_VS>
4.6078138351

> <CNNaffinity_variance>
0.3441118002

$$$$
[H]c1nc([H])c(-c2c([H])c([H])c3c(c(C([H])([H])[H])nn3[H])c2[H])c([H])c1OC([H])([H])[C@@]([H])(N([H])[H])C([H])([H])c1c([H])c([H])c([H])c([H])c1[H]


 30 33  0  0  0  0  0  0  0  0999 V2000
  -85.8748   28.5388    1.1775 C   0  0  0  0  0  0  0  0  0  0  0  0
  -85.5775   27.4921    2.0196 C   0  0  0  0  0  0  0  0  0  0  0  0
  -86.4183   26.4674    2.2283 N   0  0  0  0  0  0  0  0  0  0  0  0
  -87.5939   26.4566    1.5956 C   0  0  0  0  0  0  0  0  0  0  0  0
  -87.9948   27.4654    0.7218 C   0  0  0  0  0  0  0  0  0  0  0  0
  -87.1001   28.4954    0.5390 C   0  0  0  0  0  0  0  0  0  0  0  0
  -85.8013   33.5099   -1.4194 C   0  0  0  0  0  0  0  0  0  0  0  0
  -84.6106   33.0315   -0.6957 C   0  0  0  0  0  0  0  0  0  0  0  0
  -83.4394   33.6679   -0.5688 N   0  0  0  0  0  0  0  0  0  0  0  0
  -82.6020   32.9269    0.1538 N   0  0  0  0  0  0  0  0  0  0  0  0
  -83.2000   31.7748    0.5259 C   0  0  0  0  0  0  0  0  0  0  0  0
  -82.8081   30.6761    1.2611 C   0  0  0  0  0  0  0  0  0  0  0  0
  -83.6803   29.6220    1.4730 C   0  0  0  0  0  0  0  0  0  0  0  0
  -84.9594   29.6545    0.9500 C   0  0  0  0  0  0  0  0  0  0  0  0
  -85.3216   30.7662    0.2196 C   0  0  0  0  0  0  0  0  0  0  0  0
  -84.4861   31.8419   -0.0180 C   0  0  0  0  0  0  0  0  0  0  0  0
  -81.6228   33.2260    0.3831 H   0  0  0  0  0  0  0  0  0  0  0  0
  -89.2097   27.3516    0.1347 O   0  0  0  0  0  0  0  0  0  0  0  0
  -89.5816   27.7322   -1.1532 C   0  0  0  0  0  0  0  0  0  0  0  0
  -90.0838   26.6148   -2.0130 C   0  0  0  0  0  0  0  0  0  0  0  0
  -89.9453   26.8477   -3.4197 N   0  0  0  0  0  0  0  0  0  0  0  0
  -88.9254   26.9138   -3.7021 H   0  0  0  0  0  0  0  0  0  0  0  0
  -90.3786   27.7441   -3.7304 H   0  0  0  0  0  0  0  0  0  0  0  0
  -89.2991   25.3626   -1.6747 C   0  0  0  0  0  0  0  0  0  0  0  0
  -90.1726   24.2646   -1.2228 C   0  0  0  0  0  0  0  0  0  0  0  0
  -91.2346   23.8675   -2.0033 C   0  0  0  0  0  0  0  0  0  0  0  0
  -92.0724   22.8438   -1.6115 C   0  0  0  0  0  0  0  0  0  0  0  0
  -91.8327   22.2057   -0.4033 C   0  0  0  0  0  0  0  0  0  0  0  0
  -90.7729   22.5916    0.3900 C   0  0  0  0  0  0  0  0  0  0  0  0
  -89.9448   23.6327   -0.0388 C   0  0  0  0  0  0  0  0  0  0  0  0
  7  8  1  0  0  0
  8  9  2  0  0  0
  9 10  1  0  0  0
 10 11  1  0  0  0
 11 12  2  0  0  0
 12 13  1  0  0  0
 13 14  2  0  0  0
 14 15  1  0  0  0
 15 16  2  0  0  0
 14  1  1  0  0  0
  1  2  2  0  0  0
  2  3  1  0  0  0
  3  4  2  0  0  0
  4  5  1  0  0  0
  5 18  1  0  0  0
 18 19  1  0  0  0
 19 20  1  0  0  0
 20 21  1  0  0  0
 20 24  1  0  0  0
 24 25  1  0  0  0
 25 26  2  0  0  0
 26 27  1  0  0  0
 27 28  2  0  0  0
 28 29  1  0  0  0
 29 30  2  0  0  0
  5  6  2  0  0  0
 16  8  1  0  0  0
  6  1  1  0  0  0
 16 11  1  0  0  0
 30 25  1  0  0  0
 10 17  1  0  0  0
 21 22  1  0  0  0
 21 23  1  0  0  0
M  END
> <minimizedAffinity>
-8.92772

> <CNNscore>
0.6595227122

> <CNNaffinity>
6.6463403702

> <CNN_VS>
4.3834123611

> <CNNaffinity_variance>
0.2109648287

$$$$
[H]c1nc([H])c(-c2c([H])c([H])c3c(c(C([H])([H])[H])nn3[H])c2[H])c([H])c1OC([H])([H])[C@@]([H])(N([H])[H])C([H])([H])c1c([H])c([H])c([H])c([H])c1[H]


 30 33  0  0  0  0  0  0  0  0999 V2000
  -85.2199   32.5532   -0.4619 C   0  0  0  0  0  0  0  0  0  0  0  0
  -84.0383   33.1702   -0.8026 C   0  0  0  0  0  0  0  0  0  0  0  0
  -82.8633   32.8489   -0.2397 N   0  0  0  0  0  0  0  0  0  0  0  0
  -82.8324   31.8916    0.6904 C   0  0  0  0  0  0  0  0  0  0  0  0
  -83.9695   31.2035    1.1095 C   0  0  0  0  0  0  0  0  0  0  0  0
  -85.1513   31.5670    0.5043 C   0  0  0  0  0  0  0  0  0  0  0  0
  -87.2057   35.7709   -4.6050 C   0  0  0  0  0  0  0  0  0  0  0  0
  -88.1254   34.9644   -3.7840 C   0  0  0  0  0  0  0  0  0  0  0  0
  -89.4571   34.8945   -3.9047 N   0  0  0  0  0  0  0  0  0  0  0  0
  -89.9479   34.0630   -2.9881 N   0  0  0  0  0  0  0  0  0  0  0  0
  -88.9488   33.5583   -2.2327 C   0  0  0  0  0  0  0  0  0  0  0  0
  -88.8885   32.6780   -1.1731 C   0  0  0  0  0  0  0  0  0  0  0  0
  -87.6729   32.3510   -0.5966 C   0  0  0  0  0  0  0  0  0  0  0  0
  -86.4993   32.9027   -1.0748 C   0  0  0  0  0  0  0  0  0  0  0  0
  -86.5922   33.7793   -2.1349 C   0  0  0  0  0  0  0  0  0  0  0  0
  -87.7820   34.1354   -2.7424 C   0  0  0  0  0  0  0  0  0  0  0  0
  -90.9713   33.8524   -2.8937 H   0  0  0  0  0  0  0  0  0  0  0  0
  -83.8212   30.2510    2.0604 O   0  0  0  0  0  0  0  0  0  0  0  0
  -84.8089   29.4682    2.6550 C   0  0  0  0  0  0  0  0  0  0  0  0
  -85.2364   28.2835    1.8464 C   0  0  0  0  0  0  0  0  0  0  0  0
  -84.7137   27.0339    2.3127 N   0  0  0  0  0  0  0  0  0  0  0  0
  -85.0818   26.7972    3.2786 H   0  0  0  0  0  0  0  0  0  0  0  0
  -83.6747   27.0334    2.4032 H   0  0  0  0  0  0  0  0  0  0  0  0
  -86.7492   28.1953    1.8923 C   0  0  0  0  0  0  0  0  0  0  0  0
  -87.3622   28.4766    0.5817 C   0  0  0  0  0  0  0  0  0  0  0  0
  -86.5730   28.5461   -0.5440 C   0  0  0  0  0  0  0  0  0  0  0  0
  -87.1130   28.8075   -1.7863 C   0  0  0  0  0  0  0  0  0  0  0  0
  -88.4820   29.0033   -1.8953 C   0  0  0  0  0  0  0  0  0  0  0  0
  -89.2863   28.9369   -0.7772 C   0  0  0  0  0  0  0  0  0  0  0  0
  -88.7046   28.6700    0.4653 C   0  0  0  0  0  0  0  0  0  0  0  0
  7  8  1  0  0  0
  8  9  2  0  0  0
  9 10  1  0  0  0
 10 11  1  0  0  0
 11 12  2  0  0  0
 12 13  1  0  0  0
 13 14  2  0  0  0
 14 15  1  0  0  0
 15 16  2  0  0  0
 14  1  1  0  0  0
  1  2  2  0  0  0
  2  3  1  0  0  0
  3  4  2  0  0  0
  4  5  1  0  0  0
  5 18  1  0  0  0
 18 19  1  0  0  0
 19 20  1  0  0  0
 20 21  1  0  0  0
 20 24  1  0  0  0
 24 25  1  0  0  0
 25 26  2  0  0  0
 26 27  1  0  0  0
 27 28  2  0  0  0
 28 29  1  0  0  0
 29 30  2  0  0  0
  5  6  2  0  0  0
 16  8  1  0  0  0
  6  1  1  0  0  0
 16 11  1  0  0  0
 30 25  1  0  0  0
 10 17  1  0  0  0
 21 22  1  0  0  0
 21 23  1  0  0  0
M  END
> <minimizedAffinity>
-9.20758

> <CNNscore>
0.6140924692

> <CNNaffinity>
6.8931436539

> <CNN_VS>
4.2330274582

> <CNNaffinity_variance>
0.0979875773

$$$$
[H]c1nc([H])c(-c2c([H])c([H])c3c(c(C([H])([H])[H])nn3[H])c2[H])c([H])c1OC([H])([H])[C@@]([H])(N([H])[H])C([H])([H])c1c([H])c([H])c([H])c([H])c1[H]


 30 33  0  0  0  0  0  0  0  0999 V2000
  -85.3869   32.5331   -0.5572 C   0  0  0  0  0  0  0  0  0  0  0  0
  -84.2774   33.2667   -0.9091 C   0  0  0  0  0  0  0  0  0  0  0  0
  -83.0907   33.1256   -0.2987 N   0  0  0  0  0  0  0  0  0  0  0  0
  -82.9748   32.2381    0.6920 C   0  0  0  0  0  0  0  0  0  0  0  0
  -84.0340   31.4442    1.1276 C   0  0  0  0  0  0  0  0  0  0  0  0
  -85.2312   31.6237    0.4722 C   0  0  0  0  0  0  0  0  0  0  0  0
  -90.3319   29.9060   -0.8856 C   0  0  0  0  0  0  0  0  0  0  0  0
  -90.0988   31.1491   -1.6412 C   0  0  0  0  0  0  0  0  0  0  0  0
  -90.9673   31.7731   -2.4468 N   0  0  0  0  0  0  0  0  0  0  0  0
  -90.4022   32.8660   -2.9554 N   0  0  0  0  0  0  0  0  0  0  0  0
  -89.1383   32.9945   -2.4975 C   0  0  0  0  0  0  0  0  0  0  0  0
  -88.1282   33.9124   -2.6932 C   0  0  0  0  0  0  0  0  0  0  0  0
  -86.9060   33.7613   -2.0606 C   0  0  0  0  0  0  0  0  0  0  0  0
  -86.6790   32.6864   -1.2218 C   0  0  0  0  0  0  0  0  0  0  0  0
  -87.7081   31.7860   -1.0463 C   0  0  0  0  0  0  0  0  0  0  0  0
  -88.9442   31.8952   -1.6560 C   0  0  0  0  0  0  0  0  0  0  0  0
  -90.8972   33.5138   -3.6158 H   0  0  0  0  0  0  0  0  0  0  0  0
  -83.8028   30.5769    2.1414 O   0  0  0  0  0  0  0  0  0  0  0  0
  -84.7001   29.6945    2.7398 C   0  0  0  0  0  0  0  0  0  0  0  0
  -84.8467   28.3817    2.0361 C   0  0  0  0  0  0  0  0  0  0  0  0
  -84.0630   27.3225    2.5984 N   0  0  0  0  0  0  0  0  0  0  0  0
  -84.3772   27.0906    3.5842 H   0  0  0  0  0  0  0  0  0  0  0  0
  -83.0508   27.5606    2.6779 H   0  0  0  0  0  0  0  0  0  0  0  0
  -86.3022   27.9635    2.1047 C   0  0  0  0  0  0  0  0  0  0  0  0
  -86.8746   27.7218    0.7680 C   0  0  0  0  0  0  0  0  0  0  0  0
  -86.4884   28.5058   -0.2954 C   0  0  0  0  0  0  0  0  0  0  0  0
  -87.0035   28.3077   -1.5598 C   0  0  0  0  0  0  0  0  0  0  0  0
  -87.9303   27.2943   -1.7557 C   0  0  0  0  0  0  0  0  0  0  0  0
  -88.3274   26.5001   -0.7007 C   0  0  0  0  0  0  0  0  0  0  0  0
  -87.7845   26.7296    0.5666 C   0  0  0  0  0  0  0  0  0  0  0  0
  7  8  1  0  0  0
  8  9  2  0  0  0
  9 10  1  0  0  0
 10 11  1  0  0  0
 11 12  2  0  0  0
 12 13  1  0  0  0
 13 14  2  0  0  0
 14 15  1  0  0  0
 15 16  2  0  0  0
 14  1  1  0  0  0
  1  2  2  0  0  0
  2  3  1  0  0  0
  3  4  2  0  0  0
  4  5  1  0  0  0
  5 18  1  0  0  0
 18 19  1  0  0  0
 19 20  1  0  0  0
 20 21  1  0  0  0
 20 24  1  0  0  0
 24 25  1  0  0  0
 25 26  2  0  0  0
 26 27  1  0  0  0
 27 28  2  0  0  0
 28 29  1  0  0  0
 29 30  2  0  0  0
  5  6  2  0  0  0
 16  8  1  0  0  0
  6  1  1  0  0  0
 16 11  1  0  0  0
 30 25  1  0  0  0
 10 17  1  0  0  0
 21 22  1  0  0  0
 21 23  1  0  0  0
M  END
> <minimizedAffinity>
-8.63918

> <CNNscore>
0.5862275958

> <CNNaffinity>
6.9532060623

> <CNN_VS>
4.0761613846

> <CNNaffinity_variance>
0.0333527103

$$$$
[H]c1nc([H])c(-c2c([H])c([H])c3c(c(C([H])([H])[H])nn3[H])c2[H])c([H])c1OC([H])([H])[C@@]([H])(N([H])[H])C([H])([H])c1c([H])c([H])c([H])c([H])c1[H]


 30 33  0  0  0  0  0  0  0  0999 V2000
  -88.0563   29.9498   -1.0346 C   0  0  0  0  0  0  0  0  0  0  0  0
  -88.1383   29.0755   -2.0938 C   0  0  0  0  0  0  0  0  0  0  0  0
  -88.9972   28.0449   -2.1191 N   0  0  0  0  0  0  0  0  0  0  0  0
  -89.8090   27.8541   -1.0765 C   0  0  0  0  0  0  0  0  0  0  0  0
  -89.8087   28.6791    0.0466 C   0  0  0  0  0  0  0  0  0  0  0  0
  -88.9112   29.7227    0.0277 C   0  0  0  0  0  0  0  0  0  0  0  0
  -82.7814   31.0450    0.5269 C   0  0  0  0  0  0  0  0  0  0  0  0
  -83.6208   32.1075   -0.0537 C   0  0  0  0  0  0  0  0  0  0  0  0
  -83.2672   33.3805   -0.2711 N   0  0  0  0  0  0  0  0  0  0  0  0
  -84.2883   34.0445   -0.8086 N   0  0  0  0  0  0  0  0  0  0  0  0
  -85.3500   33.2241   -0.9617 C   0  0  0  0  0  0  0  0  0  0  0  0
  -86.6287   33.3800   -1.4534 C   0  0  0  0  0  0  0  0  0  0  0  0
  -87.5100   32.3125   -1.4767 C   0  0  0  0  0  0  0  0  0  0  0  0
  -87.1212   31.0721   -1.0069 C   0  0  0  0  0  0  0  0  0  0  0  0
  -85.8368   30.9478   -0.5218 C   0  0  0  0  0  0  0  0  0  0  0  0
  -84.9224   31.9840   -0.4785 C   0  0  0  0  0  0  0  0  0  0  0  0
  -84.2409   35.0608   -1.0648 H   0  0  0  0  0  0  0  0  0  0  0  0
  -90.6756   28.3917    1.0462 O   0  0  0  0  0  0  0  0  0  0  0  0
  -90.5956   27.3656    1.9856 C   0  0  0  0  0  0  0  0  0  0  0  0
  -89.3774   27.4088    2.8540 C   0  0  0  0  0  0  0  0  0  0  0  0
  -89.5375   26.7649    4.1237 N   0  0  0  0  0  0  0  0  0  0  0  0
  -89.7020   25.7235    4.0111 H   0  0  0  0  0  0  0  0  0  0  0  0
  -90.3577   27.1195    4.6615 H   0  0  0  0  0  0  0  0  0  0  0  0
  -88.2461   26.7117    2.1242 C   0  0  0  0  0  0  0  0  0  0  0  0
  -86.9678   27.4323    2.2634 C   0  0  0  0  0  0  0  0  0  0  0  0
  -85.7892   26.8113    1.9170 C   0  0  0  0  0  0  0  0  0  0  0  0
  -84.5749   27.4555    2.0344 C   0  0  0  0  0  0  0  0  0  0  0  0
  -84.5494   28.7573    2.5127 C   0  0  0  0  0  0  0  0  0  0  0  0
  -85.7213   29.3934    2.8639 C   0  0  0  0  0  0  0  0  0  0  0  0
  -86.9333   28.7099    2.7318 C   0  0  0  0  0  0  0  0  0  0  0  0
  7  8  1  0  0  0
  8  9  2  0  0  0
  9 10  1  0  0  0
 10 11  1  0  0  0
 11 12  2  0  0  0
 12 13  1  0  0  0
 13 14  2  0  0  0
 14 15  1  0  0  0
 15 16  2  0  0  0
 14  1  1  0  0  0
  1  2  2  0  0  0
  2  3  1  0  0  0
  3  4  2  0  0  0
  4  5  1  0  0  0
  5 18  1  0  0  0
 18 19  1  0  0  0
 19 20  1  0  0  0
 20 21  1  0  0  0
 20 24  1  0  0  0
 24 25  1  0  0  0
 25 26  2  0  0  0
 26 27  1  0  0  0
 27 28  2  0  0  0
 28 29  1  0  0  0
 29 30  2  0  0  0
  5  6  2  0  0  0
 16  8  1  0  0  0
  6  1  1  0  0  0
 16 11  1  0  0  0
 30 25  1  0  0  0
 10 17  1  0  0  0
 21 22  1  0  0  0
 21 23  1  0  0  0
M  END
> <minimizedAffinity>
-7.70923

> <CNNscore>
0.5740520358

> <CNNaffinity>
6.8654303551

> <CNN_VS>
3.9411141872

> <CNNaffinity_variance>
0.1048483700

$$$$
[H]c1sc(-c2c([H])c([H])c3c(c2[H])C([H])([H])C([H])([H])O3)nc1C(=O)N([H])c1nc2c([H])c([H])c(N3C([H])([H])C([H])([H])N(C([H])([H])[H])C([H])([H])C3([H])[H])c([H])c2s1


 34 39  0  0  0  0  0  0  0  0999 V2000
  -85.0140   33.6673   -1.4511 N   0  0  0  0  0  0  0  0  0  0  0  0
  -84.0777   33.1135   -0.6281 C   0  0  0  0  0  0  0  0  0  0  0  0
  -82.9562   33.7326   -0.3810 O   0  0  0  0  0  0  0  0  0  0  0  0
  -84.7538   34.6582   -1.8576 H   0  0  0  0  0  0  0  0  0  0  0  0
  -90.5024   31.3821   -3.6546 C   0  0  0  0  0  0  0  0  0  0  0  0
  -89.6019   31.3914   -4.6935 C   0  0  0  0  0  0  0  0  0  0  0  0
  -88.3121   31.8170   -4.6061 C   0  0  0  0  0  0  0  0  0  0  0  0
  -87.8255   32.2928   -3.3702 C   0  0  0  0  0  0  0  0  0  0  0  0
  -86.6185   32.7263   -3.1501 N   0  0  0  0  0  0  0  0  0  0  0  0
  -86.2401   33.1521   -1.9719 C   0  0  0  0  0  0  0  0  0  0  0  0
  -87.7215   32.9264   -1.0691 S   0  0  0  0  0  0  0  0  0  0  0  0
  -88.6969   32.2959   -2.3189 C   0  0  0  0  0  0  0  0  0  0  0  0
  -90.0211   31.8488   -2.4469 C   0  0  0  0  0  0  0  0  0  0  0  0
  -95.2740   30.6565   -2.6964 C   0  0  0  0  0  0  0  0  0  0  0  0
  -94.5457   30.0597   -3.7981 N   0  0  0  0  0  0  0  0  0  0  0  0
  -94.0498   31.1016   -4.6415 C   0  0  0  0  0  0  0  0  0  0  0  0
  -92.9022   31.8663   -3.9688 C   0  0  0  0  0  0  0  0  0  0  0  0
  -91.8242   30.9210   -3.8160 N   0  0  0  0  0  0  0  0  0  0  0  0
  -92.1544   29.5136   -3.8311 C   0  0  0  0  0  0  0  0  0  0  0  0
  -93.5138   29.2256   -3.2429 C   0  0  0  0  0  0  0  0  0  0  0  0
  -84.1661   31.8250    0.0651 C   0  0  0  0  0  0  0  0  0  0  0  0
  -83.2126   31.3960    0.9597 C   0  0  0  0  0  0  0  0  0  0  0  0
  -83.8589   29.8985    1.4791 S   0  0  0  0  0  0  0  0  0  0  0  0
  -85.2816   29.8943    0.5471 C   0  0  0  0  0  0  0  0  0  0  0  0
  -85.1920   31.0308   -0.1092 N   0  0  0  0  0  0  0  0  0  0  0  0
  -86.3668   28.9119    0.4497 C   0  0  0  0  0  0  0  0  0  0  0  0
  -86.8743   28.4889   -0.7567 C   0  0  0  0  0  0  0  0  0  0  0  0
  -87.9080   27.5469   -0.7786 C   0  0  0  0  0  0  0  0  0  0  0  0
  -88.4248   27.0371    0.3894 C   0  0  0  0  0  0  0  0  0  0  0  0
  -89.4455   26.0979    0.6384 O   0  0  0  0  0  0  0  0  0  0  0  0
  -89.2870   25.6054    1.9601 C   0  0  0  0  0  0  0  0  0  0  0  0
  -88.6528   26.7552    2.6729 C   0  0  0  0  0  0  0  0  0  0  0  0
  -87.9155   27.4619    1.5987 C   0  0  0  0  0  0  0  0  0  0  0  0
  -86.8809   28.4047    1.6148 C   0  0  0  0  0  0  0  0  0  0  0  0
 14 15  1  0  0  0
 15 16  1  0  0  0
 16 17  1  0  0  0
 17 18  1  0  0  0
 18 19  1  0  0  0
 19 20  1  0  0  0
 18  5  1  0  0  0
  5  6  2  0  0  0
  6  7  1  0  0  0
  7  8  2  0  0  0
  8  9  1  0  0  0
  9 10  2  0  0  0
 10  1  1  0  0  0
  1  2  1  0  0  0
  2  3  2  0  0  0
  2 21  1  0  0  0
 21 22  2  0  0  0
 22 23  1  0  0  0
 23 24  1  0  0  0
 24 25  2  0  0  0
 24 26  1  0  0  0
 26 27  2  0  0  0
 27 28  1  0  0  0
 28 29  2  0  0  0
 29 30  1  0  0  0
 30 31  1  0  0  0
 31 32  1  0  0  0
 32 33  1  0  0  0
 33 34  2  0  0  0
 10 11  1  0  0  0
 11 12  1  0  0  0
 12 13  2  0  0  0
 20 15  1  0  0  0
 13  5  1  0  0  0
 12  8  1  0  0  0
 25 21  1  0  0  0
 34 26  1  0  0  0
 33 29  1  0  0  0
  1  4  1  0  0  0
M  END
> <minimizedAffinity>
-8.72254

> <CNNscore>
0.6587917209

> <CNNaffinity>
7.3381681442

> <CNN_VS>
4.8343243599

> <CNNaffinity_variance>
0.0943414792

$$$$
[H]c1sc(-c2c([H])c([H])c3c(c2[H])C([H])([H])C([H])([H])O3)nc1C(=O)N([H])c1nc2c([H])c([H])c(N3C([H])([H])C([H])([H])N(C([H])([H])[H])C([H])([H])C3([H])[H])c([H])c2s1


 34 39  0  0  0  0  0  0  0  0999 V2000
  -85.5317   33.5383   -1.3250 N   0  0  0  0  0  0  0  0  0  0  0  0
  -84.4103   33.2011   -0.6252 C   0  0  0  0  0  0  0  0  0  0  0  0
  -83.4007   34.0236   -0.5456 O   0  0  0  0  0  0  0  0  0  0  0  0
  -85.5146   34.5404   -1.7836 H   0  0  0  0  0  0  0  0  0  0  0  0
  -90.6907   30.2262   -2.9420 C   0  0  0  0  0  0  0  0  0  0  0  0
  -90.6287   30.2668   -1.5691 C   0  0  0  0  0  0  0  0  0  0  0  0
  -89.6565   30.8900   -0.8487 C   0  0  0  0  0  0  0  0  0  0  0  0
  -88.6152   31.5564   -1.5283 C   0  0  0  0  0  0  0  0  0  0  0  0
  -87.6287   32.1898   -0.9636 N   0  0  0  0  0  0  0  0  0  0  0  0
  -86.6979   32.7865   -1.6637 C   0  0  0  0  0  0  0  0  0  0  0  0
  -87.2515   32.4303   -3.2846 S   0  0  0  0  0  0  0  0  0  0  0  0
  -88.6493   31.5337   -2.8932 C   0  0  0  0  0  0  0  0  0  0  0  0
  -89.6689   30.8801   -3.6026 C   0  0  0  0  0  0  0  0  0  0  0  0
  -92.9710   26.8525   -5.7044 C   0  0  0  0  0  0  0  0  0  0  0  0
  -93.5868   28.0563   -5.1829 N   0  0  0  0  0  0  0  0  0  0  0  0
  -93.5371   28.0186   -3.7549 C   0  0  0  0  0  0  0  0  0  0  0  0
  -92.1067   28.2267   -3.2401 C   0  0  0  0  0  0  0  0  0  0  0  0
  -91.7322   29.5653   -3.6234 N   0  0  0  0  0  0  0  0  0  0  0  0
  -92.4534   30.1809   -4.7147 C   0  0  0  0  0  0  0  0  0  0  0  0
  -92.9019   29.1842   -5.7551 C   0  0  0  0  0  0  0  0  0  0  0  0
  -84.1677   31.9509    0.1004 C   0  0  0  0  0  0  0  0  0  0  0  0
  -83.0575   31.7534    0.8891 C   0  0  0  0  0  0  0  0  0  0  0  0
  -83.3360   30.1829    1.5102 S   0  0  0  0  0  0  0  0  0  0  0  0
  -84.8220   29.8634    0.7471 C   0  0  0  0  0  0  0  0  0  0  0  0
  -85.0296   30.9664    0.0610 N   0  0  0  0  0  0  0  0  0  0  0  0
  -85.6963   28.6862    0.7948 C   0  0  0  0  0  0  0  0  0  0  0  0
  -85.6095   27.7414    1.7905 C   0  0  0  0  0  0  0  0  0  0  0  0
  -86.4762   26.6436    1.7780 C   0  0  0  0  0  0  0  0  0  0  0  0
  -87.4146   26.4950    0.7836 C   0  0  0  0  0  0  0  0  0  0  0  0
  -88.3863   25.5029    0.5445 O   0  0  0  0  0  0  0  0  0  0  0  0
  -89.3625   26.0367   -0.3368 C   0  0  0  0  0  0  0  0  0  0  0  0
  -88.5847   27.0298   -1.1374 C   0  0  0  0  0  0  0  0  0  0  0  0
  -87.5007   27.4428   -0.2147 C   0  0  0  0  0  0  0  0  0  0  0  0
  -86.6310   28.5395   -0.1971 C   0  0  0  0  0  0  0  0  0  0  0  0
 14 15  1  0  0  0
 15 16  1  0  0  0
 16 17  1  0  0  0
 17 18  1  0  0  0
 18 19  1  0  0  0
 19 20  1  0  0  0
 18  5  1  0  0  0
  5  6  2  0  0  0
  6  7  1  0  0  0
  7  8  2  0  0  0
  8  9  1  0  0  0
  9 10  2  0  0  0
 10  1  1  0  0  0
  1  2  1  0  0  0
  2  3  2  0  0  0
  2 21  1  0  0  0
 21 22  2  0  0  0
 22 23  1  0  0  0
 23 24  1  0  0  0
 24 25  2  0  0  0
 24 26  1  0  0  0
 26 27  2  0  0  0
 27 28  1  0  0  0
 28 29  2  0  0  0
 29 30  1  0  0  0
 30 31  1  0  0  0
 31 32  1  0  0  0
 32 33  1  0  0  0
 33 34  2  0  0  0
 10 11  1  0  0  0
 11 12  1  0  0  0
 12 13  2  0  0  0
 20 15  1  0  0  0
 13  5  1  0  0  0
 12  8  1  0  0  0
 25 21  1  0  0  0
 34 26  1  0  0  0
 33 29  1  0  0  0
  1  4  1  0  0  0
M  END
> <minimizedAffinity>
-9.20059

> <CNNscore>
0.5997798443

> <CNNaffinity>
7.1644849777

> <CNN_VS>
4.2971138954

> <CNNaffinity_variance>
0.1158272177

$$$$
[H]c1sc(-c2c([H])c([H])c3c(c2[H])C([H])([H])C([H])([H])O3)nc1C(=O)N([H])c1nc2c([H])c([H])c(N3C([H])([H])C([H])([H])N(C([H])([H])[H])C([H])([H])C3([H])[H])c([H])c2s1


 34 39  0  0  0  0  0  0  0  0999 V2000
  -85.9928   26.8667    1.6421 N   0  0  0  0  0  0  0  0  0  0  0  0
  -84.8787   27.5403    2.0490 C   0  0  0  0  0  0  0  0  0  0  0  0
  -84.0237   26.9858    2.8636 O   0  0  0  0  0  0  0  0  0  0  0  0
  -86.0906   25.8415    2.0349 H   0  0  0  0  0  0  0  0  0  0  0  0
  -90.9552   28.6689   -1.8689 C   0  0  0  0  0  0  0  0  0  0  0  0
  -91.1468   29.1435   -0.5928 C   0  0  0  0  0  0  0  0  0  0  0  0
  -90.2899   28.9557    0.4478 C   0  0  0  0  0  0  0  0  0  0  0  0
  -89.1028   28.2223    0.2394 C   0  0  0  0  0  0  0  0  0  0  0  0
  -88.2014   27.9714    1.1437 N   0  0  0  0  0  0  0  0  0  0  0  0
  -87.1222   27.2824    0.8730 C   0  0  0  0  0  0  0  0  0  0  0  0
  -87.3861   26.9451   -0.8233 S   0  0  0  0  0  0  0  0  0  0  0  0
  -88.8843   27.7377   -1.0184 C   0  0  0  0  0  0  0  0  0  0  0  0
  -89.7915   27.9516   -2.0676 C   0  0  0  0  0  0  0  0  0  0  0  0
  -93.2928   28.1495   -6.1675 C   0  0  0  0  0  0  0  0  0  0  0  0
  -93.5495   29.1989   -5.2016 N   0  0  0  0  0  0  0  0  0  0  0  0
  -93.9858   28.6029   -3.9779 C   0  0  0  0  0  0  0  0  0  0  0  0
  -92.8332   27.8836   -3.2648 C   0  0  0  0  0  0  0  0  0  0  0  0
  -91.8842   28.9066   -2.9015 N   0  0  0  0  0  0  0  0  0  0  0  0
  -91.9259   30.1544   -3.6304 C   0  0  0  0  0  0  0  0  0  0  0  0
  -92.3477   29.9778   -5.0683 C   0  0  0  0  0  0  0  0  0  0  0  0
  -84.4836   28.8998    1.6692 C   0  0  0  0  0  0  0  0  0  0  0  0
  -83.2595   29.4363    1.9967 C   0  0  0  0  0  0  0  0  0  0  0  0
  -83.3377   30.9793    1.2598 S   0  0  0  0  0  0  0  0  0  0  0  0
  -84.8956   30.8653    0.5871 C   0  0  0  0  0  0  0  0  0  0  0  0
  -85.2749   29.6611    0.9565 N   0  0  0  0  0  0  0  0  0  0  0  0
  -85.6750   31.8221   -0.2063 C   0  0  0  0  0  0  0  0  0  0  0  0
  -85.1184   32.9548   -0.7531 C   0  0  0  0  0  0  0  0  0  0  0  0
  -85.9180   33.8245   -1.5020 C   0  0  0  0  0  0  0  0  0  0  0  0
  -87.2538   33.5633   -1.6995 C   0  0  0  0  0  0  0  0  0  0  0  0
  -88.2582   34.2623   -2.3984 O   0  0  0  0  0  0  0  0  0  0  0  0
  -89.3265   33.3654   -2.6613 C   0  0  0  0  0  0  0  0  0  0  0  0
  -89.2464   32.4045   -1.5201 C   0  0  0  0  0  0  0  0  0  0  0  0
  -87.8111   32.4274   -1.1506 C   0  0  0  0  0  0  0  0  0  0  0  0
  -87.0062   31.5605   -0.4022 C   0  0  0  0  0  0  0  0  0  0  0  0
 14 15  1  0  0  0
 15 16  1  0  0  0
 16 17  1  0  0  0
 17 18  1  0  0  0
 18 19  1  0  0  0
 19 20  1  0  0  0
 18  5  1  0  0  0
  5  6  2  0  0  0
  6  7  1  0  0  0
  7  8  2  0  0  0
  8  9  1  0  0  0
  9 10  2  0  0  0
 10  1  1  0  0  0
  1  2  1  0  0  0
  2  3  2  0  0  0
  2 21  1  0  0  0
 21 22  2  0  0  0
 22 23  1  0  0  0
 23 24  1  0  0  0
 24 25  2  0  0  0
 24 26  1  0  0  0
 26 27  2  0  0  0
 27 28  1  0  0  0
 28 29  2  0  0  0
 29 30  1  0  0  0
 30 31  1  0  0  0
 31 32  1  0  0  0
 32 33  1  0  0  0
 33 34  2  0  0  0
 10 11  1  0  0  0
 11 12  1  0  0  0
 12 13  2  0  0  0
 20 15  1  0  0  0
 13  5  1  0  0  0
 12  8  1  0  0  0
 25 21  1  0  0  0
 34 26  1  0  0  0
 33 29  1  0  0  0
  1  4  1  0  0  0
M  END
> <minimizedAffinity>
-9.55453

> <CNNscore>
0.5669830441

> <CNNaffinity>
7.2669401169

> <CNN_VS>
4.1202316284

> <CNNaffinity_variance>
0.0590642318

$$$$
[H]c1sc(-c2c([H])c([H])c3c(c2[H])C([H])([H])C([H])([H])O3)nc1C(=O)N([H])c1nc2c([H])c([H])c(N3C([H])([H])C([H])([H])N(C([H])([H])[H])C([H])([H])C3([H])[H])c([H])c2s1


 34 39  0  0  0  0  0  0  0  0999 V2000
  -85.5330   26.8458    1.9272 N   0  0  0  0  0  0  0  0  0  0  0  0
  -84.4585   27.6167    2.2617 C   0  0  0  0  0  0  0  0  0  0  0  0
  -83.5702   27.1890    3.1162 O   0  0  0  0  0  0  0  0  0  0  0  0
  -85.5699   25.8569    2.4124 H   0  0  0  0  0  0  0  0  0  0  0  0
  -90.7244   28.0530   -1.5068 C   0  0  0  0  0  0  0  0  0  0  0  0
  -89.6346   28.1582   -2.3385 C   0  0  0  0  0  0  0  0  0  0  0  0
  -88.3411   27.9686   -1.9598 C   0  0  0  0  0  0  0  0  0  0  0  0
  -88.0573   27.6374   -0.6181 C   0  0  0  0  0  0  0  0  0  0  0  0
  -86.8707   27.4292   -0.1263 N   0  0  0  0  0  0  0  0  0  0  0  0
  -86.6870   27.1240    1.1329 C   0  0  0  0  0  0  0  0  0  0  0  0
  -88.3427   27.1255    1.6980 S   0  0  0  0  0  0  0  0  0  0  0  0
  -89.1195   27.5256    0.2326 C   0  0  0  0  0  0  0  0  0  0  0  0
  -90.4410   27.7286   -0.1944 C   0  0  0  0  0  0  0  0  0  0  0  0
  -94.4612   28.6051   -4.6601 C   0  0  0  0  0  0  0  0  0  0  0  0
  -94.5574   28.7497   -3.2214 N   0  0  0  0  0  0  0  0  0  0  0  0
  -94.2065   27.5072   -2.6083 C   0  0  0  0  0  0  0  0  0  0  0  0
  -92.7026   27.2287   -2.7312 C   0  0  0  0  0  0  0  0  0  0  0  0
  -92.0396   28.2579   -1.9695 N   0  0  0  0  0  0  0  0  0  0  0  0
  -92.7665   29.4809   -1.7129 C   0  0  0  0  0  0  0  0  0  0  0  0
  -93.7111   29.8454   -2.8317 C   0  0  0  0  0  0  0  0  0  0  0  0
  -84.1442   28.9563    1.7565 C   0  0  0  0  0  0  0  0  0  0  0  0
  -82.9017   29.5307    1.8977 C   0  0  0  0  0  0  0  0  0  0  0  0
  -83.1050   31.0243    1.0866 S   0  0  0  0  0  0  0  0  0  0  0  0
  -84.7307   30.8454    0.6200 C   0  0  0  0  0  0  0  0  0  0  0  0
  -85.0341   29.6603    1.1038 N   0  0  0  0  0  0  0  0  0  0  0  0
  -85.6232   31.7397   -0.1256 C   0  0  0  0  0  0  0  0  0  0  0  0
  -85.2011   32.9428   -0.6415 C   0  0  0  0  0  0  0  0  0  0  0  0
  -86.1036   33.7469   -1.3454 C   0  0  0  0  0  0  0  0  0  0  0  0
  -87.4080   33.3517   -1.5292 C   0  0  0  0  0  0  0  0  0  0  0  0
  -88.4950   33.9627   -2.1857 O   0  0  0  0  0  0  0  0  0  0  0  0
  -89.4676   32.9665   -2.4618 C   0  0  0  0  0  0  0  0  0  0  0  0
  -89.2626   31.9820   -1.3569 C   0  0  0  0  0  0  0  0  0  0  0  0
  -87.8305   32.1452   -1.0113 C   0  0  0  0  0  0  0  0  0  0  0  0
  -86.9230   31.3445   -0.3079 C   0  0  0  0  0  0  0  0  0  0  0  0
 14 15  1  0  0  0
 15 16  1  0  0  0
 16 17  1  0  0  0
 17 18  1  0  0  0
 18 19  1  0  0  0
 19 20  1  0  0  0
 18  5  1  0  0  0
  5  6  2  0  0  0
  6  7  1  0  0  0
  7  8  2  0  0  0
  8  9  1  0  0  0
  9 10  2  0  0  0
 10  1  1  0  0  0
  1  2  1  0  0  0
  2  3  2  0  0  0
  2 21  1  0  0  0
 21 22  2  0  0  0
 22 23  1  0  0  0
 23 24  1  0  0  0
 24 25  2  0  0  0
 24 26  1  0  0  0
 26 27  2  0  0  0
 27 28  1  0  0  0
 28 29  2  0  0  0
 29 30  1  0  0  0
 30 31  1  0  0  0
 31 32  1  0  0  0
 32 33  1  0  0  0
 33 34  2  0  0  0
 10 11  1  0  0  0
 11 12  1  0  0  0
 12 13  2  0  0  0
 20 15  1  0  0  0
 13  5  1  0  0  0
 12  8  1  0  0  0
 25 21  1  0  0  0
 34 26  1  0  0  0
 33 29  1  0  0  0
  1  4  1  0  0  0
M  END
> <minimizedAffinity>
-9.52300

> <CNNscore>
0.4376906753

> <CNNaffinity>
7.1735153198

> <CNN_VS>
3.1397807598

> <CNNaffinity_variance>
0.0673229322

$$$$
[H]c1sc(-c2c([H])c([H])c3c(c2[H])C([H])([H])C([H])([H])O3)nc1C(=O)N([H])c1nc2c([H])c([H])c(N3C([H])([H])C([H])([H])N(C([H])([H])[H])C([H])([H])C3([H])[H])c([H])c2s1


 34 39  0  0  0  0  0  0  0  0999 V2000
  -83.7935   31.3169    0.8090 N   0  0  0  0  0  0  0  0  0  0  0  0
  -83.6654   30.0525    1.3045 C   0  0  0  0  0  0  0  0  0  0  0  0
  -82.5497   29.6617    1.8564 O   0  0  0  0  0  0  0  0  0  0  0  0
  -82.9070   31.9605    0.9309 H   0  0  0  0  0  0  0  0  0  0  0  0
  -88.3574   34.1504   -2.5589 C   0  0  0  0  0  0  0  0  0  0  0  0
  -88.9590   33.2748   -1.6861 C   0  0  0  0  0  0  0  0  0  0  0  0
  -88.3012   32.4818   -0.7968 C   0  0  0  0  0  0  0  0  0  0  0  0
  -86.8926   32.5347   -0.7368 C   0  0  0  0  0  0  0  0  0  0  0  0
  -86.1439   31.8340    0.0643 N   0  0  0  0  0  0  0  0  0  0  0  0
  -84.8395   31.9394    0.0618 C   0  0  0  0  0  0  0  0  0  0  0  0
  -84.6271   33.1434   -1.1896 S   0  0  0  0  0  0  0  0  0  0  0  0
  -86.2660   33.3955   -1.5918 C   0  0  0  0  0  0  0  0  0  0  0  0
  -86.9783   34.1984   -2.4961 C   0  0  0  0  0  0  0  0  0  0  0  0
  -90.2024   35.8093   -6.8081 C   0  0  0  0  0  0  0  0  0  0  0  0
  -90.4062   36.4283   -5.5137 N   0  0  0  0  0  0  0  0  0  0  0  0
  -91.0782   35.5003   -4.6592 C   0  0  0  0  0  0  0  0  0  0  0  0
  -90.1504   34.3512   -4.2432 C   0  0  0  0  0  0  0  0  0  0  0  0
  -89.1032   34.9467   -3.4507 N   0  0  0  0  0  0  0  0  0  0  0  0
  -88.8570   36.3620   -3.6129 C   0  0  0  0  0  0  0  0  0  0  0  0
  -89.1217   36.8443   -5.0179 C   0  0  0  0  0  0  0  0  0  0  0  0
  -84.6830   28.9975    1.3000 C   0  0  0  0  0  0  0  0  0  0  0  0
  -84.7442   28.0206    2.2671 C   0  0  0  0  0  0  0  0  0  0  0  0
  -86.1284   27.1334    1.7909 S   0  0  0  0  0  0  0  0  0  0  0  0
  -86.5491   28.0331    0.4102 C   0  0  0  0  0  0  0  0  0  0  0  0
  -85.6169   28.9609    0.3834 N   0  0  0  0  0  0  0  0  0  0  0  0
  -87.6489   27.8713   -0.5472 C   0  0  0  0  0  0  0  0  0  0  0  0
  -88.2242   26.6504   -0.8119 C   0  0  0  0  0  0  0  0  0  0  0  0
  -89.2720   26.5665   -1.7346 C   0  0  0  0  0  0  0  0  0  0  0  0
  -89.7357   27.6880   -2.3818 C   0  0  0  0  0  0  0  0  0  0  0  0
  -90.7565   27.8722   -3.3356 O   0  0  0  0  0  0  0  0  0  0  0  0
  -91.1163   29.2453   -3.3455 C   0  0  0  0  0  0  0  0  0  0  0  0
  -89.8485   29.9273   -2.9460 C   0  0  0  0  0  0  0  0  0  0  0  0
  -89.1580   28.9119   -2.1159 C   0  0  0  0  0  0  0  0  0  0  0  0
  -88.1098   28.9900   -1.1914 C   0  0  0  0  0  0  0  0  0  0  0  0
 14 15  1  0  0  0
 15 16  1  0  0  0
 16 17  1  0  0  0
 17 18  1  0  0  0
 18 19  1  0  0  0
 19 20  1  0  0  0
 18  5  1  0  0  0
  5  6  2  0  0  0
  6  7  1  0  0  0
  7  8  2  0  0  0
  8  9  1  0  0  0
  9 10  2  0  0  0
 10  1  1  0  0  0
  1  2  1  0  0  0
  2  3  2  0  0  0
  2 21  1  0  0  0
 21 22  2  0  0  0
 22 23  1  0  0  0
 23 24  1  0  0  0
 24 25  2  0  0  0
 24 26  1  0  0  0
 26 27  2  0  0  0
 27 28  1  0  0  0
 28 29  2  0  0  0
 29 30  1  0  0  0
 30 31  1  0  0  0
 31 32  1  0  0  0
 32 33  1  0  0  0
 33 34  2  0  0  0
 10 11  1  0  0  0
 11 12  1  0  0  0
 12 13  2  0  0  0
 20 15  1  0  0  0
 13  5  1  0  0  0
 12  8  1  0  0  0
 25 21  1  0  0  0
 34 26  1  0  0  0
 33 29  1  0  0  0
  1  4  1  0  0  0
M  END
> <minimizedAffinity>
-9.37546

> <CNNscore>
0.3619121313

> <CNNaffinity>
7.0389566422

> <CNN_VS>
2.5474836826

> <CNNaffinity_variance>
0.2017045766

$$$$
[H]c1sc(-c2c([H])c([H])c3c(c2[H])C([H])([H])C([H])([H])O3)nc1C(=O)N([H])c1nc2c([H])c([H])c(N3C([H])([H])C([H])([H])N(C([H])([H])[H])C([H])([H])C3([H])[H])c([H])c2s1


 34 39  0  0  0  0  0  0  0  0999 V2000
  -84.8676   32.4114    0.0522 N   0  0  0  0  0  0  0  0  0  0  0  0
  -84.0134   31.6011    0.7410 C   0  0  0  0  0  0  0  0  0  0  0  0
  -82.8143   32.0083    1.0550 O   0  0  0  0  0  0  0  0  0  0  0  0
  -84.4731   33.4120   -0.1887 H   0  0  0  0  0  0  0  0  0  0  0  0
  -90.5735   31.4112   -2.5251 C   0  0  0  0  0  0  0  0  0  0  0  0
  -90.4706   30.6174   -1.4073 C   0  0  0  0  0  0  0  0  0  0  0  0
  -89.3851   30.5574   -0.5885 C   0  0  0  0  0  0  0  0  0  0  0  0
  -88.2591   31.3570   -0.8770 C   0  0  0  0  0  0  0  0  0  0  0  0
  -87.1616   31.3961   -0.1790 N   0  0  0  0  0  0  0  0  0  0  0  0
  -86.1573   32.1668   -0.5106 C   0  0  0  0  0  0  0  0  0  0  0  0
  -86.8063   32.9213   -1.9495 S   0  0  0  0  0  0  0  0  0  0  0  0
  -88.3312   32.1567   -1.9815 C   0  0  0  0  0  0  0  0  0  0  0  0
  -89.4685   32.1921   -2.8031 C   0  0  0  0  0  0  0  0  0  0  0  0
  -94.0117   29.8467   -5.6785 C   0  0  0  0  0  0  0  0  0  0  0  0
  -93.9401   31.1818   -5.1195 N   0  0  0  0  0  0  0  0  0  0  0  0
  -94.0607   31.0940   -3.6980 C   0  0  0  0  0  0  0  0  0  0  0  0
  -92.7989   30.4910   -3.0666 C   0  0  0  0  0  0  0  0  0  0  0  0
  -91.7330   31.4269   -3.3258 N   0  0  0  0  0  0  0  0  0  0  0  0
  -91.9027   32.3558   -4.4206 C   0  0  0  0  0  0  0  0  0  0  0  0
  -92.7068   31.7773   -5.5589 C   0  0  0  0  0  0  0  0  0  0  0  0
  -84.2779   30.2374    1.2091 C   0  0  0  0  0  0  0  0  0  0  0  0
  -83.3995   29.5434    2.0091 C   0  0  0  0  0  0  0  0  0  0  0  0
  -84.2422   28.0777    2.2764 S   0  0  0  0  0  0  0  0  0  0  0  0
  -85.6420   28.4163    1.3717 C   0  0  0  0  0  0  0  0  0  0  0  0
  -85.3967   29.6250    0.9144 N   0  0  0  0  0  0  0  0  0  0  0  0
  -86.8452   27.6148    1.1218 C   0  0  0  0  0  0  0  0  0  0  0  0
  -87.3371   27.3954   -0.1437 C   0  0  0  0  0  0  0  0  0  0  0  0
  -88.4880   26.6185   -0.3120 C   0  0  0  0  0  0  0  0  0  0  0  0
  -89.1356   26.0706    0.7705 C   0  0  0  0  0  0  0  0  0  0  0  0
  -90.2887   25.2668    0.8722 O   0  0  0  0  0  0  0  0  0  0  0  0
  -90.2748   24.6234    2.1373 C   0  0  0  0  0  0  0  0  0  0  0  0
  -89.5294   25.5909    2.9977 C   0  0  0  0  0  0  0  0  0  0  0  0
  -88.6418   26.2913    2.0393 C   0  0  0  0  0  0  0  0  0  0  0  0
  -87.4896   27.0694    2.2018 C   0  0  0  0  0  0  0  0  0  0  0  0
 14 15  1  0  0  0
 15 16  1  0  0  0
 16 17  1  0  0  0
 17 18  1  0  0  0
 18 19  1  0  0  0
 19 20  1  0  0  0
 18  5  1  0  0  0
  5  6  2  0  0  0
  6  7  1  0  0  0
  7  8  2  0  0  0
  8  9  1  0  0  0
  9 10  2  0  0  0
 10  1  1  0  0  0
  1  2  1  0  0  0
  2  3  2  0  0  0
  2 21  1  0  0  0
 21 22  2  0  0  0
 22 23  1  0  0  0
 23 24  1  0  0  0
 24 25  2  0  0  0
 24 26  1  0  0  0
 26 27  2  0  0  0
 27 28  1  0  0  0
 28 29  2  0  0  0
 29 30  1  0  0  0
 30 31  1  0  0  0
 31 32  1  0  0  0
 32 33  1  0  0  0
 33 34  2  0  0  0
 10 11  1  0  0  0
 11 12  1  0  0  0
 12 13  2  0  0  0
 20 15  1  0  0  0
 13  5  1  0  0  0
 12  8  1  0  0  0
 25 21  1  0  0  0
 34 26  1  0  0  0
 33 29  1  0  0  0
  1  4  1  0  0  0
M  END
> <minimizedAffinity>
-8.42921

> <CNNscore>
0.2919042706

> <CNNaffinity>
7.0146980286

> <CNN_VS>
2.0476202965

> <CNNaffinity_variance>
0.1420223266

$$$$
[H]c1sc(-c2c([H])c([H])c3c(c2[H])C([H])([H])C([H])([H])O3)nc1C(=O)N([H])c1nc2c([H])c([H])c(N3C([H])([H])C([H])([H])N(C([H])([H])[H])C([H])([H])C3([H])[H])c([H])c2s1


 34 39  0  0  0  0  0  0  0  0999 V2000
  -85.6453   26.9612    2.0386 N   0  0  0  0  0  0  0  0  0  0  0  0
  -84.6420   27.8715    2.1982 C   0  0  0  0  0  0  0  0  0  0  0  0
  -83.6035   27.5972    2.9387 O   0  0  0  0  0  0  0  0  0  0  0  0
  -85.4941   26.0007    2.5576 H   0  0  0  0  0  0  0  0  0  0  0  0
  -91.2498   27.3504   -0.9006 C   0  0  0  0  0  0  0  0  0  0  0  0
  -91.3902   27.9034    0.3503 C   0  0  0  0  0  0  0  0  0  0  0  0
  -90.3988   28.0006    1.2777 C   0  0  0  0  0  0  0  0  0  0  0  0
  -89.1142   27.5065    0.9677 C   0  0  0  0  0  0  0  0  0  0  0  0
  -88.0818   27.5373    1.7593 N   0  0  0  0  0  0  0  0  0  0  0  0
  -86.9186   27.0582    1.3988 C   0  0  0  0  0  0  0  0  0  0  0  0
  -87.2978   26.5036   -0.2165 S   0  0  0  0  0  0  0  0  0  0  0  0
  -88.9434   26.9511   -0.2679 C   0  0  0  0  0  0  0  0  0  0  0  0
  -89.9902   26.8682   -1.1991 C   0  0  0  0  0  0  0  0  0  0  0  0
  -95.5995   28.3554   -2.9698 C   0  0  0  0  0  0  0  0  0  0  0  0
  -94.6844   27.3235   -3.4147 N   0  0  0  0  0  0  0  0  0  0  0  0
  -93.4534   27.9358   -3.8054 C   0  0  0  0  0  0  0  0  0  0  0  0
  -92.6751   28.4520   -2.5880 C   0  0  0  0  0  0  0  0  0  0  0  0
  -92.3209   27.2880   -1.8142 N   0  0  0  0  0  0  0  0  0  0  0  0
  -93.0990   26.0855   -2.0105 C   0  0  0  0  0  0  0  0  0  0  0  0
  -94.5421   26.3711   -2.3463 C   0  0  0  0  0  0  0  0  0  0  0  0
  -84.5671   29.2119    1.6099 C   0  0  0  0  0  0  0  0  0  0  0  0
  -83.4284   29.9828    1.6608 C   0  0  0  0  0  0  0  0  0  0  0  0
  -83.9008   31.3752    0.7846 S   0  0  0  0  0  0  0  0  0  0  0  0
  -85.4940   30.9145    0.4073 C   0  0  0  0  0  0  0  0  0  0  0  0
  -85.5838   29.7268    0.9657 N   0  0  0  0  0  0  0  0  0  0  0  0
  -86.5473   31.6112   -0.3393 C   0  0  0  0  0  0  0  0  0  0  0  0
  -87.8764   31.2745   -0.2300 C   0  0  0  0  0  0  0  0  0  0  0  0
  -88.8308   31.9819   -0.9684 C   0  0  0  0  0  0  0  0  0  0  0  0
  -88.4592   33.0099   -1.8030 C   0  0  0  0  0  0  0  0  0  0  0  0
  -89.2068   33.8632   -2.6390 O   0  0  0  0  0  0  0  0  0  0  0  0
  -88.4167   35.0051   -2.9333 C   0  0  0  0  0  0  0  0  0  0  0  0
  -87.0218   34.4736   -2.8694 C   0  0  0  0  0  0  0  0  0  0  0  0
  -87.1262   33.3467   -1.9122 C   0  0  0  0  0  0  0  0  0  0  0  0
  -86.1754   32.6355   -1.1708 C   0  0  0  0  0  0  0  0  0  0  0  0
 14 15  1  0  0  0
 15 16  1  0  0  0
 16 17  1  0  0  0
 17 18  1  0  0  0
 18 19  1  0  0  0
 19 20  1  0  0  0
 18  5  1  0  0  0
  5  6  2  0  0  0
  6  7  1  0  0  0
  7  8  2  0  0  0
  8  9  1  0  0  0
  9 10  2  0  0  0
 10  1  1  0  0  0
  1  2  1  0  0  0
  2  3  2  0  0  0
  2 21  1  0  0  0
 21 22  2  0  0  0
 22 23  1  0  0  0
 23 24  1  0  0  0
 24 25  2  0  0  0
 24 26  1  0  0  0
 26 27  2  0  0  0
 27 28  1  0  0  0
 28 29  2  0  0  0
 29 30  1  0  0  0
 30 31  1  0  0  0
 31 32  1  0  0  0
 32 33  1  0  0  0
 33 34  2  0  0  0
 10 11  1  0  0  0
 11 12  1  0  0  0
 12 13  2  0  0  0
 20 15  1  0  0  0
 13  5  1  0  0  0
 12  8  1  0  0  0
 25 21  1  0  0  0
 34 26  1  0  0  0
 33 29  1  0  0  0
  1  4  1  0  0  0
M  END
> <minimizedAffinity>
-8.93911

> <CNNscore>
0.2450578064

> <CNNaffinity>
6.9418716431

> <CNN_VS>
1.7011598349

> <CNNaffinity_variance>
0.1391903460

$$$$
[H]c1sc(-c2c([H])c([H])c3c(c2[H])C([H])([H])C([H])([H])O3)nc1C(=O)N([H])c1nc2c([H])c([H])c(N3C([H])([H])C([H])([H])N(C([H])([H])[H])C([H])([H])C3([H])[H])c([H])c2s1


 34 39  0  0  0  0  0  0  0  0999 V2000
  -85.1344   27.3512    2.1424 N   0  0  0  0  0  0  0  0  0  0  0  0
  -84.3017   28.4314    2.1216 C   0  0  0  0  0  0  0  0  0  0  0  0
  -83.1422   28.3920    2.7186 O   0  0  0  0  0  0  0  0  0  0  0  0
  -84.7436   26.4680    2.6736 H   0  0  0  0  0  0  0  0  0  0  0  0
  -91.0539   26.5426    0.0197 C   0  0  0  0  0  0  0  0  0  0  0  0
  -91.1120   27.3408    1.1377 C   0  0  0  0  0  0  0  0  0  0  0  0
  -90.0370   27.7346    1.8737 C   0  0  0  0  0  0  0  0  0  0  0  0
  -88.7470   27.3107    1.4908 C   0  0  0  0  0  0  0  0  0  0  0  0
  -87.6395   27.6142    2.1030 N   0  0  0  0  0  0  0  0  0  0  0  0
  -86.4770   27.1820    1.6855 C   0  0  0  0  0  0  0  0  0  0  0  0
  -86.9739   26.2520    0.2895 S   0  0  0  0  0  0  0  0  0  0  0  0
  -88.6568   26.5164    0.3838 C   0  0  0  0  0  0  0  0  0  0  0  0
  -89.7887   26.1303   -0.3509 C   0  0  0  0  0  0  0  0  0  0  0  0
  -94.0270   23.9178   -2.8929 C   0  0  0  0  0  0  0  0  0  0  0  0
  -94.3425   25.2178   -2.3356 N   0  0  0  0  0  0  0  0  0  0  0  0
  -94.3338   25.1230   -0.9095 C   0  0  0  0  0  0  0  0  0  0  0  0
  -92.9070   24.9593   -0.3693 C   0  0  0  0  0  0  0  0  0  0  0  0
  -92.2101   26.1779   -0.6986 N   0  0  0  0  0  0  0  0  0  0  0  0
  -92.7366   26.9857   -1.7757 C   0  0  0  0  0  0  0  0  0  0  0  0
  -93.3918   26.1627   -2.8574 C   0  0  0  0  0  0  0  0  0  0  0  0
  -84.5504   29.7229    1.4746 C   0  0  0  0  0  0  0  0  0  0  0  0
  -83.6149   30.7316    1.4459 C   0  0  0  0  0  0  0  0  0  0  0  0
  -84.4170   31.9361    0.5318 S   0  0  0  0  0  0  0  0  0  0  0  0
  -85.8752   31.1105    0.2402 C   0  0  0  0  0  0  0  0  0  0  0  0
  -85.6765   29.9629    0.8516 N   0  0  0  0  0  0  0  0  0  0  0  0
  -87.0813   31.5139   -0.4911 C   0  0  0  0  0  0  0  0  0  0  0  0
  -87.2243   32.7632   -1.0483 C   0  0  0  0  0  0  0  0  0  0  0  0
  -88.4000   33.0822   -1.7356 C   0  0  0  0  0  0  0  0  0  0  0  0
  -89.4161   32.1641   -1.8624 C   0  0  0  0  0  0  0  0  0  0  0  0
  -90.6753   32.2317   -2.4914 O   0  0  0  0  0  0  0  0  0  0  0  0
  -91.1375   30.9075   -2.7096 C   0  0  0  0  0  0  0  0  0  0  0  0
  -90.5061   30.1431   -1.5919 C   0  0  0  0  0  0  0  0  0  0  0  0
  -89.2719   30.9115   -1.3032 C   0  0  0  0  0  0  0  0  0  0  0  0
  -88.0931   30.5977   -0.6166 C   0  0  0  0  0  0  0  0  0  0  0  0
 14 15  1  0  0  0
 15 16  1  0  0  0
 16 17  1  0  0  0
 17 18  1  0  0  0
 18 19  1  0  0  0
 19 20  1  0  0  0
 18  5  1  0  0  0
  5  6  2  0  0  0
  6  7  1  0  0  0
  7  8  2  0  0  0
  8  9  1  0  0  0
  9 10  2  0  0  0
 10  1  1  0  0  0
  1  2  1  0  0  0
  2  3  2  0  0  0
  2 21  1  0  0  0
 21 22  2  0  0  0
 22 23  1  0  0  0
 23 24  1  0  0  0
 24 25  2  0  0  0
 24 26  1  0  0  0
 26 27  2  0  0  0
 27 28  1  0  0  0
 28 29  2  0  0  0
 29 30  1  0  0  0
 30 31  1  0  0  0
 31 32  1  0  0  0
 32 33  1  0  0  0
 33 34  2  0  0  0
 10 11  1  0  0  0
 11 12  1  0  0  0
 12 13  2  0  0  0
 20 15  1  0  0  0
 13  5  1  0  0  0
 12  8  1  0  0  0
 25 21  1  0  0  0
 34 26  1  0  0  0
 33 29  1  0  0  0
  1  4  1  0  0  0
M  END
> <minimizedAffinity>
-8.31803

> <CNNscore>
0.1829385906

> <CNNaffinity>
6.7883939743

> <CNN_VS>
1.2418591976

> <CNNaffinity_variance>
0.1023853645

$$$$
[H]c1sc(-c2c([H])c([H])c3c(c2[H])C([H])([H])C([H])([H])O3)nc1C(=O)N([H])c1nc2c([H])c([H])c(N3C([H])([H])C([H])([H])N(C([H])([H])[H])C([H])([H])C3([H])[H])c([H])c2s1


 34 39  0  0  0  0  0  0  0  0999 V2000
  -85.6155   32.0293    0.3335 N   0  0  0  0  0  0  0  0  0  0  0  0
  -85.4921   30.7573    0.8104 C   0  0  0  0  0  0  0  0  0  0  0  0
  -84.5833   30.4627    1.6989 O   0  0  0  0  0  0  0  0  0  0  0  0
  -84.9154   32.7624    0.7663 H   0  0  0  0  0  0  0  0  0  0  0  0
  -89.2999   34.3867   -4.2565 C   0  0  0  0  0  0  0  0  0  0  0  0
  -88.0254   34.8641   -4.4517 C   0  0  0  0  0  0  0  0  0  0  0  0
  -86.9537   34.5763   -3.6636 C   0  0  0  0  0  0  0  0  0  0  0  0
  -87.1250   33.7260   -2.5509 C   0  0  0  0  0  0  0  0  0  0  0  0
  -86.1882   33.3707   -1.7206 N   0  0  0  0  0  0  0  0  0  0  0  0
  -86.4251   32.5751   -0.7089 C   0  0  0  0  0  0  0  0  0  0  0  0
  -88.1360   32.2872   -0.9337 S   0  0  0  0  0  0  0  0  0  0  0  0
  -88.3802   33.2356   -2.3308 C   0  0  0  0  0  0  0  0  0  0  0  0
  -89.4622   33.5547   -3.1659 C   0  0  0  0  0  0  0  0  0  0  0  0
  -92.8293   33.8432   -7.6418 C   0  0  0  0  0  0  0  0  0  0  0  0
  -92.4435   35.1017   -7.0357 N   0  0  0  0  0  0  0  0  0  0  0  0
  -92.6695   35.0237   -5.6265 C   0  0  0  0  0  0  0  0  0  0  0  0
  -91.6516   34.0974   -4.9481 C   0  0  0  0  0  0  0  0  0  0  0  0
  -90.3634   34.7226   -5.1179 N   0  0  0  0  0  0  0  0  0  0  0  0
  -90.2157   35.6826   -6.1888 C   0  0  0  0  0  0  0  0  0  0  0  0
  -91.0725   35.3576   -7.3875 C   0  0  0  0  0  0  0  0  0  0  0  0
  -86.2986   29.5930    0.4328 C   0  0  0  0  0  0  0  0  0  0  0  0
  -86.2893   29.0634   -0.8372 C   0  0  0  0  0  0  0  0  0  0  0  0
  -87.3421   27.7239   -0.6729 S   0  0  0  0  0  0  0  0  0  0  0  0
  -87.7344   27.9043    0.9722 C   0  0  0  0  0  0  0  0  0  0  0  0
  -87.0446   28.9720    1.3111 N   0  0  0  0  0  0  0  0  0  0  0  0
  -88.6081   27.1143    1.8468 C   0  0  0  0  0  0  0  0  0  0  0  0
  -89.0444   27.5756    3.0669 C   0  0  0  0  0  0  0  0  0  0  0  0
  -89.8789   26.7719    3.8505 C   0  0  0  0  0  0  0  0  0  0  0  0
  -90.2698   25.5261    3.4186 C   0  0  0  0  0  0  0  0  0  0  0  0
  -91.0878   24.5388    4.0033 O   0  0  0  0  0  0  0  0  0  0  0  0
  -91.5200   23.6537    2.9812 C   0  0  0  0  0  0  0  0  0  0  0  0
  -90.4013   23.7110    1.9926 C   0  0  0  0  0  0  0  0  0  0  0  0
  -89.8316   25.0643    2.1950 C   0  0  0  0  0  0  0  0  0  0  0  0
  -88.9967   25.8728    1.4149 C   0  0  0  0  0  0  0  0  0  0  0  0
 14 15  1  0  0  0
 15 16  1  0  0  0
 16 17  1  0  0  0
 17 18  1  0  0  0
 18 19  1  0  0  0
 19 20  1  0  0  0
 18  5  1  0  0  0
  5  6  2  0  0  0
  6  7  1  0  0  0
  7  8  2  0  0  0
  8  9  1  0  0  0
  9 10  2  0  0  0
 10  1  1  0  0  0
  1  2  1  0  0  0
  2  3  2  0  0  0
  2 21  1  0  0  0
 21 22  2  0  0  0
 22 23  1  0  0  0
 23 24  1  0  0  0
 24 25  2  0  0  0
 24 26  1  0  0  0
 26 27  2  0  0  0
 27 28  1  0  0  0
 28 29  2  0  0  0
 29 30  1  0  0  0
 30 31  1  0  0  0
 31 32  1  0  0  0
 32 33  1  0  0  0
 33 34  2  0  0  0
 10 11  1  0  0  0
 11 12  1  0  0  0
 12 13  2  0  0  0
 20 15  1  0  0  0
 13  5  1  0  0  0
 12  8  1  0  0  0
 25 21  1  0  0  0
 34 26  1  0  0  0
 33 29  1  0  0  0
  1  4  1  0  0  0
M  END
> <minimizedAffinity>
-7.89095

> <CNNscore>
0.1525048465

> <CNNaffinity>
6.5030045509

> <CNN_VS>
0.9917396903

> <CNNaffinity_variance>
0.0748800933

$$$$
[H]c1nc(N([H])c2c([H])c([H])c(N3C([H])([H])C([H])([H])N(C([H])([H])[H])C([H])([H])C3([H])[H])c([H])c2OC([H])([H])[H])nc(-c2c([H])n([H])c3c([H])nc([H])c([H])c23)c1[H]


 33 37  0  0  0  0  0  0  0  0999 V2000
  -86.3522   26.9493    2.0090 N   0  0  0  0  0  0  0  0  0  0  0  0
  -86.4709   26.2523    2.8412 H   0  0  0  0  0  0  0  0  0  0  0  0
  -88.6516   27.4296    1.5815 C   0  0  0  0  0  0  0  0  0  0  0  0
  -89.7501   27.5752    0.7607 C   0  0  0  0  0  0  0  0  0  0  0  0
  -89.6701   27.3713   -0.5979 C   0  0  0  0  0  0  0  0  0  0  0  0
  -88.4401   27.0164   -1.0852 C   0  0  0  0  0  0  0  0  0  0  0  0
  -87.3091   26.8647   -0.2550 C   0  0  0  0  0  0  0  0  0  0  0  0
  -87.3899   27.0672    1.0920 C   0  0  0  0  0  0  0  0  0  0  0  0
  -90.7969   27.5019   -1.4560 N   0  0  0  0  0  0  0  0  0  0  0  0
  -91.4474   28.7666   -1.7595 C   0  0  0  0  0  0  0  0  0  0  0  0
  -91.3647   28.9757   -3.2457 C   0  0  0  0  0  0  0  0  0  0  0  0
  -91.9938   27.8727   -3.9483 N   0  0  0  0  0  0  0  0  0  0  0  0
  -93.4194   27.9708   -3.8671 C   0  0  0  0  0  0  0  0  0  0  0  0
  -91.4626   26.5940   -3.6097 C   0  0  0  0  0  0  0  0  0  0  0  0
  -91.3663   26.3387   -2.1079 C   0  0  0  0  0  0  0  0  0  0  0  0
  -89.8759   27.1997    3.6824 C   0  0  0  0  0  0  0  0  0  0  0  0
  -88.7752   27.6449    2.9498 O   0  0  0  0  0  0  0  0  0  0  0  0
  -85.1055   27.6034    2.0611 C   0  0  0  0  0  0  0  0  0  0  0  0
  -84.0311   27.0779    2.6339 N   0  0  0  0  0  0  0  0  0  0  0  0
  -82.8352   27.6730    2.7001 C   0  0  0  0  0  0  0  0  0  0  0  0
  -82.6695   28.9466    2.1325 C   0  0  0  0  0  0  0  0  0  0  0  0
  -83.7570   29.5073    1.5405 C   0  0  0  0  0  0  0  0  0  0  0  0
  -84.9314   28.8337    1.5179 N   0  0  0  0  0  0  0  0  0  0  0  0
  -83.7424   30.7957    0.8592 C   0  0  0  0  0  0  0  0  0  0  0  0
  -82.5933   31.5934    0.6782 C   0  0  0  0  0  0  0  0  0  0  0  0
  -82.9045   32.6895   -0.0185 N   0  0  0  0  0  0  0  0  0  0  0  0
  -84.2024   32.6611   -0.3115 C   0  0  0  0  0  0  0  0  0  0  0  0
  -84.9745   33.5720   -1.0302 C   0  0  0  0  0  0  0  0  0  0  0  0
  -86.2770   33.2887   -1.1997 N   0  0  0  0  0  0  0  0  0  0  0  0
  -86.8352   32.1737   -0.7036 C   0  0  0  0  0  0  0  0  0  0  0  0
  -86.0821   31.2496    0.0186 C   0  0  0  0  0  0  0  0  0  0  0  0
  -84.7422   31.4984    0.2200 C   0  0  0  0  0  0  0  0  0  0  0  0
  -82.2555   33.4649   -0.3043 H   0  0  0  0  0  0  0  0  0  0  0  0
 16 17  1  0  0  0
 17  3  1  0  0  0
  3  4  2  0  0  0
  4  5  1  0  0  0
  5  6  2  0  0  0
  6  7  1  0  0  0
  7  8  2  0  0  0
  8  1  1  0  0  0
  1 18  1  0  0  0
 18 19  2  0  0  0
 19 20  1  0  0  0
 20 21  2  0  0  0
 21 22  1  0  0  0
 22 23  2  0  0  0
 22 24  1  0  0  0
 24 25  2  0  0  0
 25 26  1  0  0  0
 26 27  1  0  0  0
 27 28  2  0  0  0
 28 29  1  0  0  0
 29 30  2  0  0  0
 30 31  1  0  0  0
 31 32  2  0  0  0
  5  9  1  0  0  0
  9 10  1  0  0  0
 10 11  1  0  0  0
 11 12  1  0  0  0
 12 13  1  0  0  0
 12 14  1  0  0  0
 14 15  1  0  0  0
  8  3  1  0  0  0
 23 18  1  0  0  0
 32 24  1  0  0  0
 15  9  1  0  0  0
 32 27  1  0  0  0
  1  2  1  0  0  0
 26 33  1  0  0  0
M  END
> <minimizedAffinity>
-9.79953

> <CNNscore>
0.7694623470

> <CNNaffinity>
7.5987687111

> <CNN_VS>
5.8469662666

> <CNNaffinity_variance>
0.0261272341

$$$$
[H]c1nc(N([H])c2c([H])c([H])c(N3C([H])([H])C([H])([H])N(C([H])([H])[H])C([H])([H])C3([H])[H])c([H])c2OC([H])([H])[H])nc(-c2c([H])n([H])c3c([H])nc([H])c([H])c23)c1[H]


 33 37  0  0  0  0  0  0  0  0999 V2000
  -87.2765   26.1322    1.8888 N   0  0  0  0  0  0  0  0  0  0  0  0
  -87.1916   25.4149    2.7079 H   0  0  0  0  0  0  0  0  0  0  0  0
  -89.6412   25.9941    1.5887 C   0  0  0  0  0  0  0  0  0  0  0  0
  -90.7842   25.8890    0.8244 C   0  0  0  0  0  0  0  0  0  0  0  0
  -90.7315   25.8059   -0.5482 C   0  0  0  0  0  0  0  0  0  0  0  0
  -89.4820   25.8337   -1.1087 C   0  0  0  0  0  0  0  0  0  0  0  0
  -88.3055   25.9413   -0.3368 C   0  0  0  0  0  0  0  0  0  0  0  0
  -88.3592   26.0234    1.0243 C   0  0  0  0  0  0  0  0  0  0  0  0
  -91.8998   25.6812   -1.3497 N   0  0  0  0  0  0  0  0  0  0  0  0
  -92.4404   26.7506   -2.1737 C   0  0  0  0  0  0  0  0  0  0  0  0
  -92.4474   26.2688   -3.5975 C   0  0  0  0  0  0  0  0  0  0  0  0
  -93.2346   25.0557   -3.7180 N   0  0  0  0  0  0  0  0  0  0  0  0
  -94.6331   25.3542   -3.6590 C   0  0  0  0  0  0  0  0  0  0  0  0
  -92.8112   24.0041   -2.8539 C   0  0  0  0  0  0  0  0  0  0  0  0
  -92.6301   24.4296   -1.3992 C   0  0  0  0  0  0  0  0  0  0  0  0
  -90.1074   27.2490    3.6316 C   0  0  0  0  0  0  0  0  0  0  0  0
  -89.7382   26.0755    2.9736 O   0  0  0  0  0  0  0  0  0  0  0  0
  -86.2094   27.0520    1.8993 C   0  0  0  0  0  0  0  0  0  0  0  0
  -85.0634   26.8304    2.5286 N   0  0  0  0  0  0  0  0  0  0  0  0
  -84.0332   27.6828    2.5577 C   0  0  0  0  0  0  0  0  0  0  0  0
  -84.1382   28.9102    1.8839 C   0  0  0  0  0  0  0  0  0  0  0  0
  -85.3043   29.1614    1.2322 C   0  0  0  0  0  0  0  0  0  0  0  0
  -86.2974   28.2413    1.2536 N   0  0  0  0  0  0  0  0  0  0  0  0
  -85.5561   30.3600    0.4419 C   0  0  0  0  0  0  0  0  0  0  0  0
  -86.8025   30.6987   -0.1250 C   0  0  0  0  0  0  0  0  0  0  0  0
  -86.7136   31.8748   -0.7515 N   0  0  0  0  0  0  0  0  0  0  0  0
  -85.4715   32.3366   -0.6292 C   0  0  0  0  0  0  0  0  0  0  0  0
  -84.9106   33.5227   -1.0996 C   0  0  0  0  0  0  0  0  0  0  0  0
  -83.6185   33.7574   -0.8155 N   0  0  0  0  0  0  0  0  0  0  0  0
  -82.8758   32.8944   -0.1050 C   0  0  0  0  0  0  0  0  0  0  0  0
  -83.4160   31.7025    0.3746 C   0  0  0  0  0  0  0  0  0  0  0  0
  -84.7368   31.4173    0.1062 C   0  0  0  0  0  0  0  0  0  0  0  0
  -87.4789   32.3792   -1.2654 H   0  0  0  0  0  0  0  0  0  0  0  0
 16 17  1  0  0  0
 17  3  1  0  0  0
  3  4  2  0  0  0
  4  5  1  0  0  0
  5  6  2  0  0  0
  6  7  1  0  0  0
  7  8  2  0  0  0
  8  1  1  0  0  0
  1 18  1  0  0  0
 18 19  2  0  0  0
 19 20  1  0  0  0
 20 21  2  0  0  0
 21 22  1  0  0  0
 22 23  2  0  0  0
 22 24  1  0  0  0
 24 25  2  0  0  0
 25 26  1  0  0  0
 26 27  1  0  0  0
 27 28  2  0  0  0
 28 29  1  0  0  0
 29 30  2  0  0  0
 30 31  1  0  0  0
 31 32  2  0  0  0
  5  9  1  0  0  0
  9 10  1  0  0  0
 10 11  1  0  0  0
 11 12  1  0  0  0
 12 13  1  0  0  0
 12 14  1  0  0  0
 14 15  1  0  0  0
  8  3  1  0  0  0
 23 18  1  0  0  0
 32 24  1  0  0  0
 15  9  1  0  0  0
 32 27  1  0  0  0
  1  2  1  0  0  0
 26 33  1  0  0  0
M  END
> <minimizedAffinity>
-8.61023

> <CNNscore>
0.5859963894

> <CNNaffinity>
7.1007041931

> <CNN_VS>
4.1609869003

> <CNNaffinity_variance>
0.0440304242

$$$$
[H]c1nc(N([H])c2c([H])c([H])c(N3C([H])([H])C([H])([H])N(C([H])([H])[H])C([H])([H])C3([H])[H])c([H])c2OC([H])([H])[H])nc(-c2c([H])n([H])c3c([H])nc([H])c([H])c23)c1[H]


 33 37  0  0  0  0  0  0  0  0999 V2000
  -86.6825   27.4748    2.2851 N   0  0  0  0  0  0  0  0  0  0  0  0
  -87.1236   27.6850    3.2618 H   0  0  0  0  0  0  0  0  0  0  0  0
  -88.6020   26.1450    1.7872 C   0  0  0  0  0  0  0  0  0  0  0  0
  -89.4410   25.4596    0.9340 C   0  0  0  0  0  0  0  0  0  0  0  0
  -89.2000   25.3938   -0.4193 C   0  0  0  0  0  0  0  0  0  0  0  0
  -88.0823   26.0464   -0.8674 C   0  0  0  0  0  0  0  0  0  0  0  0
  -87.2167   26.7511   -0.0039 C   0  0  0  0  0  0  0  0  0  0  0  0
  -87.4568   26.8155    1.3379 C   0  0  0  0  0  0  0  0  0  0  0  0
  -90.0466   24.6780   -1.3104 N   0  0  0  0  0  0  0  0  0  0  0  0
  -90.2719   23.2428   -1.2437 C   0  0  0  0  0  0  0  0  0  0  0  0
  -91.7428   23.0227   -1.0268 C   0  0  0  0  0  0  0  0  0  0  0  0
  -92.5097   23.6316   -2.0978 N   0  0  0  0  0  0  0  0  0  0  0  0
  -92.4200   22.8467   -3.2913 C   0  0  0  0  0  0  0  0  0  0  0  0
  -92.2500   25.0218   -2.2761 C   0  0  0  0  0  0  0  0  0  0  0  0
  -90.7665   25.3713   -2.3607 C   0  0  0  0  0  0  0  0  0  0  0  0
  -89.3141   25.0675    3.8602 C   0  0  0  0  0  0  0  0  0  0  0  0
  -88.8814   26.1870    3.1488 O   0  0  0  0  0  0  0  0  0  0  0  0
  -85.3574   27.9470    2.2080 C   0  0  0  0  0  0  0  0  0  0  0  0
  -84.3168   27.2768    2.6839 N   0  0  0  0  0  0  0  0  0  0  0  0
  -83.0487   27.6978    2.6267 C   0  0  0  0  0  0  0  0  0  0  0  0
  -82.7621   28.9343    2.0261 C   0  0  0  0  0  0  0  0  0  0  0  0
  -83.8126   29.6412    1.5318 C   0  0  0  0  0  0  0  0  0  0  0  0
  -85.0663   29.1395    1.6316 N   0  0  0  0  0  0  0  0  0  0  0  0
  -83.6837   30.9133    0.8322 C   0  0  0  0  0  0  0  0  0  0  0  0
  -82.4700   31.6090    0.6513 C   0  0  0  0  0  0  0  0  0  0  0  0
  -82.6819   32.7167   -0.0642 N   0  0  0  0  0  0  0  0  0  0  0  0
  -83.9750   32.7928   -0.3697 C   0  0  0  0  0  0  0  0  0  0  0  0
  -84.6614   33.7543   -1.1092 C   0  0  0  0  0  0  0  0  0  0  0  0
  -85.9816   33.5787   -1.2876 N   0  0  0  0  0  0  0  0  0  0  0  0
  -86.6359   32.5221   -0.7811 C   0  0  0  0  0  0  0  0  0  0  0  0
  -85.9695   31.5492   -0.0383 C   0  0  0  0  0  0  0  0  0  0  0  0
  -84.6152   31.6877    0.1730 C   0  0  0  0  0  0  0  0  0  0  0  0
  -81.9676   33.4304   -0.3547 H   0  0  0  0  0  0  0  0  0  0  0  0
 16 17  1  0  0  0
 17  3  1  0  0  0
  3  4  2  0  0  0
  4  5  1  0  0  0
  5  6  2  0  0  0
  6  7  1  0  0  0
  7  8  2  0  0  0
  8  1  1  0  0  0
  1 18  1  0  0  0
 18 19  2  0  0  0
 19 20  1  0  0  0
 20 21  2  0  0  0
 21 22  1  0  0  0
 22 23  2  0  0  0
 22 24  1  0  0  0
 24 25  2  0  0  0
 25 26  1  0  0  0
 26 27  1  0  0  0
 27 28  2  0  0  0
 28 29  1  0  0  0
 29 30  2  0  0  0
 30 31  1  0  0  0
 31 32  2  0  0  0
  5  9  1  0  0  0
  9 10  1  0  0  0
 10 11  1  0  0  0
 11 12  1  0  0  0
 12 13  1  0  0  0
 12 14  1  0  0  0
 14 15  1  0  0  0
  8  3  1  0  0  0
 23 18  1  0  0  0
 32 24  1  0  0  0
 15  9  1  0  0  0
 32 27  1  0  0  0
  1  2  1  0  0  0
 26 33  1  0  0  0
M  END
> <minimizedAffinity>
-9.53875

> <CNNscore>
0.4846648574

> <CNNaffinity>
7.1061935425

> <CNN_VS>
3.4441223145

> <CNNaffinity_variance>
0.1146018505

$$$$
[H]c1nc(N([H])c2c([H])c([H])c(N3C([H])([H])C([H])([H])N(C([H])([H])[H])C([H])([H])C3([H])[H])c([H])c2OC([H])([H])[H])nc(-c2c([H])n([H])c3c([H])nc([H])c([H])c23)c1[H]


 33 37  0  0  0  0  0  0  0  0999 V2000
  -86.6583   28.2385    2.6102 N   0  0  0  0  0  0  0  0  0  0  0  0
  -86.9021   28.4973    3.6428 H   0  0  0  0  0  0  0  0  0  0  0  0
  -88.7513   27.0964    2.4834 C   0  0  0  0  0  0  0  0  0  0  0  0
  -89.6496   26.2272    1.9012 C   0  0  0  0  0  0  0  0  0  0  0  0
  -89.3503   25.5455    0.7438 C   0  0  0  0  0  0  0  0  0  0  0  0
  -88.1126   25.7802    0.2061 C   0  0  0  0  0  0  0  0  0  0  0  0
  -87.1853   26.6675    0.7928 C   0  0  0  0  0  0  0  0  0  0  0  0
  -87.4834   27.3427    1.9406 C   0  0  0  0  0  0  0  0  0  0  0  0
  -90.2594   24.6337    0.1394 N   0  0  0  0  0  0  0  0  0  0  0  0
  -90.3202   23.2152    0.4539 C   0  0  0  0  0  0  0  0  0  0  0  0
  -91.7009   22.9225    0.9708 C   0  0  0  0  0  0  0  0  0  0  0  0
  -92.6998   23.2913   -0.0151 N   0  0  0  0  0  0  0  0  0  0  0  0
  -92.7368   22.3335   -1.0779 C   0  0  0  0  0  0  0  0  0  0  0  0
  -92.6199   24.6503   -0.4379 C   0  0  0  0  0  0  0  0  0  0  0  0
  -91.2175   25.0926   -0.8474 C   0  0  0  0  0  0  0  0  0  0  0  0
  -90.3431   27.6289    4.2578 C   0  0  0  0  0  0  0  0  0  0  0  0
  -89.0930   27.7657    3.6536 O   0  0  0  0  0  0  0  0  0  0  0  0
  -85.4997   28.9099    2.1726 C   0  0  0  0  0  0  0  0  0  0  0  0
  -84.2718   28.5353    2.5051 N   0  0  0  0  0  0  0  0  0  0  0  0
  -83.1534   29.1513    2.1070 C   0  0  0  0  0  0  0  0  0  0  0  0
  -83.2492   30.2792    1.2762 C   0  0  0  0  0  0  0  0  0  0  0  0
  -84.4976   30.6840    0.9225 C   0  0  0  0  0  0  0  0  0  0  0  0
  -85.5774   30.0009    1.3708 N   0  0  0  0  0  0  0  0  0  0  0  0
  -84.7707   31.7998    0.0255 C   0  0  0  0  0  0  0  0  0  0  0  0
  -83.7884   32.6671   -0.4967 C   0  0  0  0  0  0  0  0  0  0  0  0
  -84.3549   33.5565   -1.3163 N   0  0  0  0  0  0  0  0  0  0  0  0
  -85.6644   33.3243   -1.3670 C   0  0  0  0  0  0  0  0  0  0  0  0
  -86.6584   33.9776   -2.0934 C   0  0  0  0  0  0  0  0  0  0  0  0
  -87.9172   33.5222   -1.9773 N   0  0  0  0  0  0  0  0  0  0  0  0
  -88.2286   32.4765   -1.1959 C   0  0  0  0  0  0  0  0  0  0  0  0
  -87.2507   31.8089   -0.4605 C   0  0  0  0  0  0  0  0  0  0  0  0
  -85.9455   32.2415   -0.5459 C   0  0  0  0  0  0  0  0  0  0  0  0
  -83.8744   34.3248   -1.8482 H   0  0  0  0  0  0  0  0  0  0  0  0
 16 17  1  0  0  0
 17  3  1  0  0  0
  3  4  2  0  0  0
  4  5  1  0  0  0
  5  6  2  0  0  0
  6  7  1  0  0  0
  7  8  2  0  0  0
  8  1  1  0  0  0
  1 18  1  0  0  0
 18 19  2  0  0  0
 19 20  1  0  0  0
 20 21  2  0  0  0
 21 22  1  0  0  0
 22 23  2  0  0  0
 22 24  1  0  0  0
 24 25  2  0  0  0
 25 26  1  0  0  0
 26 27  1  0  0  0
 27 28  2  0  0  0
 28 29  1  0  0  0
 29 30  2  0  0  0
 30 31  1  0  0  0
 31 32  2  0  0  0
  5  9  1  0  0  0
  9 10  1  0  0  0
 10 11  1  0  0  0
 11 12  1  0  0  0
 12 13  1  0  0  0
 12 14  1  0  0  0
 14 15  1  0  0  0
  8  3  1  0  0  0
 23 18  1  0  0  0
 32 24  1  0  0  0
 15  9  1  0  0  0
 32 27  1  0  0  0
  1  2  1  0  0  0
 26 33  1  0  0  0
M  END
> <minimizedAffinity>
-9.12534

> <CNNscore>
0.3615427315

> <CNNaffinity>
6.9914169312

> <CNN_VS>
2.5276958942

> <CNNaffinity_variance>
0.0163437352

$$$$
[H]c1nc(N([H])c2c([H])c([H])c(N3C([H])([H])C([H])([H])N(C([H])([H])[H])C([H])([H])C3([H])[H])c([H])c2OC([H])([H])[H])nc(-c2c([H])n([H])c3c([H])nc([H])c([H])c23)c1[H]


 33 37  0  0  0  0  0  0  0  0999 V2000
  -89.1652   31.5604   -0.5993 N   0  0  0  0  0  0  0  0  0  0  0  0
  -89.6194   31.7240    0.3803 H   0  0  0  0  0  0  0  0  0  0  0  0
  -90.3605   29.6544   -1.3990 C   0  0  0  0  0  0  0  0  0  0  0  0
  -91.1292   28.9780   -2.3226 C   0  0  0  0  0  0  0  0  0  0  0  0
  -91.5274   29.5657   -3.5015 C   0  0  0  0  0  0  0  0  0  0  0  0
  -91.1170   30.8569   -3.7030 C   0  0  0  0  0  0  0  0  0  0  0  0
  -90.3306   31.5591   -2.7650 C   0  0  0  0  0  0  0  0  0  0  0  0
  -89.9363   30.9751   -1.5964 C   0  0  0  0  0  0  0  0  0  0  0  0
  -92.3069   28.8767   -4.4715 N   0  0  0  0  0  0  0  0  0  0  0  0
  -92.6680   27.4711   -4.3774 C   0  0  0  0  0  0  0  0  0  0  0  0
  -94.1686   27.3872   -4.3588 C   0  0  0  0  0  0  0  0  0  0  0  0
  -94.7252   28.0000   -5.5508 N   0  0  0  0  0  0  0  0  0  0  0  0
  -94.5462   27.1475   -6.6864 C   0  0  0  0  0  0  0  0  0  0  0  0
  -94.3190   29.3519   -5.7486 C   0  0  0  0  0  0  0  0  0  0  0  0
  -92.8123   29.5707   -5.6399 C   0  0  0  0  0  0  0  0  0  0  0  0
  -89.1727   27.8855   -0.2050 C   0  0  0  0  0  0  0  0  0  0  0  0
  -89.9790   29.0240   -0.2196 O   0  0  0  0  0  0  0  0  0  0  0  0
  -87.8288   32.0054   -0.6261 C   0  0  0  0  0  0  0  0  0  0  0  0
  -87.4476   33.1299   -1.2168 N   0  0  0  0  0  0  0  0  0  0  0  0
  -86.1884   33.5787   -1.2599 C   0  0  0  0  0  0  0  0  0  0  0  0
  -85.1713   32.8305   -0.6457 C   0  0  0  0  0  0  0  0  0  0  0  0
  -85.5367   31.6727   -0.0345 C   0  0  0  0  0  0  0  0  0  0  0  0
  -86.8363   31.2927   -0.0378 N   0  0  0  0  0  0  0  0  0  0  0  0
  -84.6166   30.8083    0.6938 C   0  0  0  0  0  0  0  0  0  0  0  0
  -83.3071   31.1704    1.0729 C   0  0  0  0  0  0  0  0  0  0  0  0
  -82.7404   30.1759    1.7611 N   0  0  0  0  0  0  0  0  0  0  0  0
  -83.6069   29.1706    1.8602 C   0  0  0  0  0  0  0  0  0  0  0  0
  -83.4730   27.9372    2.4953 C   0  0  0  0  0  0  0  0  0  0  0  0
  -84.5239   27.1008    2.4613 N   0  0  0  0  0  0  0  0  0  0  0  0
  -85.6715   27.4214    1.8439 C   0  0  0  0  0  0  0  0  0  0  0  0
  -85.8270   28.6488    1.2021 C   0  0  0  0  0  0  0  0  0  0  0  0
  -84.7755   29.5387    1.2086 C   0  0  0  0  0  0  0  0  0  0  0  0
  -81.7727   30.1586    2.1700 H   0  0  0  0  0  0  0  0  0  0  0  0
 16 17  1  0  0  0
 17  3  1  0  0  0
  3  4  2  0  0  0
  4  5  1  0  0  0
  5  6  2  0  0  0
  6  7  1  0  0  0
  7  8  2  0  0  0
  8  1  1  0  0  0
  1 18  1  0  0  0
 18 19  2  0  0  0
 19 20  1  0  0  0
 20 21  2  0  0  0
 21 22  1  0  0  0
 22 23  2  0  0  0
 22 24  1  0  0  0
 24 25  2  0  0  0
 25 26  1  0  0  0
 26 27  1  0  0  0
 27 28  2  0  0  0
 28 29  1  0  0  0
 29 30  2  0  0  0
 30 31  1  0  0  0
 31 32  2  0  0  0
  5  9  1  0  0  0
  9 10  1  0  0  0
 10 11  1  0  0  0
 11 12  1  0  0  0
 12 13  1  0  0  0
 12 14  1  0  0  0
 14 15  1  0  0  0
  8  3  1  0  0  0
 23 18  1  0  0  0
 32 24  1  0  0  0
 15  9  1  0  0  0
 32 27  1  0  0  0
  1  2  1  0  0  0
 26 33  1  0  0  0
M  END
> <minimizedAffinity>
-8.53090

> <CNNscore>
0.2509719133

> <CNNaffinity>
6.5974645615

> <CNN_VS>
1.6557782888

> <CNNaffinity_variance>
0.0495369323

$$$$
[H]c1nc(N([H])c2c([H])c([H])c(N3C([H])([H])C([H])([H])N(C([H])([H])[H])C([H])([H])C3([H])[H])c([H])c2OC([H])([H])[H])nc(-c2c([H])n([H])c3c([H])nc([H])c([H])c23)c1[H]


 33 37  0  0  0  0  0  0  0  0999 V2000
  -89.3953   31.4257   -0.6283 N   0  0  0  0  0  0  0  0  0  0  0  0
  -89.9580   31.9545    0.1440 H   0  0  0  0  0  0  0  0  0  0  0  0
  -89.8364   29.0796   -0.5832 C   0  0  0  0  0  0  0  0  0  0  0  0
  -90.3741   27.9150   -1.0893 C   0  0  0  0  0  0  0  0  0  0  0  0
  -91.0865   27.8989   -2.2666 C   0  0  0  0  0  0  0  0  0  0  0  0
  -91.2297   29.1030   -2.9038 C   0  0  0  0  0  0  0  0  0  0  0  0
  -90.6842   30.3011   -2.3953 C   0  0  0  0  0  0  0  0  0  0  0  0
  -89.9779   30.3155   -1.2278 C   0  0  0  0  0  0  0  0  0  0  0  0
  -91.6339   26.7040   -2.8101 N   0  0  0  0  0  0  0  0  0  0  0  0
  -91.5679   25.4067   -2.1561 C   0  0  0  0  0  0  0  0  0  0  0  0
  -92.9783   24.9383   -1.9312 C   0  0  0  0  0  0  0  0  0  0  0  0
  -93.6940   24.8621   -3.1913 N   0  0  0  0  0  0  0  0  0  0  0  0
  -93.2777   23.7149   -3.9390 C   0  0  0  0  0  0  0  0  0  0  0  0
  -93.7017   26.0836   -3.9259 C   0  0  0  0  0  0  0  0  0  0  0  0
  -92.3244   26.7222   -4.0849 C   0  0  0  0  0  0  0  0  0  0  0  0
  -89.0151   27.9030    1.3933 C   0  0  0  0  0  0  0  0  0  0  0  0
  -89.1228   29.0525    0.6101 O   0  0  0  0  0  0  0  0  0  0  0  0
  -88.1397   32.0252   -0.8497 C   0  0  0  0  0  0  0  0  0  0  0  0
  -87.9731   33.1146   -1.5874 N   0  0  0  0  0  0  0  0  0  0  0  0
  -86.7959   33.7065   -1.8166 C   0  0  0  0  0  0  0  0  0  0  0  0
  -85.6318   33.1622   -1.2508 C   0  0  0  0  0  0  0  0  0  0  0  0
  -85.7764   32.0442   -0.4914 C   0  0  0  0  0  0  0  0  0  0  0  0
  -87.0073   31.5098   -0.3103 N   0  0  0  0  0  0  0  0  0  0  0  0
  -84.6811   31.3860    0.2096 C   0  0  0  0  0  0  0  0  0  0  0  0
  -83.3778   31.9114    0.3326 C   0  0  0  0  0  0  0  0  0  0  0  0
  -82.6225   31.0894    1.0659 N   0  0  0  0  0  0  0  0  0  0  0  0
  -83.3573   30.0442    1.4381 C   0  0  0  0  0  0  0  0  0  0  0  0
  -83.0105   28.9429    2.2187 C   0  0  0  0  0  0  0  0  0  0  0  0
  -83.9628   28.0272    2.4637 N   0  0  0  0  0  0  0  0  0  0  0  0
  -85.2103   28.1491    1.9841 C   0  0  0  0  0  0  0  0  0  0  0  0
  -85.5786   29.2416    1.2011 C   0  0  0  0  0  0  0  0  0  0  0  0
  -84.6351   30.2056    0.9213 C   0  0  0  0  0  0  0  0  0  0  0  0
  -81.6121   31.2179    1.3241 H   0  0  0  0  0  0  0  0  0  0  0  0
 16 17  1  0  0  0
 17  3  1  0  0  0
  3  4  2  0  0  0
  4  5  1  0  0  0
  5  6  2  0  0  0
  6  7  1  0  0  0
  7  8  2  0  0  0
  8  1  1  0  0  0
  1 18  1  0  0  0
 18 19  2  0  0  0
 19 20  1  0  0  0
 20 21  2  0  0  0
 21 22  1  0  0  0
 22 23  2  0  0  0
 22 24  1  0  0  0
 24 25  2  0  0  0
 25 26  1  0  0  0
 26 27  1  0  0  0
 27 28  2  0  0  0
 28 29  1  0  0  0
 29 30  2  0  0  0
 30 31  1  0  0  0
 31 32  2  0  0  0
  5  9  1  0  0  0
  9 10  1  0  0  0
 10 11  1  0  0  0
 11 12  1  0  0  0
 12 13  1  0  0  0
 12 14  1  0  0  0
 14 15  1  0  0  0
  8  3  1  0  0  0
 23 18  1  0  0  0
 32 24  1  0  0  0
 15  9  1  0  0  0
 32 27  1  0  0  0
  1  2  1  0  0  0
 26 33  1  0  0  0
M  END
> <minimizedAffinity>
-8.09686

> <CNNscore>
0.2350812554

> <CNNaffinity>
6.6566987038

> <CNN_VS>
1.5648651123

> <CNNaffinity_variance>
0.0970380455

$$$$
[H]c1nc(N([H])c2c([H])c([H])c(N3C([H])([H])C([H])([H])N(C([H])([H])[H])C([H])([H])C3([H])[H])c([H])c2OC([H])([H])[H])nc(-c2c([H])n([H])c3c([H])nc([H])c([H])c23)c1[H]


 33 37  0  0  0  0  0  0  0  0999 V2000
  -87.8727   27.3373   -1.1670 N   0  0  0  0  0  0  0  0  0  0  0  0
  -87.3839   26.4587   -1.5934 H   0  0  0  0  0  0  0  0  0  0  0  0
  -90.1329   27.1386   -1.9107 C   0  0  0  0  0  0  0  0  0  0  0  0
  -91.2629   27.5902   -2.5593 C   0  0  0  0  0  0  0  0  0  0  0  0
  -91.2960   28.8143   -3.1873 C   0  0  0  0  0  0  0  0  0  0  0  0
  -90.1452   29.5549   -3.1305 C   0  0  0  0  0  0  0  0  0  0  0  0
  -88.9830   29.1033   -2.4696 C   0  0  0  0  0  0  0  0  0  0  0  0
  -88.9515   27.8892   -1.8474 C   0  0  0  0  0  0  0  0  0  0  0  0
  -92.4481   29.2878   -3.8740 N   0  0  0  0  0  0  0  0  0  0  0  0
  -93.6133   28.4697   -4.1704 C   0  0  0  0  0  0  0  0  0  0  0  0
  -94.7991   29.1077   -3.5025 C   0  0  0  0  0  0  0  0  0  0  0  0
  -94.9730   30.4698   -3.9719 N   0  0  0  0  0  0  0  0  0  0  0  0
  -95.5264   30.4813   -5.2918 C   0  0  0  0  0  0  0  0  0  0  0  0
  -93.8211   31.2916   -3.7998 C   0  0  0  0  0  0  0  0  0  0  0  0
  -92.5282   30.6661   -4.3168 C   0  0  0  0  0  0  0  0  0  0  0  0
  -90.2550   24.7009   -2.0010 C   0  0  0  0  0  0  0  0  0  0  0  0
  -90.1409   25.8950   -1.2885 O   0  0  0  0  0  0  0  0  0  0  0  0
  -87.2621   27.7288    0.0408 C   0  0  0  0  0  0  0  0  0  0  0  0
  -87.5991   27.2295    1.2222 N   0  0  0  0  0  0  0  0  0  0  0  0
  -87.0395   27.5805    2.3851 C   0  0  0  0  0  0  0  0  0  0  0  0
  -86.0184   28.5444    2.3926 C   0  0  0  0  0  0  0  0  0  0  0  0
  -85.6560   29.0724    1.1938 C   0  0  0  0  0  0  0  0  0  0  0  0
  -86.2755   28.6590    0.0629 N   0  0  0  0  0  0  0  0  0  0  0  0
  -84.5808   30.0408    1.0196 C   0  0  0  0  0  0  0  0  0  0  0  0
  -83.2588   29.8613    1.4776 C   0  0  0  0  0  0  0  0  0  0  0  0
  -82.5083   30.9085    1.1255 N   0  0  0  0  0  0  0  0  0  0  0  0
  -83.2636   31.7753    0.4552 C   0  0  0  0  0  0  0  0  0  0  0  0
  -82.9214   32.9978   -0.1201 C   0  0  0  0  0  0  0  0  0  0  0  0
  -83.8855   33.6746   -0.7665 N   0  0  0  0  0  0  0  0  0  0  0  0
  -85.1399   33.2084   -0.8672 C   0  0  0  0  0  0  0  0  0  0  0  0
  -85.5041   31.9889   -0.2991 C   0  0  0  0  0  0  0  0  0  0  0  0
  -84.5497   31.2600    0.3759 C   0  0  0  0  0  0  0  0  0  0  0  0
  -81.4878   31.0543    1.3286 H   0  0  0  0  0  0  0  0  0  0  0  0
 16 17  1  0  0  0
 17  3  1  0  0  0
  3  4  2  0  0  0
  4  5  1  0  0  0
  5  6  2  0  0  0
  6  7  1  0  0  0
  7  8  2  0  0  0
  8  1  1  0  0  0
  1 18  1  0  0  0
 18 19  2  0  0  0
 19 20  1  0  0  0
 20 21  2  0  0  0
 21 22  1  0  0  0
 22 23  2  0  0  0
 22 24  1  0  0  0
 24 25  2  0  0  0
 25 26  1  0  0  0
 26 27  1  0  0  0
 27 28  2  0  0  0
 28 29  1  0  0  0
 29 30  2  0  0  0
 30 31  1  0  0  0
 31 32  2  0  0  0
  5  9  1  0  0  0
  9 10  1  0  0  0
 10 11  1  0  0  0
 11 12  1  0  0  0
 12 13  1  0  0  0
 12 14  1  0  0  0
 14 15  1  0  0  0
  8  3  1  0  0  0
 23 18  1  0  0  0
 32 24  1  0  0  0
 15  9  1  0  0  0
 32 27  1  0  0  0
  1  2  1  0  0  0
 26 33  1  0  0  0
M  END
> <minimizedAffinity>
-7.42943

> <CNNscore>
0.1850068718

> <CNNaffinity>
6.5806455612

> <CNN_VS>
1.2174646854

> <CNNaffinity_variance>
0.0549079850

$$$$
[H]c1nc(N([H])c2c([H])c([H])c(N3C([H])([H])C([H])([H])N(C([H])([H])[H])C([H])([H])C3([H])[H])c([H])c2OC([H])([H])[H])nc(-c2c([H])n([H])c3c([H])nc([H])c([H])c23)c1[H]


 33 37  0  0  0  0  0  0  0  0999 V2000
  -89.4547   29.3071    0.0211 N   0  0  0  0  0  0  0  0  0  0  0  0
  -90.4467   28.9191    0.2616 H   0  0  0  0  0  0  0  0  0  0  0  0
  -89.1876   30.1725   -2.1882 C   0  0  0  0  0  0  0  0  0  0  0  0
  -89.0841   31.1932   -3.1096 C   0  0  0  0  0  0  0  0  0  0  0  0
  -89.1464   32.5157   -2.7343 C   0  0  0  0  0  0  0  0  0  0  0  0
  -89.3166   32.7579   -1.3970 C   0  0  0  0  0  0  0  0  0  0  0  0
  -89.4241   31.7217   -0.4450 C   0  0  0  0  0  0  0  0  0  0  0  0
  -89.3620   30.4107   -0.8186 C   0  0  0  0  0  0  0  0  0  0  0  0
  -89.0255   33.5801   -3.6700 N   0  0  0  0  0  0  0  0  0  0  0  0
  -89.1456   33.4164   -5.1100 C   0  0  0  0  0  0  0  0  0  0  0  0
  -90.2884   34.2764   -5.5720 C   0  0  0  0  0  0  0  0  0  0  0  0
  -90.0568   35.6631   -5.2125 N   0  0  0  0  0  0  0  0  0  0  0  0
  -89.0761   36.2501   -6.0739 C   0  0  0  0  0  0  0  0  0  0  0  0
  -89.8291   35.8687   -3.8205 C   0  0  0  0  0  0  0  0  0  0  0  0
  -88.7821   34.9358   -3.2174 C   0  0  0  0  0  0  0  0  0  0  0  0
  -87.9150   28.2307   -2.9468 C   0  0  0  0  0  0  0  0  0  0  0  0
  -89.1193   28.8488   -2.6091 O   0  0  0  0  0  0  0  0  0  0  0  0
  -88.4431   28.5570    0.6528 C   0  0  0  0  0  0  0  0  0  0  0  0
  -88.6284   27.3271    1.1126 N   0  0  0  0  0  0  0  0  0  0  0  0
  -87.6897   26.5903    1.7167 C   0  0  0  0  0  0  0  0  0  0  0  0
  -86.4041   27.1265    1.8933 C   0  0  0  0  0  0  0  0  0  0  0  0
  -86.1896   28.3868    1.4316 C   0  0  0  0  0  0  0  0  0  0  0  0
  -87.1974   29.0626    0.8308 N   0  0  0  0  0  0  0  0  0  0  0  0
  -84.9025   29.0685    1.4867 C   0  0  0  0  0  0  0  0  0  0  0  0
  -83.7499   28.5547    2.1169 C   0  0  0  0  0  0  0  0  0  0  0  0
  -82.7275   29.3986    1.9551 N   0  0  0  0  0  0  0  0  0  0  0  0
  -83.1409   30.4475    1.2480 C   0  0  0  0  0  0  0  0  0  0  0  0
  -82.4331   31.5692    0.8197 C   0  0  0  0  0  0  0  0  0  0  0  0
  -83.0954   32.4842    0.0919 N   0  0  0  0  0  0  0  0  0  0  0  0
  -84.3922   32.3429   -0.2234 C   0  0  0  0  0  0  0  0  0  0  0  0
  -85.1191   31.2297    0.1948 C   0  0  0  0  0  0  0  0  0  0  0  0
  -84.4830   30.2656    0.9455 C   0  0  0  0  0  0  0  0  0  0  0  0
  -81.7467   29.2830    2.3140 H   0  0  0  0  0  0  0  0  0  0  0  0
 16 17  1  0  0  0
 17  3  1  0  0  0
  3  4  2  0  0  0
  4  5  1  0  0  0
  5  6  2  0  0  0
  6  7  1  0  0  0
  7  8  2  0  0  0
  8  1  1  0  0  0
  1 18  1  0  0  0
 18 19  2  0  0  0
 19 20  1  0  0  0
 20 21  2  0  0  0
 21 22  1  0  0  0
 22 23  2  0  0  0
 22 24  1  0  0  0
 24 25  2  0  0  0
 25 26  1  0  0  0
 26 27  1  0  0  0
 27 28  2  0  0  0
 28 29  1  0  0  0
 29 30  2  0  0  0
 30 31  1  0  0  0
 31 32  2  0  0  0
  5  9  1  0  0  0
  9 10  1  0  0  0
 10 11  1  0  0  0
 11 12  1  0  0  0
 12 13  1  0  0  0
 12 14  1  0  0  0
 14 15  1  0  0  0
  8  3  1  0  0  0
 23 18  1  0  0  0
 32 24  1  0  0  0
 15  9  1  0  0  0
 32 27  1  0  0  0
  1  2  1  0  0  0
 26 33  1  0  0  0
M  END
> <minimizedAffinity>
-8.50276

> <CNNscore>
0.1754587591

> <CNNaffinity>
6.9649152756

> <CNN_VS>
1.2220554352

> <CNNaffinity_variance>
0.1188125461

$$$$
[H]c1nc(N([H])c2c([H])c([H])c(N3C([H])([H])C([H])([H])N(C([H])([H])[H])C([H])([H])C3([H])[H])c([H])c2OC([H])([H])[H])nc(-c2c([H])n([H])c3c([H])nc([H])c([H])c23)c1[H]


 33 37  0  0  0  0  0  0  0  0999 V2000
  -89.3899   31.5801   -0.5723 N   0  0  0  0  0  0  0  0  0  0  0  0
  -90.0376   32.3510   -0.1493 H   0  0  0  0  0  0  0  0  0  0  0  0
  -90.5869   30.3197   -2.2093 C   0  0  0  0  0  0  0  0  0  0  0  0
  -91.1858   29.1741   -2.6893 C   0  0  0  0  0  0  0  0  0  0  0  0
  -91.2049   28.0075   -1.9596 C   0  0  0  0  0  0  0  0  0  0  0  0
  -90.5966   28.0508   -0.7331 C   0  0  0  0  0  0  0  0  0  0  0  0
  -89.9804   29.2171   -0.2316 C   0  0  0  0  0  0  0  0  0  0  0  0
  -89.9622   30.3732   -0.9563 C   0  0  0  0  0  0  0  0  0  0  0  0
  -91.8321   26.8221   -2.4336 N   0  0  0  0  0  0  0  0  0  0  0  0
  -92.5390   25.8784   -1.5824 C   0  0  0  0  0  0  0  0  0  0  0  0
  -93.9596   25.8037   -2.0677 C   0  0  0  0  0  0  0  0  0  0  0  0
  -93.9987   25.3959   -3.4599 N   0  0  0  0  0  0  0  0  0  0  0  0
  -93.7296   23.9955   -3.5827 C   0  0  0  0  0  0  0  0  0  0  0  0
  -93.2346   26.2295   -4.3277 C   0  0  0  0  0  0  0  0  0  0  0  0
  -91.8101   26.4897   -3.8447 C   0  0  0  0  0  0  0  0  0  0  0  0
  -91.3639   31.6105   -4.1316 C   0  0  0  0  0  0  0  0  0  0  0  0
  -90.5897   31.4781   -2.9785 O   0  0  0  0  0  0  0  0  0  0  0  0
  -88.0504   32.0121   -0.6338 C   0  0  0  0  0  0  0  0  0  0  0  0
  -87.6680   33.1096   -1.2725 N   0  0  0  0  0  0  0  0  0  0  0  0
  -86.4059   33.5454   -1.3495 C   0  0  0  0  0  0  0  0  0  0  0  0
  -85.3868   32.8127   -0.7202 C   0  0  0  0  0  0  0  0  0  0  0  0
  -85.7534   31.6825   -0.0600 C   0  0  0  0  0  0  0  0  0  0  0  0
  -87.0560   31.3139   -0.0315 N   0  0  0  0  0  0  0  0  0  0  0  0
  -84.8307   30.8388    0.6890 C   0  0  0  0  0  0  0  0  0  0  0  0
  -83.5566   31.2457    1.1371 C   0  0  0  0  0  0  0  0  0  0  0  0
  -82.9791   30.2582    1.8264 N   0  0  0  0  0  0  0  0  0  0  0  0
  -83.8048   29.2151    1.8609 C   0  0  0  0  0  0  0  0  0  0  0  0
  -83.6466   27.9723    2.4715 C   0  0  0  0  0  0  0  0  0  0  0  0
  -84.6578   27.0935    2.3686 N   0  0  0  0  0  0  0  0  0  0  0  0
  -85.7891   27.3815    1.7066 C   0  0  0  0  0  0  0  0  0  0  0  0
  -85.9683   28.6177    1.0882 C   0  0  0  0  0  0  0  0  0  0  0  0
  -84.9576   29.5506    1.1649 C   0  0  0  0  0  0  0  0  0  0  0  0
  -82.0310   30.2710    2.2792 H   0  0  0  0  0  0  0  0  0  0  0  0
 16 17  1  0  0  0
 17  3  1  0  0  0
  3  4  2  0  0  0
  4  5  1  0  0  0
  5  6  2  0  0  0
  6  7  1  0  0  0
  7  8  2  0  0  0
  8  1  1  0  0  0
  1 18  1  0  0  0
 18 19  2  0  0  0
 19 20  1  0  0  0
 20 21  2  0  0  0
 21 22  1  0  0  0
 22 23  2  0  0  0
 22 24  1  0  0  0
 24 25  2  0  0  0
 25 26  1  0  0  0
 26 27  1  0  0  0
 27 28  2  0  0  0
 28 29  1  0  0  0
 29 30  2  0  0  0
 30 31  1  0  0  0
 31 32  2  0  0  0
  5  9  1  0  0  0
  9 10  1  0  0  0
 10 11  1  0  0  0
 11 12  1  0  0  0
 12 13  1  0  0  0
 12 14  1  0  0  0
 14 15  1  0  0  0
  8  3  1  0  0  0
 23 18  1  0  0  0
 32 24  1  0  0  0
 15  9  1  0  0  0
 32 27  1  0  0  0
  1  2  1  0  0  0
 26 33  1  0  0  0
M  END
> <minimizedAffinity>
-8.34671

> <CNNscore>
0.1698882729

> <CNNaffinity>
6.4796814919

> <CNN_VS>
1.1008218527

> <CNNaffinity_variance>
0.1060228124

$$$$
[H]c1sc(-c2c([H])c([H])c3c(c2[H])C([H])([H])C([H])([H])O3)nc1C(=O)N([H])c1nc2c([H])c([H])c(C([H])([H])N3C([H])([H])C([H])([H])OC([H])([H])C3([H])[H])c([H])c2s1


 34 39  0  0  0  0  0  0  0  0999 V2000
  -91.0710   29.9372   -4.1507 O   0  0  0  0  0  0  0  0  0  0  0  0
  -90.7751   29.7774   -2.9250 C   0  0  0  0  0  0  0  0  0  0  0  0
  -91.3684   28.7142   -2.2331 N   0  0  0  0  0  0  0  0  0  0  0  0
  -91.1599   28.5452   -1.2404 H   0  0  0  0  0  0  0  0  0  0  0  0
  -92.2750   27.8495   -2.9054 C   0  0  0  0  0  0  0  0  0  0  0  0
  -93.4993   28.0833   -3.3425 N   0  0  0  0  0  0  0  0  0  0  0  0
  -94.1801   27.1448   -3.9446 C   0  0  0  0  0  0  0  0  0  0  0  0
  -95.4929   27.2825   -4.4513 C   0  0  0  0  0  0  0  0  0  0  0  0
  -96.0872   26.2276   -5.0559 C   0  0  0  0  0  0  0  0  0  0  0  0
  -95.5092   24.9909   -5.2279 C   0  0  0  0  0  0  0  0  0  0  0  0
  -94.2285   24.8572   -4.7333 C   0  0  0  0  0  0  0  0  0  0  0  0
  -93.5771   25.9269   -4.0996 C   0  0  0  0  0  0  0  0  0  0  0  0
  -92.0590   26.1965   -3.3696 S   0  0  0  0  0  0  0  0  0  0  0  0
  -96.2316   23.9049   -5.9100 C   0  0  0  0  0  0  0  0  0  0  0  0
  -95.3174   23.0377   -6.6184 N   0  0  0  0  0  0  0  0  0  0  0  0
  -95.6068   21.6350   -6.3535 C   0  0  0  0  0  0  0  0  0  0  0  0
  -96.2730   20.9993   -7.5280 C   0  0  0  0  0  0  0  0  0  0  0  0
  -97.2879   21.8823   -7.9552 O   0  0  0  0  0  0  0  0  0  0  0  0
  -96.6974   22.9320   -8.6451 C   0  0  0  0  0  0  0  0  0  0  0  0
  -95.3847   23.3409   -8.0230 C   0  0  0  0  0  0  0  0  0  0  0  0
  -89.8182   30.7028   -2.2440 C   0  0  0  0  0  0  0  0  0  0  0  0
  -90.0254   32.0630   -2.2526 C   0  0  0  0  0  0  0  0  0  0  0  0
  -88.6829   32.6250   -1.3627 S   0  0  0  0  0  0  0  0  0  0  0  0
  -87.9503   31.1185   -1.0382 C   0  0  0  0  0  0  0  0  0  0  0  0
  -88.7666   30.2661   -1.6248 N   0  0  0  0  0  0  0  0  0  0  0  0
  -86.7025   30.8229   -0.2838 C   0  0  0  0  0  0  0  0  0  0  0  0
  -85.7348   31.7980   -0.2091 C   0  0  0  0  0  0  0  0  0  0  0  0
  -84.5571   31.5820    0.4763 C   0  0  0  0  0  0  0  0  0  0  0  0
  -84.3879   30.3452    1.0857 C   0  0  0  0  0  0  0  0  0  0  0  0
  -83.3138   29.8643    1.8311 O   0  0  0  0  0  0  0  0  0  0  0  0
  -83.7435   28.7677    2.5999 C   0  0  0  0  0  0  0  0  0  0  0  0
  -84.8661   28.1985    1.7546 C   0  0  0  0  0  0  0  0  0  0  0  0
  -85.3729   29.3738    1.0009 C   0  0  0  0  0  0  0  0  0  0  0  0
  -86.5472   29.6147    0.3068 C   0  0  0  0  0  0  0  0  0  0  0  0
  1  2  2  0  0  0
  2  3  1  0  0  0
  3  5  1  0  0  0
  5  6  2  0  0  0
  6  7  1  0  0  0
  7  8  2  0  0  0
  8  9  1  0  0  0
  9 10  2  0  0  0
 10 14  1  0  0  0
 14 15  1  0  0  0
 15 16  1  0  0  0
 16 17  1  0  0  0
 17 18  1  0  0  0
 18 19  1  0  0  0
 19 20  1  0  0  0
 10 11  1  0  0  0
 11 12  2  0  0  0
 12 13  1  0  0  0
  2 21  1  0  0  0
 21 22  2  0  0  0
 22 23  1  0  0  0
 23 24  1  0  0  0
 24 25  2  0  0  0
 24 26  1  0  0  0
 26 27  2  0  0  0
 27 28  1  0  0  0
 28 29  2  0  0  0
 29 30  1  0  0  0
 30 31  1  0  0  0
 31 32  1  0  0  0
 32 33  1  0  0  0
 33 34  2  0  0  0
 13  5  1  0  0  0
 25 21  1  0  0  0
 34 26  1  0  0  0
 12  7  1  0  0  0
 33 29  1  0  0  0
 20 15  1  0  0  0
  3  4  1  0  0  0
M  END
> <minimizedAffinity>
-6.98235

> <CNNscore>
0.1554370970

> <CNNaffinity>
5.7713174820

> <CNN_VS>
0.8970768452

> <CNNaffinity_variance>
0.1328032166

$$$$
[H]c1sc(-c2c([H])c([H])c3c(c2[H])C([H])([H])C([H])([H])O3)nc1C(=O)N([H])c1nc2c([H])c([H])c(C([H])([H])N3C([H])([H])C([H])([H])OC([H])([H])C3([H])[H])c([H])c2s1


 34 39  0  0  0  0  0  0  0  0999 V2000
  -89.5713   26.7461   -1.6383 O   0  0  0  0  0  0  0  0  0  0  0  0
  -89.4265   26.3081   -0.4541 C   0  0  0  0  0  0  0  0  0  0  0  0
  -90.2506   25.2580   -0.0304 N   0  0  0  0  0  0  0  0  0  0  0  0
  -90.1704   24.8705    0.9187 H   0  0  0  0  0  0  0  0  0  0  0  0
  -91.2167   24.7126   -0.9197 C   0  0  0  0  0  0  0  0  0  0  0  0
  -92.4886   25.0290   -1.0832 N   0  0  0  0  0  0  0  0  0  0  0  0
  -93.2208   24.4023   -1.9652 C   0  0  0  0  0  0  0  0  0  0  0  0
  -94.5873   24.6567   -2.2242 C   0  0  0  0  0  0  0  0  0  0  0  0
  -95.2320   23.9326   -3.1684 C   0  0  0  0  0  0  0  0  0  0  0  0
  -94.6579   22.9370   -3.9250 C   0  0  0  0  0  0  0  0  0  0  0  0
  -93.3248   22.6893   -3.6717 C   0  0  0  0  0  0  0  0  0  0  0  0
  -92.6201   23.4180   -2.7008 C   0  0  0  0  0  0  0  0  0  0  0  0
  -91.0299   23.4459   -2.0838 S   0  0  0  0  0  0  0  0  0  0  0  0
  -95.4385   22.2100   -4.9391 C   0  0  0  0  0  0  0  0  0  0  0  0
  -96.1704   23.1250   -5.7857 N   0  0  0  0  0  0  0  0  0  0  0  0
  -95.3074   23.7090   -6.8032 C   0  0  0  0  0  0  0  0  0  0  0  0
  -95.5771   23.1027   -8.1400 C   0  0  0  0  0  0  0  0  0  0  0  0
  -95.6386   21.7047   -7.9547 O   0  0  0  0  0  0  0  0  0  0  0  0
  -96.8611   21.3898   -7.3779 C   0  0  0  0  0  0  0  0  0  0  0  0
  -97.2857   22.4273   -6.3676 C   0  0  0  0  0  0  0  0  0  0  0  0
  -88.4020   26.9013    0.4593 C   0  0  0  0  0  0  0  0  0  0  0  0
  -88.2037   26.3923    1.7221 C   0  0  0  0  0  0  0  0  0  0  0  0
  -86.9646   27.4042    2.3143 S   0  0  0  0  0  0  0  0  0  0  0  0
  -86.7764   28.3985    0.9405 C   0  0  0  0  0  0  0  0  0  0  0  0
  -87.6674   27.9078    0.1025 N   0  0  0  0  0  0  0  0  0  0  0  0
  -85.8449   29.5385    0.7255 C   0  0  0  0  0  0  0  0  0  0  0  0
  -84.5270   29.3862    1.0901 C   0  0  0  0  0  0  0  0  0  0  0  0
  -83.6166   30.4080    0.9149 C   0  0  0  0  0  0  0  0  0  0  0  0
  -84.0820   31.5923    0.3577 C   0  0  0  0  0  0  0  0  0  0  0  0
  -83.3921   32.7685    0.0727 O   0  0  0  0  0  0  0  0  0  0  0  0
  -84.1307   33.5189   -0.8596 C   0  0  0  0  0  0  0  0  0  0  0  0
  -85.5562   33.1003   -0.5572 C   0  0  0  0  0  0  0  0  0  0  0  0
  -85.4129   31.7292   -0.0042 C   0  0  0  0  0  0  0  0  0  0  0  0
  -86.3080   30.6885    0.1817 C   0  0  0  0  0  0  0  0  0  0  0  0
  1  2  2  0  0  0
  2  3  1  0  0  0
  3  5  1  0  0  0
  5  6  2  0  0  0
  6  7  1  0  0  0
  7  8  2  0  0  0
  8  9  1  0  0  0
  9 10  2  0  0  0
 10 14  1  0  0  0
 14 15  1  0  0  0
 15 16  1  0  0  0
 16 17  1  0  0  0
 17 18  1  0  0  0
 18 19  1  0  0  0
 19 20  1  0  0  0
 10 11  1  0  0  0
 11 12  2  0  0  0
 12 13  1  0  0  0
  2 21  1  0  0  0
 21 22  2  0  0  0
 22 23  1  0  0  0
 23 24  1  0  0  0
 24 25  2  0  0  0
 24 26  1  0  0  0
 26 27  2  0  0  0
 27 28  1  0  0  0
 28 29  2  0  0  0
 29 30  1  0  0  0
 30 31  1  0  0  0
 31 32  1  0  0  0
 32 33  1  0  0  0
 33 34  2  0  0  0
 13  5  1  0  0  0
 25 21  1  0  0  0
 34 26  1  0  0  0
 12  7  1  0  0  0
 33 29  1  0  0  0
 20 15  1  0  0  0
  3  4  1  0  0  0
M  END
> <minimizedAffinity>
-7.22490

> <CNNscore>
0.1485873610

> <CNNaffinity>
5.8683466911

> <CNN_VS>
0.8719621301

> <CNNaffinity_variance>
0.4696947038

$$$$
[H]c1sc(-c2c([H])c([H])c3c(c2[H])C([H])([H])C([H])([H])O3)nc1C(=O)N([H])c1nc2c([H])c([H])c(C([H])([H])N3C([H])([H])C([H])([H])OC([H])([H])C3([H])[H])c([H])c2s1


 34 39  0  0  0  0  0  0  0  0999 V2000
  -90.8566   28.4505   -0.0662 O   0  0  0  0  0  0  0  0  0  0  0  0
  -90.7501   29.0079   -1.2034 C   0  0  0  0  0  0  0  0  0  0  0  0
  -91.3952   28.4144   -2.2956 N   0  0  0  0  0  0  0  0  0  0  0  0
  -91.3377   28.8288   -3.2350 H   0  0  0  0  0  0  0  0  0  0  0  0
  -92.1438   27.2195   -2.1125 C   0  0  0  0  0  0  0  0  0  0  0  0
  -93.3676   26.9199   -2.5088 N   0  0  0  0  0  0  0  0  0  0  0  0
  -93.8858   25.7514   -2.2385 C   0  0  0  0  0  0  0  0  0  0  0  0
  -95.1810   25.3242   -2.6116 C   0  0  0  0  0  0  0  0  0  0  0  0
  -95.5976   24.0834   -2.2675 C   0  0  0  0  0  0  0  0  0  0  0  0
  -94.8487   23.1689   -1.5631 C   0  0  0  0  0  0  0  0  0  0  0  0
  -93.5853   23.5864   -1.1994 C   0  0  0  0  0  0  0  0  0  0  0  0
  -93.1156   24.8653   -1.5369 C   0  0  0  0  0  0  0  0  0  0  0  0
  -91.6830   25.7615   -1.3024 S   0  0  0  0  0  0  0  0  0  0  0  0
  -95.3843   21.8355   -1.2443 C   0  0  0  0  0  0  0  0  0  0  0  0
  -94.9923   21.4223    0.0844 N   0  0  0  0  0  0  0  0  0  0  0  0
  -96.0692   21.6316    1.0424 C   0  0  0  0  0  0  0  0  0  0  0  0
  -96.7108   20.3356    1.4114 C   0  0  0  0  0  0  0  0  0  0  0  0
  -96.9342   19.6284    0.2104 O   0  0  0  0  0  0  0  0  0  0  0  0
  -95.7254   19.1003   -0.2214 C   0  0  0  0  0  0  0  0  0  0  0  0
  -94.5782   20.0455    0.0387 C   0  0  0  0  0  0  0  0  0  0  0  0
  -89.9560   30.2644   -1.3661 C   0  0  0  0  0  0  0  0  0  0  0  0
  -90.5094   31.3770   -1.9568 C   0  0  0  0  0  0  0  0  0  0  0  0
  -89.2152   32.4864   -1.8898 S   0  0  0  0  0  0  0  0  0  0  0  0
  -88.0658   31.4830   -1.1259 C   0  0  0  0  0  0  0  0  0  0  0  0
  -88.7279   30.3553   -0.9619 N   0  0  0  0  0  0  0  0  0  0  0  0
  -86.6629   31.7884   -0.7356 C   0  0  0  0  0  0  0  0  0  0  0  0
  -86.1550   33.0317   -1.0344 C   0  0  0  0  0  0  0  0  0  0  0  0
  -84.8613   33.3725   -0.6973 C   0  0  0  0  0  0  0  0  0  0  0  0
  -84.0948   32.4140   -0.0468 C   0  0  0  0  0  0  0  0  0  0  0  0
  -82.7781   32.4876    0.4023 O   0  0  0  0  0  0  0  0  0  0  0  0
  -82.5644   31.4827    1.3628 C   0  0  0  0  0  0  0  0  0  0  0  0
  -83.5439   30.4084    0.9324 C   0  0  0  0  0  0  0  0  0  0  0  0
  -84.6219   31.1661    0.2469 C   0  0  0  0  0  0  0  0  0  0  0  0
  -85.9241   30.8476   -0.1018 C   0  0  0  0  0  0  0  0  0  0  0  0
  1  2  2  0  0  0
  2  3  1  0  0  0
  3  5  1  0  0  0
  5  6  2  0  0  0
  6  7  1  0  0  0
  7  8  2  0  0  0
  8  9  1  0  0  0
  9 10  2  0  0  0
 10 14  1  0  0  0
 14 15  1  0  0  0
 15 16  1  0  0  0
 16 17  1  0  0  0
 17 18  1  0  0  0
 18 19  1  0  0  0
 19 20  1  0  0  0
 10 11  1  0  0  0
 11 12  2  0  0  0
 12 13  1  0  0  0
  2 21  1  0  0  0
 21 22  2  0  0  0
 22 23  1  0  0  0
 23 24  1  0  0  0
 24 25  2  0  0  0
 24 26  1  0  0  0
 26 27  2  0  0  0
 27 28  1  0  0  0
 28 29  2  0  0  0
 29 30  1  0  0  0
 30 31  1  0  0  0
 31 32  1  0  0  0
 32 33  1  0  0  0
 33 34  2  0  0  0
 13  5  1  0  0  0
 25 21  1  0  0  0
 34 26  1  0  0  0
 12  7  1  0  0  0
 33 29  1  0  0  0
 20 15  1  0  0  0
  3  4  1  0  0  0
M  END
> <minimizedAffinity>
-6.42543

> <CNNscore>
0.0977831855

> <CNNaffinity>
5.8175806999

> <CNN_VS>
0.5688615441

> <CNNaffinity_variance>
0.2708449960

$$$$
[H]c1sc(-c2c([H])c([H])c3c(c2[H])C([H])([H])C([H])([H])O3)nc1C(=O)N([H])c1nc2c([H])c([H])c(C([H])([H])N3C([H])([H])C([H])([H])OC([H])([H])C3([H])[H])c([H])c2s1


 34 39  0  0  0  0  0  0  0  0999 V2000
  -90.6854   27.2423   -3.1322 O   0  0  0  0  0  0  0  0  0  0  0  0
  -90.0140   26.6084   -2.2589 C   0  0  0  0  0  0  0  0  0  0  0  0
  -88.9304   27.2587   -1.6554 N   0  0  0  0  0  0  0  0  0  0  0  0
  -88.3578   26.7864   -0.9436 H   0  0  0  0  0  0  0  0  0  0  0  0
  -88.6090   28.5931   -2.0264 C   0  0  0  0  0  0  0  0  0  0  0  0
  -88.3825   29.1066   -3.2221 N   0  0  0  0  0  0  0  0  0  0  0  0
  -88.0984   30.3746   -3.3574 C   0  0  0  0  0  0  0  0  0  0  0  0
  -87.8388   31.0290   -4.5835 C   0  0  0  0  0  0  0  0  0  0  0  0
  -87.5559   32.3525   -4.5849 C   0  0  0  0  0  0  0  0  0  0  0  0
  -87.4959   33.1456   -3.4622 C   0  0  0  0  0  0  0  0  0  0  0  0
  -87.7491   32.5064   -2.2663 C   0  0  0  0  0  0  0  0  0  0  0  0
  -88.0465   31.1354   -2.2219 C   0  0  0  0  0  0  0  0  0  0  0  0
  -88.4101   29.9842   -1.0165 S   0  0  0  0  0  0  0  0  0  0  0  0
  -87.1908   34.5819   -3.5642 C   0  0  0  0  0  0  0  0  0  0  0  0
  -88.1025   35.2435   -4.4703 N   0  0  0  0  0  0  0  0  0  0  0  0
  -89.1452   35.9557   -3.7445 C   0  0  0  0  0  0  0  0  0  0  0  0
  -88.9000   37.4276   -3.7710 C   0  0  0  0  0  0  0  0  0  0  0  0
  -87.5366   37.6249   -3.4634 O   0  0  0  0  0  0  0  0  0  0  0  0
  -86.7817   37.3088   -4.5844 C   0  0  0  0  0  0  0  0  0  0  0  0
  -87.3504   36.1231   -5.3247 C   0  0  0  0  0  0  0  0  0  0  0  0
  -90.3753   25.2055   -1.8887 C   0  0  0  0  0  0  0  0  0  0  0  0
  -89.5802   24.4738   -1.0368 C   0  0  0  0  0  0  0  0  0  0  0  0
  -90.4253   22.9941   -0.9573 S   0  0  0  0  0  0  0  0  0  0  0  0
  -91.7194   23.3896   -1.9967 C   0  0  0  0  0  0  0  0  0  0  0  0
  -91.4401   24.6282   -2.3501 N   0  0  0  0  0  0  0  0  0  0  0  0
  -92.8806   22.5569   -2.4113 C   0  0  0  0  0  0  0  0  0  0  0  0
  -93.3625   21.6180   -1.5286 C   0  0  0  0  0  0  0  0  0  0  0  0
  -94.4367   20.8167   -1.8569 C   0  0  0  0  0  0  0  0  0  0  0  0
  -95.0100   20.9951   -3.1096 C   0  0  0  0  0  0  0  0  0  0  0  0
  -96.0882   20.3334   -3.6929 O   0  0  0  0  0  0  0  0  0  0  0  0
  -96.5852   21.1125   -4.7531 C   0  0  0  0  0  0  0  0  0  0  0  0
  -95.3505   21.8643   -5.2102 C   0  0  0  0  0  0  0  0  0  0  0  0
  -94.5121   21.9457   -3.9869 C   0  0  0  0  0  0  0  0  0  0  0  0
  -93.4323   22.7384   -3.6340 C   0  0  0  0  0  0  0  0  0  0  0  0
  1  2  2  0  0  0
  2  3  1  0  0  0
  3  5  1  0  0  0
  5  6  2  0  0  0
  6  7  1  0  0  0
  7  8  2  0  0  0
  8  9  1  0  0  0
  9 10  2  0  0  0
 10 14  1  0  0  0
 14 15  1  0  0  0
 15 16  1  0  0  0
 16 17  1  0  0  0
 17 18  1  0  0  0
 18 19  1  0  0  0
 19 20  1  0  0  0
 10 11  1  0  0  0
 11 12  2  0  0  0
 12 13  1  0  0  0
  2 21  1  0  0  0
 21 22  2  0  0  0
 22 23  1  0  0  0
 23 24  1  0  0  0
 24 25  2  0  0  0
 24 26  1  0  0  0
 26 27  2  0  0  0
 27 28  1  0  0  0
 28 29  2  0  0  0
 29 30  1  0  0  0
 30 31  1  0  0  0
 31 32  1  0  0  0
 32 33  1  0  0  0
 33 34  2  0  0  0
 13  5  1  0  0  0
 25 21  1  0  0  0
 34 26  1  0  0  0
 12  7  1  0  0  0
 33 29  1  0  0  0
 20 15  1  0  0  0
  3  4  1  0  0  0
M  END
> <minimizedAffinity>
-6.96705

> <CNNscore>
0.0899931788

> <CNNaffinity>
5.4754910469

> <CNN_VS>
0.4927568436

> <CNNaffinity_variance>
0.2624086142

$$$$
[H]c1sc(-c2c([H])c([H])c3c(c2[H])C([H])([H])C([H])([H])O3)nc1C(=O)N([H])c1nc2c([H])c([H])c(C([H])([H])N3C([H])([H])C([H])([H])OC([H])([H])C3([H])[H])c([H])c2s1


 34 39  0  0  0  0  0  0  0  0999 V2000
  -90.1413   30.0786   -2.5969 O   0  0  0  0  0  0  0  0  0  0  0  0
  -89.8405   30.1918   -1.3672 C   0  0  0  0  0  0  0  0  0  0  0  0
  -89.1731   31.3509   -0.9521 N   0  0  0  0  0  0  0  0  0  0  0  0
  -88.9092   31.4873    0.0324 H   0  0  0  0  0  0  0  0  0  0  0  0
  -88.8511   32.3608   -1.8997 C   0  0  0  0  0  0  0  0  0  0  0  0
  -89.4879   33.4808   -2.1906 N   0  0  0  0  0  0  0  0  0  0  0  0
  -89.0249   34.2895   -3.1062 C   0  0  0  0  0  0  0  0  0  0  0  0
  -89.6214   35.5102   -3.4979 C   0  0  0  0  0  0  0  0  0  0  0  0
  -89.0371   36.2571   -4.4634 C   0  0  0  0  0  0  0  0  0  0  0  0
  -87.8751   35.9243   -5.1208 C   0  0  0  0  0  0  0  0  0  0  0  0
  -87.2938   34.7333   -4.7383 C   0  0  0  0  0  0  0  0  0  0  0  0
  -87.8680   33.9296   -3.7410 C   0  0  0  0  0  0  0  0  0  0  0  0
  -87.5062   32.4435   -2.9856 S   0  0  0  0  0  0  0  0  0  0  0  0
  -87.3078   36.8082   -6.1519 C   0  0  0  0  0  0  0  0  0  0  0  0
  -86.9517   38.0940   -5.5953 N   0  0  0  0  0  0  0  0  0  0  0  0
  -85.5499   38.1297   -5.2016 C   0  0  0  0  0  0  0  0  0  0  0  0
  -84.7461   38.9294   -6.1720 C   0  0  0  0  0  0  0  0  0  0  0  0
  -85.1268   38.5130   -7.4659 O   0  0  0  0  0  0  0  0  0  0  0  0
  -86.3597   39.0760   -7.7651 C   0  0  0  0  0  0  0  0  0  0  0  0
  -87.2627   39.1178   -6.5568 C   0  0  0  0  0  0  0  0  0  0  0  0
  -90.1919   29.1132   -0.3931 C   0  0  0  0  0  0  0  0  0  0  0  0
  -90.6495   29.4226    0.8671 C   0  0  0  0  0  0  0  0  0  0  0  0
  -90.8906   27.8736    1.5396 S   0  0  0  0  0  0  0  0  0  0  0  0
  -90.4023   26.9400    0.1974 C   0  0  0  0  0  0  0  0  0  0  0  0
  -90.0810   27.8571   -0.6929 N   0  0  0  0  0  0  0  0  0  0  0  0
  -90.3468   25.4604    0.0515 C   0  0  0  0  0  0  0  0  0  0  0  0
  -90.0477   24.9341   -1.1841 C   0  0  0  0  0  0  0  0  0  0  0  0
  -89.9819   23.5701   -1.3805 C   0  0  0  0  0  0  0  0  0  0  0  0
  -90.2287   22.7523   -0.2851 C   0  0  0  0  0  0  0  0  0  0  0  0
  -90.2291   21.3618   -0.1997 O   0  0  0  0  0  0  0  0  0  0  0  0
  -90.0952   20.9852    1.1487 C   0  0  0  0  0  0  0  0  0  0  0  0
  -90.7303   22.1535    1.8769 C   0  0  0  0  0  0  0  0  0  0  0  0
  -90.5286   23.2988    0.9529 C   0  0  0  0  0  0  0  0  0  0  0  0
  -90.5888   24.6719    1.1250 C   0  0  0  0  0  0  0  0  0  0  0  0
  1  2  2  0  0  0
  2  3  1  0  0  0
  3  5  1  0  0  0
  5  6  2  0  0  0
  6  7  1  0  0  0
  7  8  2  0  0  0
  8  9  1  0  0  0
  9 10  2  0  0  0
 10 14  1  0  0  0
 14 15  1  0  0  0
 15 16  1  0  0  0
 16 17  1  0  0  0
 17 18  1  0  0  0
 18 19  1  0  0  0
 19 20  1  0  0  0
 10 11  1  0  0  0
 11 12  2  0  0  0
 12 13  1  0  0  0
  2 21  1  0  0  0
 21 22  2  0  0  0
 22 23  1  0  0  0
 23 24  1  0  0  0
 24 25  2  0  0  0
 24 26  1  0  0  0
 26 27  2  0  0  0
 27 28  1  0  0  0
 28 29  2  0  0  0
 29 30  1  0  0  0
 30 31  1  0  0  0
 31 32  1  0  0  0
 32 33  1  0  0  0
 33 34  2  0  0  0
 13  5  1  0  0  0
 25 21  1  0  0  0
 34 26  1  0  0  0
 12  7  1  0  0  0
 33 29  1  0  0  0
 20 15  1  0  0  0
  3  4  1  0  0  0
M  END
> <minimizedAffinity>
-7.33803

> <CNNscore>
0.0733550116

> <CNNaffinity>
5.2503743172

> <CNN_VS>
0.3851412833

> <CNNaffinity_variance>
0.2839611173

$$$$
[H]c1sc(-c2c([H])c([H])c3c(c2[H])C([H])([H])C([H])([H])O3)nc1C(=O)N([H])c1nc2c([H])c([H])c(C([H])([H])N3C([H])([H])C([H])([H])OC([H])([H])C3([H])[H])c([H])c2s1


 34 39  0  0  0  0  0  0  0  0999 V2000
  -90.8049   26.9158   -3.7384 O   0  0  0  0  0  0  0  0  0  0  0  0
  -90.3189   26.6165   -2.6028 C   0  0  0  0  0  0  0  0  0  0  0  0
  -89.6413   27.6125   -1.8885 N   0  0  0  0  0  0  0  0  0  0  0  0
  -89.2312   27.4177   -0.9658 H   0  0  0  0  0  0  0  0  0  0  0  0
  -89.5131   28.9168   -2.4398 C   0  0  0  0  0  0  0  0  0  0  0  0
  -88.5880   29.4066   -3.2453 N   0  0  0  0  0  0  0  0  0  0  0  0
  -88.6470   30.6485   -3.6468 C   0  0  0  0  0  0  0  0  0  0  0  0
  -87.7156   31.2763   -4.5057 C   0  0  0  0  0  0  0  0  0  0  0  0
  -87.8934   32.5740   -4.8459 C   0  0  0  0  0  0  0  0  0  0  0  0
  -88.9345   33.3647   -4.4166 C   0  0  0  0  0  0  0  0  0  0  0  0
  -89.8426   32.7516   -3.5786 C   0  0  0  0  0  0  0  0  0  0  0  0
  -89.6942   31.4076   -3.2020 C   0  0  0  0  0  0  0  0  0  0  0  0
  -90.5411   30.2925   -2.2275 S   0  0  0  0  0  0  0  0  0  0  0  0
  -89.0506   34.7664   -4.8504 C   0  0  0  0  0  0  0  0  0  0  0  0
  -89.4065   35.6250   -3.7432 N   0  0  0  0  0  0  0  0  0  0  0  0
  -88.2401   36.3217   -3.2184 C   0  0  0  0  0  0  0  0  0  0  0  0
  -88.2469   37.7554   -3.6331 C   0  0  0  0  0  0  0  0  0  0  0  0
  -88.5519   37.7855   -5.0109 O   0  0  0  0  0  0  0  0  0  0  0  0
  -89.9126   37.5594   -5.1662 C   0  0  0  0  0  0  0  0  0  0  0  0
  -90.4263   36.5423   -4.1769 C   0  0  0  0  0  0  0  0  0  0  0  0
  -90.4691   25.2361   -2.0480 C   0  0  0  0  0  0  0  0  0  0  0  0
  -89.4148   24.6070   -1.4271 C   0  0  0  0  0  0  0  0  0  0  0  0
  -90.1077   23.1082   -0.9985 S   0  0  0  0  0  0  0  0  0  0  0  0
  -91.6731   23.3685   -1.6256 C   0  0  0  0  0  0  0  0  0  0  0  0
  -91.5861   24.5836   -2.1287 N   0  0  0  0  0  0  0  0  0  0  0  0
  -92.8527   22.4619   -1.6157 C   0  0  0  0  0  0  0  0  0  0  0  0
  -93.3505   22.0204   -2.8200 C   0  0  0  0  0  0  0  0  0  0  0  0
  -94.4420   21.1783   -2.8740 C   0  0  0  0  0  0  0  0  0  0  0  0
  -95.0163   20.7955   -1.6685 C   0  0  0  0  0  0  0  0  0  0  0  0
  -96.1102   19.9659   -1.4321 O   0  0  0  0  0  0  0  0  0  0  0  0
  -96.0654   19.5163   -0.1002 C   0  0  0  0  0  0  0  0  0  0  0  0
  -95.3468   20.6519    0.6019 C   0  0  0  0  0  0  0  0  0  0  0  0
  -94.5023   21.2494   -0.4639 C   0  0  0  0  0  0  0  0  0  0  0  0
  -93.4051   22.0945   -0.4357 C   0  0  0  0  0  0  0  0  0  0  0  0
  1  2  2  0  0  0
  2  3  1  0  0  0
  3  5  1  0  0  0
  5  6  2  0  0  0
  6  7  1  0  0  0
  7  8  2  0  0  0
  8  9  1  0  0  0
  9 10  2  0  0  0
 10 14  1  0  0  0
 14 15  1  0  0  0
 15 16  1  0  0  0
 16 17  1  0  0  0
 17 18  1  0  0  0
 18 19  1  0  0  0
 19 20  1  0  0  0
 10 11  1  0  0  0
 11 12  2  0  0  0
 12 13  1  0  0  0
  2 21  1  0  0  0
 21 22  2  0  0  0
 22 23  1  0  0  0
 23 24  1  0  0  0
 24 25  2  0  0  0
 24 26  1  0  0  0
 26 27  2  0  0  0
 27 28  1  0  0  0
 28 29  2  0  0  0
 29 30  1  0  0  0
 30 31  1  0  0  0
 31 32  1  0  0  0
 32 33  1  0  0  0
 33 34  2  0  0  0
 13  5  1  0  0  0
 25 21  1  0  0  0
 34 26  1  0  0  0
 12  7  1  0  0  0
 33 29  1  0  0  0
 20 15  1  0  0  0
  3  4  1  0  0  0
M  END
> <minimizedAffinity>
-6.28183

> <CNNscore>
0.0665486231

> <CNNaffinity>
5.3974781036

> <CNN_VS>
0.3591947258

> <CNNaffinity_variance>
0.2173425853

$$$$
[H]c1sc(-c2c([H])c([H])c3c(c2[H])C([H])([H])C([H])([H])O3)nc1C(=O)N([H])c1nc2c([H])c([H])c(C([H])([H])N3C([H])([H])C([H])([H])OC([H])([H])C3([H])[H])c([H])c2s1


 34 39  0  0  0  0  0  0  0  0999 V2000
  -90.1775   28.5818   -0.4265 O   0  0  0  0  0  0  0  0  0  0  0  0
  -89.3436   28.8681   -1.3419 C   0  0  0  0  0  0  0  0  0  0  0  0
  -89.2214   27.9896   -2.4257 N   0  0  0  0  0  0  0  0  0  0  0  0
  -88.5602   28.1790   -3.1901 H   0  0  0  0  0  0  0  0  0  0  0  0
  -90.0200   26.8144   -2.4785 C   0  0  0  0  0  0  0  0  0  0  0  0
  -91.1690   26.6005   -3.0938 N   0  0  0  0  0  0  0  0  0  0  0  0
  -91.7542   25.4346   -3.0213 C   0  0  0  0  0  0  0  0  0  0  0  0
  -92.9806   25.0945   -3.6372 C   0  0  0  0  0  0  0  0  0  0  0  0
  -93.4796   23.8460   -3.4825 C   0  0  0  0  0  0  0  0  0  0  0  0
  -92.8804   22.8436   -2.7550 C   0  0  0  0  0  0  0  0  0  0  0  0
  -91.6840   23.1761   -2.1544 C   0  0  0  0  0  0  0  0  0  0  0  0
  -91.1328   24.4598   -2.2904 C   0  0  0  0  0  0  0  0  0  0  0  0
  -89.7361   25.2732   -1.7445 S   0  0  0  0  0  0  0  0  0  0  0  0
  -93.4949   21.5100   -2.6531 C   0  0  0  0  0  0  0  0  0  0  0  0
  -93.4478   21.0188   -1.2943 N   0  0  0  0  0  0  0  0  0  0  0  0
  -94.3495   21.7678   -0.4299 C   0  0  0  0  0  0  0  0  0  0  0  0
  -95.5657   20.9649   -0.1081 C   0  0  0  0  0  0  0  0  0  0  0  0
  -96.0214   20.4019   -1.3196 O   0  0  0  0  0  0  0  0  0  0  0  0
  -95.1973   19.3342   -1.6471 C   0  0  0  0  0  0  0  0  0  0  0  0
  -93.7560   19.6137   -1.2981 C   0  0  0  0  0  0  0  0  0  0  0  0
  -88.5168   30.1113   -1.2595 C   0  0  0  0  0  0  0  0  0  0  0  0
  -87.4267   30.1792   -0.4227 C   0  0  0  0  0  0  0  0  0  0  0  0
  -86.8657   31.7643   -0.7104 S   0  0  0  0  0  0  0  0  0  0  0  0
  -88.0339   32.2377   -1.8603 C   0  0  0  0  0  0  0  0  0  0  0  0
  -88.7904   31.1635   -1.9651 N   0  0  0  0  0  0  0  0  0  0  0  0
  -88.1776   33.5343   -2.5757 C   0  0  0  0  0  0  0  0  0  0  0  0
  -87.0381   34.2324   -2.9029 C   0  0  0  0  0  0  0  0  0  0  0  0
  -87.1083   35.4401   -3.5662 C   0  0  0  0  0  0  0  0  0  0  0  0
  -88.3707   35.9214   -3.8892 C   0  0  0  0  0  0  0  0  0  0  0  0
  -88.7296   37.0954   -4.5477 O   0  0  0  0  0  0  0  0  0  0  0  0
  -90.0425   36.9650   -5.0347 C   0  0  0  0  0  0  0  0  0  0  0  0
  -90.6630   36.0015   -4.0420 C   0  0  0  0  0  0  0  0  0  0  0  0
  -89.5087   35.2055   -3.5522 C   0  0  0  0  0  0  0  0  0  0  0  0
  -89.4122   33.9948   -2.8861 C   0  0  0  0  0  0  0  0  0  0  0  0
  1  2  2  0  0  0
  2  3  1  0  0  0
  3  5  1  0  0  0
  5  6  2  0  0  0
  6  7  1  0  0  0
  7  8  2  0  0  0
  8  9  1  0  0  0
  9 10  2  0  0  0
 10 14  1  0  0  0
 14 15  1  0  0  0
 15 16  1  0  0  0
 16 17  1  0  0  0
 17 18  1  0  0  0
 18 19  1  0  0  0
 19 20  1  0  0  0
 10 11  1  0  0  0
 11 12  2  0  0  0
 12 13  1  0  0  0
  2 21  1  0  0  0
 21 22  2  0  0  0
 22 23  1  0  0  0
 23 24  1  0  0  0
 24 25  2  0  0  0
 24 26  1  0  0  0
 26 27  2  0  0  0
 27 28  1  0  0  0
 28 29  2  0  0  0
 29 30  1  0  0  0
 30 31  1  0  0  0
 31 32  1  0  0  0
 32 33  1  0  0  0
 33 34  2  0  0  0
 13  5  1  0  0  0
 25 21  1  0  0  0
 34 26  1  0  0  0
 12  7  1  0  0  0
 33 29  1  0  0  0
 20 15  1  0  0  0
  3  4  1  0  0  0
M  END
> <minimizedAffinity>
-6.55010

> <CNNscore>
0.0631212220

> <CNNaffinity>
5.3348093033

> <CNN_VS>
0.3367396891

> <CNNaffinity_variance>
0.1592272371

$$$$
[H]c1sc(-c2c([H])c([H])c3c(c2[H])C([H])([H])C([H])([H])O3)nc1C(=O)N([H])c1nc2c([H])c([H])c(C([H])([H])N3C([H])([H])C([H])([H])OC([H])([H])C3([H])[H])c([H])c2s1


 34 39  0  0  0  0  0  0  0  0999 V2000
  -91.0469   31.2130   -3.3540 O   0  0  0  0  0  0  0  0  0  0  0  0
  -89.7991   31.0999   -3.1405 C   0  0  0  0  0  0  0  0  0  0  0  0
  -89.3132   29.8670   -2.6876 N   0  0  0  0  0  0  0  0  0  0  0  0
  -88.3116   29.7276   -2.5011 H   0  0  0  0  0  0  0  0  0  0  0  0
  -90.2116   28.7848   -2.4795 C   0  0  0  0  0  0  0  0  0  0  0  0
  -90.6750   27.8940   -3.3377 N   0  0  0  0  0  0  0  0  0  0  0  0
  -91.5043   26.9635   -2.9463 C   0  0  0  0  0  0  0  0  0  0  0  0
  -92.0616   25.9623   -3.7747 C   0  0  0  0  0  0  0  0  0  0  0  0
  -92.9116   25.0541   -3.2415 C   0  0  0  0  0  0  0  0  0  0  0  0
  -93.2955   25.0160   -1.9208 C   0  0  0  0  0  0  0  0  0  0  0  0
  -92.7515   25.9930   -1.1132 C   0  0  0  0  0  0  0  0  0  0  0  0
  -91.8661   26.9532   -1.6273 C   0  0  0  0  0  0  0  0  0  0  0  0
  -90.9922   28.2856   -1.0179 S   0  0  0  0  0  0  0  0  0  0  0  0
  -94.2187   23.9802   -1.4294 C   0  0  0  0  0  0  0  0  0  0  0  0
  -93.6571   23.2786   -0.2972 N   0  0  0  0  0  0  0  0  0  0  0  0
  -94.7016   22.7812    0.5876 C   0  0  0  0  0  0  0  0  0  0  0  0
  -94.8658   21.3054    0.4383 C   0  0  0  0  0  0  0  0  0  0  0  0
  -94.8948   21.0309   -0.9460 O   0  0  0  0  0  0  0  0  0  0  0  0
  -93.5990   21.1062   -1.4376 C   0  0  0  0  0  0  0  0  0  0  0  0
  -92.8160   22.2163   -0.7805 C   0  0  0  0  0  0  0  0  0  0  0  0
  -88.8779   32.2555   -3.3681 C   0  0  0  0  0  0  0  0  0  0  0  0
  -87.7713   32.4427   -2.5723 C   0  0  0  0  0  0  0  0  0  0  0  0
  -87.0952   33.8576   -3.2439 S   0  0  0  0  0  0  0  0  0  0  0  0
  -88.2438   34.1216   -4.4778 C   0  0  0  0  0  0  0  0  0  0  0  0
  -89.0824   33.1181   -4.3137 N   0  0  0  0  0  0  0  0  0  0  0  0
  -88.3001   35.2075   -5.4932 C   0  0  0  0  0  0  0  0  0  0  0  0
  -87.1969   36.0142   -5.6524 C   0  0  0  0  0  0  0  0  0  0  0  0
  -87.1901   37.0373   -6.5780 C   0  0  0  0  0  0  0  0  0  0  0  0
  -88.3371   37.2198   -7.3400 C   0  0  0  0  0  0  0  0  0  0  0  0
  -88.6012   38.1613   -8.3323 O   0  0  0  0  0  0  0  0  0  0  0  0
  -89.6801   37.7124   -9.1148 C   0  0  0  0  0  0  0  0  0  0  0  0
  -90.4674   36.8703   -8.1300 C   0  0  0  0  0  0  0  0  0  0  0  0
  -89.4399   36.3981   -7.1671 C   0  0  0  0  0  0  0  0  0  0  0  0
  -89.4224   35.3773   -6.2309 C   0  0  0  0  0  0  0  0  0  0  0  0
  1  2  2  0  0  0
  2  3  1  0  0  0
  3  5  1  0  0  0
  5  6  2  0  0  0
  6  7  1  0  0  0
  7  8  2  0  0  0
  8  9  1  0  0  0
  9 10  2  0  0  0
 10 14  1  0  0  0
 14 15  1  0  0  0
 15 16  1  0  0  0
 16 17  1  0  0  0
 17 18  1  0  0  0
 18 19  1  0  0  0
 19 20  1  0  0  0
 10 11  1  0  0  0
 11 12  2  0  0  0
 12 13  1  0  0  0
  2 21  1  0  0  0
 21 22  2  0  0  0
 22 23  1  0  0  0
 23 24  1  0  0  0
 24 25  2  0  0  0
 24 26  1  0  0  0
 26 27  2  0  0  0
 27 28  1  0  0  0
 28 29  2  0  0  0
 29 30  1  0  0  0
 30 31  1  0  0  0
 31 32  1  0  0  0
 32 33  1  0  0  0
 33 34  2  0  0  0
 13  5  1  0  0  0
 25 21  1  0  0  0
 34 26  1  0  0  0
 12  7  1  0  0  0
 33 29  1  0  0  0
 20 15  1  0  0  0
  3  4  1  0  0  0
M  END
> <minimizedAffinity>
-6.15167

> <CNNscore>
0.0568858646

> <CNNaffinity>
5.2382965088

> <CNN_VS>
0.2979850173

> <CNNaffinity_variance>
0.2092673779

$$$$
[H]c1sc(-c2c([H])c([H])c3c(c2[H])C([H])([H])C([H])([H])O3)nc1C(=O)N([H])c1nc2c([H])c([H])c(C([H])([H])N3C([H])([H])C([H])([H])OC([H])([H])C3([H])[H])c([H])c2s1


 34 39  0  0  0  0  0  0  0  0999 V2000
  -92.4676   24.7701   -2.4125 O   0  0  0  0  0  0  0  0  0  0  0  0
  -93.1092   25.5412   -3.1929 C   0  0  0  0  0  0  0  0  0  0  0  0
  -92.6662   26.8626   -3.3310 N   0  0  0  0  0  0  0  0  0  0  0  0
  -93.1530   27.5233   -3.9507 H   0  0  0  0  0  0  0  0  0  0  0  0
  -91.5262   27.3069   -2.6067 C   0  0  0  0  0  0  0  0  0  0  0  0
  -90.2912   27.5211   -3.0231 N   0  0  0  0  0  0  0  0  0  0  0  0
  -89.3722   27.9344   -2.1915 C   0  0  0  0  0  0  0  0  0  0  0  0
  -88.0233   28.1953   -2.5256 C   0  0  0  0  0  0  0  0  0  0  0  0
  -87.1700   28.6209   -1.5652 C   0  0  0  0  0  0  0  0  0  0  0  0
  -87.5083   28.8297   -0.2480 C   0  0  0  0  0  0  0  0  0  0  0  0
  -88.8244   28.5750    0.0772 C   0  0  0  0  0  0  0  0  0  0  0  0
  -89.7409   28.1323   -0.8893 C   0  0  0  0  0  0  0  0  0  0  0  0
  -91.3940   27.7126   -0.9297 S   0  0  0  0  0  0  0  0  0  0  0  0
  -86.5111   29.3059    0.7243 C   0  0  0  0  0  0  0  0  0  0  0  0
  -85.4357   30.0100    0.0630 N   0  0  0  0  0  0  0  0  0  0  0  0
  -85.6790   31.4459    0.0407 C   0  0  0  0  0  0  0  0  0  0  0  0
  -84.8096   32.1472    1.0304 C   0  0  0  0  0  0  0  0  0  0  0  0
  -84.8835   31.4166    2.2359 O   0  0  0  0  0  0  0  0  0  0  0  0
  -84.1047   30.2748    2.1078 C   0  0  0  0  0  0  0  0  0  0  0  0
  -84.1973   29.6883    0.7205 C   0  0  0  0  0  0  0  0  0  0  0  0
  -94.3049   25.0462   -3.9419 C   0  0  0  0  0  0  0  0  0  0  0  0
  -95.5197   25.6828   -3.8312 C   0  0  0  0  0  0  0  0  0  0  0  0
  -96.5020   24.7385   -4.8577 S   0  0  0  0  0  0  0  0  0  0  0  0
  -95.3258   23.6082   -5.3581 C   0  0  0  0  0  0  0  0  0  0  0  0
  -94.2463   24.0091   -4.7171 N   0  0  0  0  0  0  0  0  0  0  0  0
  -95.4664   22.4531   -6.2852 C   0  0  0  0  0  0  0  0  0  0  0  0
  -95.5671   21.1901   -5.7487 C   0  0  0  0  0  0  0  0  0  0  0  0
  -95.6993   20.0807   -6.5580 C   0  0  0  0  0  0  0  0  0  0  0  0
  -95.7267   20.2888   -7.9312 C   0  0  0  0  0  0  0  0  0  0  0  0
  -95.8492   19.3635   -8.9653 O   0  0  0  0  0  0  0  0  0  0  0  0
  -96.2631   20.0315  -10.1317 C   0  0  0  0  0  0  0  0  0  0  0  0
  -95.6885   21.4202   -9.9319 C   0  0  0  0  0  0  0  0  0  0  0  0
  -95.6241   21.5678   -8.4554 C   0  0  0  0  0  0  0  0  0  0  0  0
  -95.4921   22.6662   -7.6218 C   0  0  0  0  0  0  0  0  0  0  0  0
  1  2  2  0  0  0
  2  3  1  0  0  0
  3  5  1  0  0  0
  5  6  2  0  0  0
  6  7  1  0  0  0
  7  8  2  0  0  0
  8  9  1  0  0  0
  9 10  2  0  0  0
 10 14  1  0  0  0
 14 15  1  0  0  0
 15 16  1  0  0  0
 16 17  1  0  0  0
 17 18  1  0  0  0
 18 19  1  0  0  0
 19 20  1  0  0  0
 10 11  1  0  0  0
 11 12  2  0  0  0
 12 13  1  0  0  0
  2 21  1  0  0  0
 21 22  2  0  0  0
 22 23  1  0  0  0
 23 24  1  0  0  0
 24 25  2  0  0  0
 24 26  1  0  0  0
 26 27  2  0  0  0
 27 28  1  0  0  0
 28 29  2  0  0  0
 29 30  1  0  0  0
 30 31  1  0  0  0
 31 32  1  0  0  0
 32 33  1  0  0  0
 33 34  2  0  0  0
 13  5  1  0  0  0
 25 21  1  0  0  0
 34 26  1  0  0  0
 12  7  1  0  0  0
 33 29  1  0  0  0
 20 15  1  0  0  0
  3  4  1  0  0  0
M  END
> <minimizedAffinity>
-6.54963

> <CNNscore>
0.0557810627

> <CNNaffinity>
5.6306877136

> <CNN_VS>
0.3140857518

> <CNNaffinity_variance>
0.7563384771

$$$$
[H]c1nc([H])c2c([H])c(C#N)c3c4c([H])c([H])c(OC([H])([H])[H])nc4n([H])c3c2c1[H]


 22 25  0  0  0  0  0  0  0  0999 V2000
  -88.9092   27.0078    1.1420 C   0  0  0  0  0  0  0  0  0  0  0  0
  -87.8536   26.4513    1.8243 C   0  0  0  0  0  0  0  0  0  0  0  0
  -86.6137   27.0487    1.9319 C   0  0  0  0  0  0  0  0  0  0  0  0
  -86.4467   28.2665    1.3158 C   0  0  0  0  0  0  0  0  0  0  0  0
  -87.5032   28.8360    0.6259 C   0  0  0  0  0  0  0  0  0  0  0  0
  -88.6912   28.1946    0.5610 N   0  0  0  0  0  0  0  0  0  0  0  0
  -87.1329   30.0145    0.1034 N   0  0  0  0  0  0  0  0  0  0  0  0
  -85.8521   30.2436    0.4297 C   0  0  0  0  0  0  0  0  0  0  0  0
  -85.3946   29.1658    1.1894 C   0  0  0  0  0  0  0  0  0  0  0  0
  -84.1141   29.1761    1.6369 C   0  0  0  0  0  0  0  0  0  0  0  0
  -83.2510   30.2419    1.3514 C   0  0  0  0  0  0  0  0  0  0  0  0
  -83.6784   31.3101    0.6076 C   0  0  0  0  0  0  0  0  0  0  0  0
  -82.8583   32.3773    0.3061 C   0  0  0  0  0  0  0  0  0  0  0  0
  -83.2982   33.4045   -0.4192 N   0  0  0  0  0  0  0  0  0  0  0  0
  -84.5581   33.4325   -0.8807 C   0  0  0  0  0  0  0  0  0  0  0  0
  -85.3952   32.3807   -0.5938 C   0  0  0  0  0  0  0  0  0  0  0  0
  -84.9932   31.2730    0.1628 C   0  0  0  0  0  0  0  0  0  0  0  0
  -87.7687   30.6193   -0.4571 H   0  0  0  0  0  0  0  0  0  0  0  0
  -91.2179   27.0660    0.4353 C   0  0  0  0  0  0  0  0  0  0  0  0
  -90.1476   26.3792    1.0522 O   0  0  0  0  0  0  0  0  0  0  0  0
  -83.5881   28.0958    2.4223 C   0  0  0  0  0  0  0  0  0  0  0  0
  -83.1981   27.1921    3.0518 N   0  0  0  0  0  0  0  0  0  0  0  0
 19 20  1  0  0  0
 20  1  1  0  0  0
  1  2  2  0  0  0
  2  3  1  0  0  0
  3  4  2  0  0  0
  4  5  1  0  0  0
  5  6  2  0  0  0
  5  7  1  0  0  0
  7  8  1  0  0  0
  8  9  2  0  0  0
  9 10  1  0  0  0
 10 11  2  0  0  0
 11 12  1  0  0  0
 12 13  2  0  0  0
 13 14  1  0  0  0
 14 15  2  0  0  0
 15 16  1  0  0  0
 16 17  2  0  0  0
 10 21  1  0  0  0
 21 22  3  0  0  0
  6  1  1  0  0  0
 17  8  1  0  0  0
  9  4  1  0  0  0
 17 12  1  0  0  0
  7 18  1  0  0  0
M  END
> <minimizedAffinity>
-9.27403

> <CNNscore>
0.9488999844

> <CNNaffinity>
7.0251770020

> <CNN_VS>
6.6661901474

> <CNNaffinity_variance>
0.1935786456

$$$$
[H]c1nc([H])c2c([H])c(C#N)c3c4c([H])c([H])c(OC([H])([H])[H])nc4n([H])c3c2c1[H]


 22 25  0  0  0  0  0  0  0  0999 V2000
  -88.5467   32.7739   -1.8680 C   0  0  0  0  0  0  0  0  0  0  0  0
  -87.4118   33.5487   -1.8381 C   0  0  0  0  0  0  0  0  0  0  0  0
  -86.2431   33.1678   -1.2097 C   0  0  0  0  0  0  0  0  0  0  0  0
  -86.2352   31.9426   -0.5857 C   0  0  0  0  0  0  0  0  0  0  0  0
  -87.3728   31.1540   -0.6096 C   0  0  0  0  0  0  0  0  0  0  0  0
  -88.4835   31.5903   -1.2444 N   0  0  0  0  0  0  0  0  0  0  0  0
  -87.1552   30.0080    0.0524 N   0  0  0  0  0  0  0  0  0  0  0  0
  -85.8970   30.0148    0.5176 C   0  0  0  0  0  0  0  0  0  0  0  0
  -85.2952   31.2142    0.1337 C   0  0  0  0  0  0  0  0  0  0  0  0
  -84.0086   31.4468    0.4950 C   0  0  0  0  0  0  0  0  0  0  0  0
  -83.2805   30.5107    1.2407 C   0  0  0  0  0  0  0  0  0  0  0  0
  -83.8508   29.3270    1.6284 C   0  0  0  0  0  0  0  0  0  0  0  0
  -83.1663   28.3814    2.3628 C   0  0  0  0  0  0  0  0  0  0  0  0
  -83.7437   27.2376    2.7275 N   0  0  0  0  0  0  0  0  0  0  0  0
  -85.0146   26.9693    2.3902 C   0  0  0  0  0  0  0  0  0  0  0  0
  -85.7185   27.8959    1.6583 C   0  0  0  0  0  0  0  0  0  0  0  0
  -85.1685   29.1155    1.2449 C   0  0  0  0  0  0  0  0  0  0  0  0
  -87.8742   29.2630    0.1624 H   0  0  0  0  0  0  0  0  0  0  0  0
  -89.6932   33.3463   -3.9151 C   0  0  0  0  0  0  0  0  0  0  0  0
  -89.7097   33.1874   -2.5107 O   0  0  0  0  0  0  0  0  0  0  0  0
  -83.3374   32.6617    0.1289 C   0  0  0  0  0  0  0  0  0  0  0  0
  -82.7906   33.6359   -0.2131 N   0  0  0  0  0  0  0  0  0  0  0  0
 19 20  1  0  0  0
 20  1  1  0  0  0
  1  2  2  0  0  0
  2  3  1  0  0  0
  3  4  2  0  0  0
  4  5  1  0  0  0
  5  6  2  0  0  0
  5  7  1  0  0  0
  7  8  1  0  0  0
  8  9  2  0  0  0
  9 10  1  0  0  0
 10 11  2  0  0  0
 11 12  1  0  0  0
 12 13  2  0  0  0
 13 14  1  0  0  0
 14 15  2  0  0  0
 15 16  1  0  0  0
 16 17  2  0  0  0
 10 21  1  0  0  0
 21 22  3  0  0  0
  6  1  1  0  0  0
 17  8  1  0  0  0
  9  4  1  0  0  0
 17 12  1  0  0  0
  7 18  1  0  0  0
M  END
> <minimizedAffinity>
-8.46305

> <CNNscore>
0.9381002784

> <CNNaffinity>
6.6647577286

> <CNN_VS>
6.2522110939

> <CNNaffinity_variance>
0.0544204041

$$$$
[H]c1nc([H])c2c([H])c(C#N)c3c4c([H])c([H])c(OC([H])([H])[H])nc4n([H])c3c2c1[H]


 22 25  0  0  0  0  0  0  0  0999 V2000
  -84.5767   32.5420   -0.2225 C   0  0  0  0  0  0  0  0  0  0  0  0
  -85.6734   31.7862    0.1170 C   0  0  0  0  0  0  0  0  0  0  0  0
  -86.8697   31.8239   -0.5710 C   0  0  0  0  0  0  0  0  0  0  0  0
  -86.9471   32.6702   -1.6518 C   0  0  0  0  0  0  0  0  0  0  0  0
  -85.8485   33.4360   -2.0027 C   0  0  0  0  0  0  0  0  0  0  0  0
  -84.7074   33.3490   -1.2835 N   0  0  0  0  0  0  0  0  0  0  0  0
  -86.1322   34.1870   -3.0771 N   0  0  0  0  0  0  0  0  0  0  0  0
  -87.3965   33.9390   -3.4507 C   0  0  0  0  0  0  0  0  0  0  0  0
  -87.9333   32.9925   -2.5766 C   0  0  0  0  0  0  0  0  0  0  0  0
  -89.2133   32.5826   -2.7601 C   0  0  0  0  0  0  0  0  0  0  0  0
  -89.9982   33.0896   -3.8038 C   0  0  0  0  0  0  0  0  0  0  0  0
  -89.4922   34.0192   -4.6736 C   0  0  0  0  0  0  0  0  0  0  0  0
  -90.2339   34.5412   -5.7127 C   0  0  0  0  0  0  0  0  0  0  0  0
  -89.7184   35.4445   -6.5452 N   0  0  0  0  0  0  0  0  0  0  0  0
  -88.4562   35.8759   -6.3979 C   0  0  0  0  0  0  0  0  0  0  0  0
  -87.6962   35.3709   -5.3698 C   0  0  0  0  0  0  0  0  0  0  0  0
  -88.1798   34.4204   -4.4622 C   0  0  0  0  0  0  0  0  0  0  0  0
  -85.4518   34.8417   -3.5159 H   0  0  0  0  0  0  0  0  0  0  0  0
  -82.9093   31.2201    0.9199 C   0  0  0  0  0  0  0  0  0  0  0  0
  -83.3843   32.4809    0.4924 O   0  0  0  0  0  0  0  0  0  0  0  0
  -89.8188   31.6119   -1.8933 C   0  0  0  0  0  0  0  0  0  0  0  0
  -90.2775   30.7923   -1.1983 N   0  0  0  0  0  0  0  0  0  0  0  0
 19 20  1  0  0  0
 20  1  1  0  0  0
  1  2  2  0  0  0
  2  3  1  0  0  0
  3  4  2  0  0  0
  4  5  1  0  0  0
  5  6  2  0  0  0
  5  7  1  0  0  0
  7  8  1  0  0  0
  8  9  2  0  0  0
  9 10  1  0  0  0
 10 11  2  0  0  0
 11 12  1  0  0  0
 12 13  2  0  0  0
 13 14  1  0  0  0
 14 15  2  0  0  0
 15 16  1  0  0  0
 16 17  2  0  0  0
 10 21  1  0  0  0
 21 22  3  0  0  0
  6  1  1  0  0  0
 17  8  1  0  0  0
  9  4  1  0  0  0
 17 12  1  0  0  0
  7 18  1  0  0  0
M  END
> <minimizedAffinity>
-7.08012

> <CNNscore>
0.6917166114

> <CNNaffinity>
5.7606282234

> <CNN_VS>
3.9847221375

> <CNNaffinity_variance>
0.1029904857

$$$$
[H]c1nc([H])c2c([H])c(C#N)c3c4c([H])c([H])c(OC([H])([H])[H])nc4n([H])c3c2c1[H]


 22 25  0  0  0  0  0  0  0  0999 V2000
  -83.9882   28.4283    2.2215 C   0  0  0  0  0  0  0  0  0  0  0  0
  -83.2310   29.5331    1.9123 C   0  0  0  0  0  0  0  0  0  0  0  0
  -83.6942   30.5880    1.1518 C   0  0  0  0  0  0  0  0  0  0  0  0
  -84.9862   30.5095    0.6882 C   0  0  0  0  0  0  0  0  0  0  0  0
  -85.7577   29.4013    0.9935 C   0  0  0  0  0  0  0  0  0  0  0  0
  -85.2393   28.4038    1.7441 N   0  0  0  0  0  0  0  0  0  0  0  0
  -86.9774   29.5223    0.4488 N   0  0  0  0  0  0  0  0  0  0  0  0
  -87.0363   30.6873   -0.2136 C   0  0  0  0  0  0  0  0  0  0  0  0
  -85.8036   31.3284   -0.0819 C   0  0  0  0  0  0  0  0  0  0  0  0
  -85.6261   32.5356   -0.6746 C   0  0  0  0  0  0  0  0  0  0  0  0
  -86.6513   33.1438   -1.4104 C   0  0  0  0  0  0  0  0  0  0  0  0
  -87.8691   32.5329   -1.5530 C   0  0  0  0  0  0  0  0  0  0  0  0
  -88.9021   33.1003   -2.2695 C   0  0  0  0  0  0  0  0  0  0  0  0
  -90.0776   32.4856   -2.3932 N   0  0  0  0  0  0  0  0  0  0  0  0
  -90.2935   31.2905   -1.8222 C   0  0  0  0  0  0  0  0  0  0  0  0
  -89.2796   30.7040   -1.1028 C   0  0  0  0  0  0  0  0  0  0  0  0
  -88.0228   31.2985   -0.9360 C   0  0  0  0  0  0  0  0  0  0  0  0
  -87.7249   28.8046    0.5493 H   0  0  0  0  0  0  0  0  0  0  0  0
  -82.1209   27.0492    2.8881 C   0  0  0  0  0  0  0  0  0  0  0  0
  -83.4911   27.3808    2.9912 O   0  0  0  0  0  0  0  0  0  0  0  0
  -84.3805   33.2419   -0.5734 C   0  0  0  0  0  0  0  0  0  0  0  0
  -83.3503   33.7908   -0.5257 N   0  0  0  0  0  0  0  0  0  0  0  0
 19 20  1  0  0  0
 20  1  1  0  0  0
  1  2  2  0  0  0
  2  3  1  0  0  0
  3  4  2  0  0  0
  4  5  1  0  0  0
  5  6  2  0  0  0
  5  7  1  0  0  0
  7  8  1  0  0  0
  8  9  2  0  0  0
  9 10  1  0  0  0
 10 11  2  0  0  0
 11 12  1  0  0  0
 12 13  2  0  0  0
 13 14  1  0  0  0
 14 15  2  0  0  0
 15 16  1  0  0  0
 16 17  2  0  0  0
 10 21  1  0  0  0
 21 22  3  0  0  0
  6  1  1  0  0  0
 17  8  1  0  0  0
  9  4  1  0  0  0
 17 12  1  0  0  0
  7 18  1  0  0  0
M  END
> <minimizedAffinity>
-8.18793

> <CNNscore>
0.6862888336

> <CNNaffinity>
6.3655509949

> <CNN_VS>
4.3686065674

> <CNNaffinity_variance>
0.1066847444

$$$$
[H]c1nc([H])c2c([H])c(C#N)c3c4c([H])c([H])c(OC([H])([H])[H])nc4n([H])c3c2c1[H]


 22 25  0  0  0  0  0  0  0  0999 V2000
  -89.9063   26.9687    0.9934 C   0  0  0  0  0  0  0  0  0  0  0  0
  -88.8277   26.4096    1.6363 C   0  0  0  0  0  0  0  0  0  0  0  0
  -87.5833   27.0040    1.6986 C   0  0  0  0  0  0  0  0  0  0  0  0
  -87.4361   28.2216    1.0770 C   0  0  0  0  0  0  0  0  0  0  0  0
  -88.5159   28.7938    0.4264 C   0  0  0  0  0  0  0  0  0  0  0  0
  -89.7070   28.1553    0.4050 N   0  0  0  0  0  0  0  0  0  0  0  0
  -88.1622   29.9716   -0.1089 N   0  0  0  0  0  0  0  0  0  0  0  0
  -86.8697   30.1976    0.1702 C   0  0  0  0  0  0  0  0  0  0  0  0
  -86.3872   29.1185    0.9123 C   0  0  0  0  0  0  0  0  0  0  0  0
  -85.0912   29.1256    1.3126 C   0  0  0  0  0  0  0  0  0  0  0  0
  -84.2366   30.1895    0.9959 C   0  0  0  0  0  0  0  0  0  0  0  0
  -84.6884   31.2589    0.2686 C   0  0  0  0  0  0  0  0  0  0  0  0
  -83.8775   32.3242   -0.0625 C   0  0  0  0  0  0  0  0  0  0  0  0
  -84.3413   33.3527   -0.7710 N   0  0  0  0  0  0  0  0  0  0  0  0
  -85.6171   33.3839   -1.1859 C   0  0  0  0  0  0  0  0  0  0  0  0
  -86.4457   32.3339   -0.8688 C   0  0  0  0  0  0  0  0  0  0  0  0
  -86.0188   31.2251   -0.1277 C   0  0  0  0  0  0  0  0  0  0  0  0
  -88.8166   30.5781   -0.6456 H   0  0  0  0  0  0  0  0  0  0  0  0
  -91.8349   26.2764   -0.2850 C   0  0  0  0  0  0  0  0  0  0  0  0
  -91.1486   26.3431    0.9488 O   0  0  0  0  0  0  0  0  0  0  0  0
  -84.5393   28.0438    2.0780 C   0  0  0  0  0  0  0  0  0  0  0  0
  -84.1274   27.1381    2.6902 N   0  0  0  0  0  0  0  0  0  0  0  0
 19 20  1  0  0  0
 20  1  1  0  0  0
  1  2  2  0  0  0
  2  3  1  0  0  0
  3  4  2  0  0  0
  4  5  1  0  0  0
  5  6  2  0  0  0
  5  7  1  0  0  0
  7  8  1  0  0  0
  8  9  2  0  0  0
  9 10  1  0  0  0
 10 11  2  0  0  0
 11 12  1  0  0  0
 12 13  2  0  0  0
 13 14  1  0  0  0
 14 15  2  0  0  0
 15 16  1  0  0  0
 16 17  2  0  0  0
 10 21  1  0  0  0
 21 22  3  0  0  0
  6  1  1  0  0  0
 17  8  1  0  0  0
  9  4  1  0  0  0
 17 12  1  0  0  0
  7 18  1  0  0  0
M  END
> <minimizedAffinity>
-8.11272

> <CNNscore>
0.6603561640

> <CNNaffinity>
6.5248250961

> <CNN_VS>
4.3087086678

> <CNNaffinity_variance>
0.4192572236

$$$$
[H]c1nc([H])c2c([H])c(C#N)c3c4c([H])c([H])c(OC([H])([H])[H])nc4n([H])c3c2c1[H]


 22 25  0  0  0  0  0  0  0  0999 V2000
  -87.1336   33.7945   -1.9186 C   0  0  0  0  0  0  0  0  0  0  0  0
  -88.2318   32.9683   -1.8904 C   0  0  0  0  0  0  0  0  0  0  0  0
  -88.2468   31.7390   -1.2623 C   0  0  0  0  0  0  0  0  0  0  0  0
  -87.0899   31.3382   -0.6368 C   0  0  0  0  0  0  0  0  0  0  0  0
  -85.9778   32.1625   -0.6591 C   0  0  0  0  0  0  0  0  0  0  0  0
  -86.0337   33.3546   -1.2937 N   0  0  0  0  0  0  0  0  0  0  0  0
  -84.9632   31.5885    0.0042 N   0  0  0  0  0  0  0  0  0  0  0  0
  -85.3740   30.3989    0.4684 C   0  0  0  0  0  0  0  0  0  0  0  0
  -86.7026   30.2139    0.0827 C   0  0  0  0  0  0  0  0  0  0  0  0
  -87.3363   29.0699    0.4429 C   0  0  0  0  0  0  0  0  0  0  0  0
  -86.6843   28.0798    1.1892 C   0  0  0  0  0  0  0  0  0  0  0  0
  -85.3807   28.2399    1.5786 C   0  0  0  0  0  0  0  0  0  0  0  0
  -84.7057   27.2879    2.3136 C   0  0  0  0  0  0  0  0  0  0  0  0
  -83.4376   27.4677    2.6802 N   0  0  0  0  0  0  0  0  0  0  0  0
  -82.7752   28.5854    2.3440 C   0  0  0  0  0  0  0  0  0  0  0  0
  -83.4259   29.5495    1.6115 C   0  0  0  0  0  0  0  0  0  0  0  0
  -84.7570   29.4201    1.1962 C   0  0  0  0  0  0  0  0  0  0  0  0
  -84.0269   32.0304    0.1154 H   0  0  0  0  0  0  0  0  0  0  0  0
  -87.9428   35.1824   -3.7220 C   0  0  0  0  0  0  0  0  0  0  0  0
  -87.1511   35.0289   -2.5611 O   0  0  0  0  0  0  0  0  0  0  0  0
  -88.7019   28.8244    0.0751 C   0  0  0  0  0  0  0  0  0  0  0  0
  -89.8023   28.6340   -0.2682 N   0  0  0  0  0  0  0  0  0  0  0  0
 19 20  1  0  0  0
 20  1  1  0  0  0
  1  2  2  0  0  0
  2  3  1  0  0  0
  3  4  2  0  0  0
  4  5  1  0  0  0
  5  6  2  0  0  0
  5  7  1  0  0  0
  7  8  1  0  0  0
  8  9  2  0  0  0
  9 10  1  0  0  0
 10 11  2  0  0  0
 11 12  1  0  0  0
 12 13  2  0  0  0
 13 14  1  0  0  0
 14 15  2  0  0  0
 15 16  1  0  0  0
 16 17  2  0  0  0
 10 21  1  0  0  0
 21 22  3  0  0  0
  6  1  1  0  0  0
 17  8  1  0  0  0
  9  4  1  0  0  0
 17 12  1  0  0  0
  7 18  1  0  0  0
M  END
> <minimizedAffinity>
-8.27445

> <CNNscore>
0.5871607661

> <CNNaffinity>
6.3497056961

> <CNN_VS>
3.7282979488

> <CNNaffinity_variance>
0.3463349938

$$$$
[H]c1nc([H])c2c([H])c(C#N)c3c4c([H])c([H])c(OC([H])([H])[H])nc4n([H])c3c2c1[H]


 22 25  0  0  0  0  0  0  0  0999 V2000
  -88.3705   35.0409   -3.3119 C   0  0  0  0  0  0  0  0  0  0  0  0
  -89.2723   34.0865   -2.9056 C   0  0  0  0  0  0  0  0  0  0  0  0
  -88.9439   33.0247   -2.0868 C   0  0  0  0  0  0  0  0  0  0  0  0
  -87.6380   32.9355   -1.6659 C   0  0  0  0  0  0  0  0  0  0  0  0
  -86.7213   33.8914   -2.0692 C   0  0  0  0  0  0  0  0  0  0  0  0
  -87.1125   34.9055   -2.8726 N   0  0  0  0  0  0  0  0  0  0  0  0
  -85.5137   33.6217   -1.5515 N   0  0  0  0  0  0  0  0  0  0  0  0
  -85.6048   32.5064   -0.8117 C   0  0  0  0  0  0  0  0  0  0  0  0
  -86.9238   32.0531   -0.8640 C   0  0  0  0  0  0  0  0  0  0  0  0
  -87.2575   30.9278   -0.1841 C   0  0  0  0  0  0  0  0  0  0  0  0
  -86.3078   30.2195    0.5634 C   0  0  0  0  0  0  0  0  0  0  0  0
  -85.0076   30.6458    0.6290 C   0  0  0  0  0  0  0  0  0  0  0  0
  -84.0447   29.9754    1.3541 C   0  0  0  0  0  0  0  0  0  0  0  0
  -82.7866   30.4108    1.4020 N   0  0  0  0  0  0  0  0  0  0  0  0
  -82.4159   31.5198    0.7434 C   0  0  0  0  0  0  0  0  0  0  0  0
  -83.3571   32.2060    0.0134 C   0  0  0  0  0  0  0  0  0  0  0  0
  -84.6943   31.8001   -0.0764 C   0  0  0  0  0  0  0  0  0  0  0  0
  -84.6713   34.2093   -1.7226 H   0  0  0  0  0  0  0  0  0  0  0  0
  -90.0564   36.5944   -4.0718 C   0  0  0  0  0  0  0  0  0  0  0  0
  -88.7339   36.0999   -4.1384 O   0  0  0  0  0  0  0  0  0  0  0  0
  -88.5979   30.4143   -0.2008 C   0  0  0  0  0  0  0  0  0  0  0  0
  -89.6906   30.0022   -0.1685 N   0  0  0  0  0  0  0  0  0  0  0  0
 19 20  1  0  0  0
 20  1  1  0  0  0
  1  2  2  0  0  0
  2  3  1  0  0  0
  3  4  2  0  0  0
  4  5  1  0  0  0
  5  6  2  0  0  0
  5  7  1  0  0  0
  7  8  1  0  0  0
  8  9  2  0  0  0
  9 10  1  0  0  0
 10 11  2  0  0  0
 11 12  1  0  0  0
 12 13  2  0  0  0
 13 14  1  0  0  0
 14 15  2  0  0  0
 15 16  1  0  0  0
 16 17  2  0  0  0
 10 21  1  0  0  0
 21 22  3  0  0  0
  6  1  1  0  0  0
 17  8  1  0  0  0
  9  4  1  0  0  0
 17 12  1  0  0  0
  7 18  1  0  0  0
M  END
> <minimizedAffinity>
-8.00593

> <CNNscore>
0.5508756638

> <CNNaffinity>
6.0119142532

> <CNN_VS>
3.3118171692

> <CNNaffinity_variance>
0.1313239187

$$$$
[H]c1nc([H])c2c([H])c(C#N)c3c4c([H])c([H])c(OC([H])([H])[H])nc4n([H])c3c2c1[H]


 22 25  0  0  0  0  0  0  0  0999 V2000
  -88.7322   26.8503    1.1739 C   0  0  0  0  0  0  0  0  0  0  0  0
  -89.5930   27.7547    0.5990 C   0  0  0  0  0  0  0  0  0  0  0  0
  -89.2030   28.9993    0.1467 C   0  0  0  0  0  0  0  0  0  0  0  0
  -87.8766   29.3326    0.2883 C   0  0  0  0  0  0  0  0  0  0  0  0
  -87.0009   28.4293    0.8660 C   0  0  0  0  0  0  0  0  0  0  0  0
  -87.4519   27.2267    1.2871 N   0  0  0  0  0  0  0  0  0  0  0  0
  -85.7642   28.9467    0.9090 N   0  0  0  0  0  0  0  0  0  0  0  0
  -85.7958   30.1758    0.3727 C   0  0  0  0  0  0  0  0  0  0  0  0
  -87.1060   30.4459   -0.0255 C   0  0  0  0  0  0  0  0  0  0  0  0
  -87.3825   31.6428   -0.6007 C   0  0  0  0  0  0  0  0  0  0  0  0
  -86.3830   32.6039   -0.7998 C   0  0  0  0  0  0  0  0  0  0  0  0
  -85.0904   32.3605   -0.4168 C   0  0  0  0  0  0  0  0  0  0  0  0
  -84.0796   33.2816   -0.5962 C   0  0  0  0  0  0  0  0  0  0  0  0
  -82.8300   33.0206   -0.2150 N   0  0  0  0  0  0  0  0  0  0  0  0
  -82.5151   31.8485    0.3577 C   0  0  0  0  0  0  0  0  0  0  0  0
  -83.5049   30.9137    0.5476 C   0  0  0  0  0  0  0  0  0  0  0  0
  -84.8360   31.1276    0.1691 C   0  0  0  0  0  0  0  0  0  0  0  0
  -84.9437   28.4413    1.3034 H   0  0  0  0  0  0  0  0  0  0  0  0
  -89.5957   25.4693    2.9572 C   0  0  0  0  0  0  0  0  0  0  0  0
  -89.1576   25.6025    1.6200 O   0  0  0  0  0  0  0  0  0  0  0  0
  -88.7109   31.9764   -1.0304 C   0  0  0  0  0  0  0  0  0  0  0  0
  -89.7959   32.2056   -1.3983 N   0  0  0  0  0  0  0  0  0  0  0  0
 19 20  1  0  0  0
 20  1  1  0  0  0
  1  2  2  0  0  0
  2  3  1  0  0  0
  3  4  2  0  0  0
  4  5  1  0  0  0
  5  6  2  0  0  0
  5  7  1  0  0  0
  7  8  1  0  0  0
  8  9  2  0  0  0
  9 10  1  0  0  0
 10 11  2  0  0  0
 11 12  1  0  0  0
 12 13  2  0  0  0
 13 14  1  0  0  0
 14 15  2  0  0  0
 15 16  1  0  0  0
 16 17  2  0  0  0
 10 21  1  0  0  0
 21 22  3  0  0  0
  6  1  1  0  0  0
 17  8  1  0  0  0
  9  4  1  0  0  0
 17 12  1  0  0  0
  7 18  1  0  0  0
M  END
> <minimizedAffinity>
-7.88830

> <CNNscore>
0.5121049881

> <CNNaffinity>
6.3137731552

> <CNN_VS>
3.2333147526

> <CNNaffinity_variance>
0.2143993378

$$$$
[H]c1nc([H])c2c([H])c(C#N)c3c4c([H])c([H])c(OC([H])([H])[H])nc4n([H])c3c2c1[H]


 22 25  0  0  0  0  0  0  0  0999 V2000
  -84.5449   28.2029    2.1027 C   0  0  0  0  0  0  0  0  0  0  0  0
  -84.0821   29.4629    1.8068 C   0  0  0  0  0  0  0  0  0  0  0  0
  -84.7968   30.3854    1.0693 C   0  0  0  0  0  0  0  0  0  0  0  0
  -86.0371   30.0029    0.6155 C   0  0  0  0  0  0  0  0  0  0  0  0
  -86.5130   28.7361    0.9077 C   0  0  0  0  0  0  0  0  0  0  0  0
  -85.7587   27.8829    1.6358 N   0  0  0  0  0  0  0  0  0  0  0  0
  -87.7324   28.5659    0.3757 N   0  0  0  0  0  0  0  0  0  0  0  0
  -88.0805   29.6918   -0.2652 C   0  0  0  0  0  0  0  0  0  0  0  0
  -87.0383   30.6108   -0.1326 C   0  0  0  0  0  0  0  0  0  0  0  0
  -87.1663   31.8338   -0.7051 C   0  0  0  0  0  0  0  0  0  0  0  0
  -88.3176   32.1863   -1.4211 C   0  0  0  0  0  0  0  0  0  0  0  0
  -89.3528   31.3005   -1.5641 C   0  0  0  0  0  0  0  0  0  0  0  0
  -90.5015   31.6111   -2.2614 C   0  0  0  0  0  0  0  0  0  0  0  0
  -91.4944   30.7316   -2.3860 N   0  0  0  0  0  0  0  0  0  0  0  0
  -91.4069   29.5113   -1.8345 C   0  0  0  0  0  0  0  0  0  0  0  0
  -90.2720   29.1773   -1.1345 C   0  0  0  0  0  0  0  0  0  0  0  0
  -89.1948   30.0564   -0.9680 C   0  0  0  0  0  0  0  0  0  0  0  0
  -88.2823   27.6868    0.4698 H   0  0  0  0  0  0  0  0  0  0  0  0
  -82.3882   27.3646    2.7948 C   0  0  0  0  0  0  0  0  0  0  0  0
  -83.7989   27.2957    2.8492 O   0  0  0  0  0  0  0  0  0  0  0  0
  -86.1280   32.8196   -0.6022 C   0  0  0  0  0  0  0  0  0  0  0  0
  -85.2518   33.5877   -0.5165 N   0  0  0  0  0  0  0  0  0  0  0  0
 19 20  1  0  0  0
 20  1  1  0  0  0
  1  2  2  0  0  0
  2  3  1  0  0  0
  3  4  2  0  0  0
  4  5  1  0  0  0
  5  6  2  0  0  0
  5  7  1  0  0  0
  7  8  1  0  0  0
  8  9  2  0  0  0
  9 10  1  0  0  0
 10 11  2  0  0  0
 11 12  1  0  0  0
 12 13  2  0  0  0
 13 14  1  0  0  0
 14 15  2  0  0  0
 15 16  1  0  0  0
 16 17  2  0  0  0
 10 21  1  0  0  0
 21 22  3  0  0  0
  6  1  1  0  0  0
 17  8  1  0  0  0
  9  4  1  0  0  0
 17 12  1  0  0  0
  7 18  1  0  0  0
M  END
> <minimizedAffinity>
-7.42090

> <CNNscore>
0.2944749594

> <CNNaffinity>
6.0420761108

> <CNN_VS>
1.7792401314

> <CNNaffinity_variance>
0.1896813810

$$$$
[H]c1nc(N([H])[H])c([H])c(-c2c([H])n([H])c3nc(C([H])([H])[H])nc(N([H])C([H])([H])c4c([H])c([H])c([H])c([H])c4OC([H])([H])C([H])([H])[H])c23)c1[H]


 32 35  0  0  0  0  0  0  0  0999 V2000
  -86.0807   31.2379   -0.2479 C   0  0  0  0  0  0  0  0  0  0  0  0
  -86.7441   32.1699   -0.9910 N   0  0  0  0  0  0  0  0  0  0  0  0
  -86.2030   33.2965   -1.4507 C   0  0  0  0  0  0  0  0  0  0  0  0
  -87.0190   34.2502   -2.2554 C   0  0  0  0  0  0  0  0  0  0  0  0
  -84.9168   33.5231   -1.1589 N   0  0  0  0  0  0  0  0  0  0  0  0
  -84.1944   32.6305   -0.4189 C   0  0  0  0  0  0  0  0  0  0  0  0
  -82.9155   32.6355   -0.0036 N   0  0  0  0  0  0  0  0  0  0  0  0
  -82.6225   31.5444    0.7089 C   0  0  0  0  0  0  0  0  0  0  0  0
  -83.7821   30.7881    0.7573 C   0  0  0  0  0  0  0  0  0  0  0  0
  -84.7584   31.4612    0.0575 C   0  0  0  0  0  0  0  0  0  0  0  0
  -82.1948   33.3914   -0.1952 H   0  0  0  0  0  0  0  0  0  0  0  0
  -83.8532   29.5341    1.4454 C   0  0  0  0  0  0  0  0  0  0  0  0
  -82.7705   29.0216    2.1294 C   0  0  0  0  0  0  0  0  0  0  0  0
  -82.9135   27.7874    2.7259 C   0  0  0  0  0  0  0  0  0  0  0  0
  -84.0530   27.1030    2.6514 N   0  0  0  0  0  0  0  0  0  0  0  0
  -85.1529   27.5559    1.9922 C   0  0  0  0  0  0  0  0  0  0  0  0
  -86.3384   26.7947    1.9410 N   0  0  0  0  0  0  0  0  0  0  0  0
  -85.0251   28.7890    1.3906 C   0  0  0  0  0  0  0  0  0  0  0  0
  -86.3451   25.8933    1.4425 H   0  0  0  0  0  0  0  0  0  0  0  0
  -87.1943   27.1383    2.3998 H   0  0  0  0  0  0  0  0  0  0  0  0
  -86.7386   30.0595    0.1789 N   0  0  0  0  0  0  0  0  0  0  0  0
  -86.3382   29.2149    0.5805 H   0  0  0  0  0  0  0  0  0  0  0  0
  -88.1870   30.0360    0.0273 C   0  0  0  0  0  0  0  0  0  0  0  0
  -89.0775   27.7640    0.1154 C   0  0  0  0  0  0  0  0  0  0  0  0
  -89.5765   26.6380   -0.4893 C   0  0  0  0  0  0  0  0  0  0  0  0
  -89.7100   26.5448   -1.8716 C   0  0  0  0  0  0  0  0  0  0  0  0
  -89.3352   27.6004   -2.6439 C   0  0  0  0  0  0  0  0  0  0  0  0
  -88.8273   28.7457   -2.0204 C   0  0  0  0  0  0  0  0  0  0  0  0
  -88.6967   28.8346   -0.6626 C   0  0  0  0  0  0  0  0  0  0  0  0
  -88.9521   27.8406    1.4729 O   0  0  0  0  0  0  0  0  0  0  0  0
  -91.1139   28.6829    2.2353 C   0  0  0  0  0  0  0  0  0  0  0  0
  -89.9436   27.7754    2.4438 C   0  0  0  0  0  0  0  0  0  0  0  0
 31 32  1  0  0  0
 32 30  1  0  0  0
 30 24  1  0  0  0
 24 25  2  0  0  0
 25 26  1  0  0  0
 26 27  2  0  0  0
 27 28  1  0  0  0
 28 29  2  0  0  0
 29 23  1  0  0  0
 23 21  1  0  0  0
 21  1  1  0  0  0
  1  2  2  0  0  0
  2  3  1  0  0  0
  3  4  1  0  0  0
  3  5  2  0  0  0
  5  6  1  0  0  0
  6  7  1  0  0  0
  7  8  1  0  0  0
  8  9  2  0  0  0
  9 12  1  0  0  0
 12 13  2  0  0  0
 13 14  1  0  0  0
 14 15  2  0  0  0
 15 16  1  0  0  0
 16 17  1  0  0  0
 16 18  2  0  0  0
  9 10  1  0  0  0
 29 24  1  0  0  0
 10  1  1  0  0  0
 10  6  2  0  0  0
 18 12  1  0  0  0
 21 22  1  0  0  0
  7 11  1  0  0  0
 17 19  1  0  0  0
 17 20  1  0  0  0
M  END
> <minimizedAffinity>
-9.31075

> <CNNscore>
0.9381847978

> <CNNaffinity>
7.6081190109

> <CNN_VS>
7.1378216743

> <CNNaffinity_variance>
0.0915053710

$$$$
[H]c1nc(N([H])[H])c([H])c(-c2c([H])n([H])c3nc(C([H])([H])[H])nc(N([H])C([H])([H])c4c([H])c([H])c([H])c([H])c4OC([H])([H])C([H])([H])[H])c23)c1[H]


 32 35  0  0  0  0  0  0  0  0999 V2000
  -86.1169   31.2885   -0.3255 C   0  0  0  0  0  0  0  0  0  0  0  0
  -86.7796   32.2106   -1.0816 N   0  0  0  0  0  0  0  0  0  0  0  0
  -86.2457   33.3439   -1.5333 C   0  0  0  0  0  0  0  0  0  0  0  0
  -87.0600   34.2854   -2.3537 C   0  0  0  0  0  0  0  0  0  0  0  0
  -84.9680   33.5882   -1.2191 N   0  0  0  0  0  0  0  0  0  0  0  0
  -84.2469   32.7064   -0.4651 C   0  0  0  0  0  0  0  0  0  0  0  0
  -82.9757   32.7292   -0.0272 N   0  0  0  0  0  0  0  0  0  0  0  0
  -82.6806   31.6430    0.6920 C   0  0  0  0  0  0  0  0  0  0  0  0
  -83.8306   30.8712    0.7210 C   0  0  0  0  0  0  0  0  0  0  0  0
  -84.8033   31.5302    0.0030 C   0  0  0  0  0  0  0  0  0  0  0  0
  -82.2620   33.4945   -0.2071 H   0  0  0  0  0  0  0  0  0  0  0  0
  -83.8970   29.6172    1.4096 C   0  0  0  0  0  0  0  0  0  0  0  0
  -82.8008   29.0900    2.0602 C   0  0  0  0  0  0  0  0  0  0  0  0
  -82.9415   27.8568    2.6593 C   0  0  0  0  0  0  0  0  0  0  0  0
  -84.0913   27.1870    2.6184 N   0  0  0  0  0  0  0  0  0  0  0  0
  -85.2047   27.6548    1.9930 C   0  0  0  0  0  0  0  0  0  0  0  0
  -86.4008   26.9088    1.9766 N   0  0  0  0  0  0  0  0  0  0  0  0
  -85.0793   28.8871    1.3892 C   0  0  0  0  0  0  0  0  0  0  0  0
  -86.4339   26.0082    1.4776 H   0  0  0  0  0  0  0  0  0  0  0  0
  -87.2380   27.2626    2.4613 H   0  0  0  0  0  0  0  0  0  0  0  0
  -86.7663   30.1019    0.0913 N   0  0  0  0  0  0  0  0  0  0  0  0
  -86.3597   29.2566    0.4854 H   0  0  0  0  0  0  0  0  0  0  0  0
  -88.2145   30.0696   -0.0598 C   0  0  0  0  0  0  0  0  0  0  0  0
  -89.4658   29.1051   -1.9218 C   0  0  0  0  0  0  0  0  0  0  0  0
  -89.9286   28.0301   -2.6380 C   0  0  0  0  0  0  0  0  0  0  0  0
  -89.6591   26.7201   -2.2526 C   0  0  0  0  0  0  0  0  0  0  0  0
  -88.9158   26.5004   -1.1344 C   0  0  0  0  0  0  0  0  0  0  0  0
  -88.4470   27.6014   -0.4088 C   0  0  0  0  0  0  0  0  0  0  0  0
  -88.7134   28.8871   -0.7892 C   0  0  0  0  0  0  0  0  0  0  0  0
  -89.7387   30.3847   -2.3122 O   0  0  0  0  0  0  0  0  0  0  0  0
  -88.0130   30.7648   -3.9979 C   0  0  0  0  0  0  0  0  0  0  0  0
  -89.3981   31.0247   -3.4973 C   0  0  0  0  0  0  0  0  0  0  0  0
 31 32  1  0  0  0
 32 30  1  0  0  0
 30 24  1  0  0  0
 24 25  2  0  0  0
 25 26  1  0  0  0
 26 27  2  0  0  0
 27 28  1  0  0  0
 28 29  2  0  0  0
 29 23  1  0  0  0
 23 21  1  0  0  0
 21  1  1  0  0  0
  1  2  2  0  0  0
  2  3  1  0  0  0
  3  4  1  0  0  0
  3  5  2  0  0  0
  5  6  1  0  0  0
  6  7  1  0  0  0
  7  8  1  0  0  0
  8  9  2  0  0  0
  9 12  1  0  0  0
 12 13  2  0  0  0
 13 14  1  0  0  0
 14 15  2  0  0  0
 15 16  1  0  0  0
 16 17  1  0  0  0
 16 18  2  0  0  0
  9 10  1  0  0  0
 29 24  1  0  0  0
 10  1  1  0  0  0
 10  6  2  0  0  0
 18 12  1  0  0  0
 21 22  1  0  0  0
  7 11  1  0  0  0
 17 19  1  0  0  0
 17 20  1  0  0  0
M  END
> <minimizedAffinity>
-9.29175

> <CNNscore>
0.8997767568

> <CNNaffinity>
7.3631834984

> <CNN_VS>
6.6252212524

> <CNNaffinity_variance>
0.0850284845

$$$$
[H]c1nc(N([H])[H])c([H])c(-c2c([H])n([H])c3nc(C([H])([H])[H])nc(N([H])C([H])([H])c4c([H])c([H])c([H])c([H])c4OC([H])([H])C([H])([H])[H])c23)c1[H]


 32 35  0  0  0  0  0  0  0  0999 V2000
  -86.4927   31.7561   -0.6464 C   0  0  0  0  0  0  0  0  0  0  0  0
  -87.1189   32.4488   -1.6409 N   0  0  0  0  0  0  0  0  0  0  0  0
  -86.5780   33.4629   -2.3134 C   0  0  0  0  0  0  0  0  0  0  0  0
  -87.3513   34.1537   -3.3847 C   0  0  0  0  0  0  0  0  0  0  0  0
  -85.3315   33.8220   -1.9846 N   0  0  0  0  0  0  0  0  0  0  0  0
  -84.6477   33.1701   -0.9978 C   0  0  0  0  0  0  0  0  0  0  0  0
  -83.4119   33.3429   -0.4968 N   0  0  0  0  0  0  0  0  0  0  0  0
  -83.1462   32.4684    0.4772 C   0  0  0  0  0  0  0  0  0  0  0  0
  -84.2787   31.6827    0.6144 C   0  0  0  0  0  0  0  0  0  0  0  0
  -85.2113   32.1172   -0.3007 C   0  0  0  0  0  0  0  0  0  0  0  0
  -82.7034   34.0704   -0.8070 H   0  0  0  0  0  0  0  0  0  0  0  0
  -84.3678   30.6244    1.5753 C   0  0  0  0  0  0  0  0  0  0  0  0
  -85.3481   30.6088    2.5457 C   0  0  0  0  0  0  0  0  0  0  0  0
  -85.3328   29.5753    3.4574 C   0  0  0  0  0  0  0  0  0  0  0  0
  -84.4082   28.6184    3.4135 N   0  0  0  0  0  0  0  0  0  0  0  0
  -83.4182   28.5804    2.4819 C   0  0  0  0  0  0  0  0  0  0  0  0
  -82.4608   27.5456    2.4756 N   0  0  0  0  0  0  0  0  0  0  0  0
  -83.4206   29.6076    1.5633 C   0  0  0  0  0  0  0  0  0  0  0  0
  -81.7990   27.4577    3.2600 H   0  0  0  0  0  0  0  0  0  0  0  0
  -82.4231   26.8804    1.6900 H   0  0  0  0  0  0  0  0  0  0  0  0
  -87.1451   30.6775   -0.0025 N   0  0  0  0  0  0  0  0  0  0  0  0
  -87.7347   30.6916    0.8265 H   0  0  0  0  0  0  0  0  0  0  0  0
  -86.9549   29.3602   -0.5940 C   0  0  0  0  0  0  0  0  0  0  0  0
  -88.8762   28.0787    0.1991 C   0  0  0  0  0  0  0  0  0  0  0  0
  -89.4272   27.0495    0.9201 C   0  0  0  0  0  0  0  0  0  0  0  0
  -88.6440   26.1756    1.6686 C   0  0  0  0  0  0  0  0  0  0  0  0
  -87.2945   26.3474    1.6850 C   0  0  0  0  0  0  0  0  0  0  0  0
  -86.7392   27.3991    0.9472 C   0  0  0  0  0  0  0  0  0  0  0  0
  -87.5107   28.2563    0.2132 C   0  0  0  0  0  0  0  0  0  0  0  0
  -89.6576   28.9282   -0.5304 O   0  0  0  0  0  0  0  0  0  0  0  0
  -92.0411   29.0021   -1.0573 C   0  0  0  0  0  0  0  0  0  0  0  0
  -90.6499   28.6223   -1.4533 C   0  0  0  0  0  0  0  0  0  0  0  0
 31 32  1  0  0  0
 32 30  1  0  0  0
 30 24  1  0  0  0
 24 25  2  0  0  0
 25 26  1  0  0  0
 26 27  2  0  0  0
 27 28  1  0  0  0
 28 29  2  0  0  0
 29 23  1  0  0  0
 23 21  1  0  0  0
 21  1  1  0  0  0
  1  2  2  0  0  0
  2  3  1  0  0  0
  3  4  1  0  0  0
  3  5  2  0  0  0
  5  6  1  0  0  0
  6  7  1  0  0  0
  7  8  1  0  0  0
  8  9  2  0  0  0
  9 12  1  0  0  0
 12 13  2  0  0  0
 13 14  1  0  0  0
 14 15  2  0  0  0
 15 16  1  0  0  0
 16 17  1  0  0  0
 16 18  2  0  0  0
  9 10  1  0  0  0
 29 24  1  0  0  0
 10  1  1  0  0  0
 10  6  2  0  0  0
 18 12  1  0  0  0
 21 22  1  0  0  0
  7 11  1  0  0  0
 17 19  1  0  0  0
 17 20  1  0  0  0
M  END
> <minimizedAffinity>
-8.09157

> <CNNscore>
0.8088502884

> <CNNaffinity>
7.6325731277

> <CNN_VS>
6.1736087799

> <CNNaffinity_variance>
0.1992076337

$$$$
[H]c1nc(N([H])[H])c([H])c(-c2c([H])n([H])c3nc(C([H])([H])[H])nc(N([H])C([H])([H])c4c([H])c([H])c([H])c([H])c4OC([H])([H])C([H])([H])[H])c23)c1[H]


 32 35  0  0  0  0  0  0  0  0999 V2000
  -85.2661   29.9189    0.7664 C   0  0  0  0  0  0  0  0  0  0  0  0
  -84.7028   28.9012    1.4792 N   0  0  0  0  0  0  0  0  0  0  0  0
  -83.4612   28.9109    1.9605 C   0  0  0  0  0  0  0  0  0  0  0  0
  -82.9420   27.7431    2.7283 C   0  0  0  0  0  0  0  0  0  0  0  0
  -82.7199   29.9997    1.7242 N   0  0  0  0  0  0  0  0  0  0  0  0
  -83.2231   31.0547    1.0170 C   0  0  0  0  0  0  0  0  0  0  0  0
  -82.6846   32.2331    0.6571 N   0  0  0  0  0  0  0  0  0  0  0  0
  -83.5460   32.9780   -0.0409 C   0  0  0  0  0  0  0  0  0  0  0  0
  -84.7119   32.2364   -0.1384 C   0  0  0  0  0  0  0  0  0  0  0  0
  -84.5126   31.0424    0.5179 C   0  0  0  0  0  0  0  0  0  0  0  0
  -81.7023   32.5698    0.8788 H   0  0  0  0  0  0  0  0  0  0  0  0
  -85.8721   32.7160   -0.8276 C   0  0  0  0  0  0  0  0  0  0  0  0
  -87.1466   32.4378   -0.3792 C   0  0  0  0  0  0  0  0  0  0  0  0
  -88.2064   32.9016   -1.1284 C   0  0  0  0  0  0  0  0  0  0  0  0
  -88.0194   33.5958   -2.2489 N   0  0  0  0  0  0  0  0  0  0  0  0
  -86.7885   33.9006   -2.7403 C   0  0  0  0  0  0  0  0  0  0  0  0
  -86.6404   34.6391   -3.9320 N   0  0  0  0  0  0  0  0  0  0  0  0
  -85.7187   33.4434   -2.0018 C   0  0  0  0  0  0  0  0  0  0  0  0
  -86.9559   34.2351   -4.8255 H   0  0  0  0  0  0  0  0  0  0  0  0
  -86.2186   35.5786   -3.9095 H   0  0  0  0  0  0  0  0  0  0  0  0
  -86.6035   29.8229    0.3129 N   0  0  0  0  0  0  0  0  0  0  0  0
  -87.1199   30.4587   -0.2906 H   0  0  0  0  0  0  0  0  0  0  0  0
  -87.3581   28.6619    0.7646 C   0  0  0  0  0  0  0  0  0  0  0  0
  -89.6827   28.2561    1.3927 C   0  0  0  0  0  0  0  0  0  0  0  0
  -91.0302   28.3176    1.1413 C   0  0  0  0  0  0  0  0  0  0  0  0
  -91.5323   28.8411   -0.0466 C   0  0  0  0  0  0  0  0  0  0  0  0
  -90.6619   29.3048   -0.9840 C   0  0  0  0  0  0  0  0  0  0  0  0
  -89.2890   29.2391   -0.7208 C   0  0  0  0  0  0  0  0  0  0  0  0
  -88.7982   28.7240    0.4465 C   0  0  0  0  0  0  0  0  0  0  0  0
  -89.2049   27.7394    2.5628 O   0  0  0  0  0  0  0  0  0  0  0  0
  -90.1381   27.2066    4.7558 C   0  0  0  0  0  0  0  0  0  0  0  0
  -89.7661   26.7634    3.3768 C   0  0  0  0  0  0  0  0  0  0  0  0
 31 32  1  0  0  0
 32 30  1  0  0  0
 30 24  1  0  0  0
 24 25  2  0  0  0
 25 26  1  0  0  0
 26 27  2  0  0  0
 27 28  1  0  0  0
 28 29  2  0  0  0
 29 23  1  0  0  0
 23 21  1  0  0  0
 21  1  1  0  0  0
  1  2  2  0  0  0
  2  3  1  0  0  0
  3  4  1  0  0  0
  3  5  2  0  0  0
  5  6  1  0  0  0
  6  7  1  0  0  0
  7  8  1  0  0  0
  8  9  2  0  0  0
  9 12  1  0  0  0
 12 13  2  0  0  0
 13 14  1  0  0  0
 14 15  2  0  0  0
 15 16  1  0  0  0
 16 17  1  0  0  0
 16 18  2  0  0  0
  9 10  1  0  0  0
 29 24  1  0  0  0
 10  1  1  0  0  0
 10  6  2  0  0  0
 18 12  1  0  0  0
 21 22  1  0  0  0
  7 11  1  0  0  0
 17 19  1  0  0  0
 17 20  1  0  0  0
M  END
> <minimizedAffinity>
-8.99195

> <CNNscore>
0.7704061866

> <CNNaffinity>
7.4502320290

> <CNN_VS>
5.7397046089

> <CNNaffinity_variance>
0.1872791350

$$$$
[H]c1nc(N([H])[H])c([H])c(-c2c([H])n([H])c3nc(C([H])([H])[H])nc(N([H])C([H])([H])c4c([H])c([H])c([H])c([H])c4OC([H])([H])C([H])([H])[H])c23)c1[H]


 32 35  0  0  0  0  0  0  0  0999 V2000
  -85.4539   30.3291    0.4992 C   0  0  0  0  0  0  0  0  0  0  0  0
  -84.7945   29.3840    1.2293 N   0  0  0  0  0  0  0  0  0  0  0  0
  -83.5262   29.4807    1.6235 C   0  0  0  0  0  0  0  0  0  0  0  0
  -82.8997   28.3872    2.4200 C   0  0  0  0  0  0  0  0  0  0  0  0
  -82.8580   30.5865    1.2749 N   0  0  0  0  0  0  0  0  0  0  0  0
  -83.4589   31.5719    0.5441 C   0  0  0  0  0  0  0  0  0  0  0  0
  -83.0053   32.7501    0.0812 N   0  0  0  0  0  0  0  0  0  0  0  0
  -83.9470   33.4103   -0.5982 C   0  0  0  0  0  0  0  0  0  0  0  0
  -85.0778   32.6105   -0.5732 C   0  0  0  0  0  0  0  0  0  0  0  0
  -84.7760   31.4693    0.1357 C   0  0  0  0  0  0  0  0  0  0  0  0
  -82.0289   33.1450    0.2156 H   0  0  0  0  0  0  0  0  0  0  0  0
  -86.3033   32.9928   -1.2081 C   0  0  0  0  0  0  0  0  0  0  0  0
  -87.5154   32.9013   -0.5559 C   0  0  0  0  0  0  0  0  0  0  0  0
  -88.6498   33.2485   -1.2573 C   0  0  0  0  0  0  0  0  0  0  0  0
  -88.5909   33.6598   -2.5221 N   0  0  0  0  0  0  0  0  0  0  0  0
  -87.4270   33.7702   -3.2167 C   0  0  0  0  0  0  0  0  0  0  0  0
  -87.4147   34.2109   -4.5558 N   0  0  0  0  0  0  0  0  0  0  0  0
  -86.2838   33.4264   -2.5283 C   0  0  0  0  0  0  0  0  0  0  0  0
  -87.8584   33.6362   -5.2864 H   0  0  0  0  0  0  0  0  0  0  0  0
  -86.9641   35.1037   -4.8026 H   0  0  0  0  0  0  0  0  0  0  0  0
  -86.8115   30.1435    0.1442 N   0  0  0  0  0  0  0  0  0  0  0  0
  -87.6396   30.5875    0.5345 H   0  0  0  0  0  0  0  0  0  0  0  0
  -87.0766   29.1882   -0.9228 C   0  0  0  0  0  0  0  0  0  0  0  0
  -89.4019   29.6744   -1.4879 C   0  0  0  0  0  0  0  0  0  0  0  0
  -90.3667   30.1138   -2.3590 C   0  0  0  0  0  0  0  0  0  0  0  0
  -90.0553   30.5326   -3.6493 C   0  0  0  0  0  0  0  0  0  0  0  0
  -88.7576   30.5054   -4.0572 C   0  0  0  0  0  0  0  0  0  0  0  0
  -87.7787   30.0562   -3.1636 C   0  0  0  0  0  0  0  0  0  0  0  0
  -88.0872   29.6450   -1.8969 C   0  0  0  0  0  0  0  0  0  0  0  0
  -89.7228   29.2663   -0.2251 O   0  0  0  0  0  0  0  0  0  0  0  0
  -91.0233   28.7817    1.7844 C   0  0  0  0  0  0  0  0  0  0  0  0
  -90.9727   28.9643    0.3010 C   0  0  0  0  0  0  0  0  0  0  0  0
 31 32  1  0  0  0
 32 30  1  0  0  0
 30 24  1  0  0  0
 24 25  2  0  0  0
 25 26  1  0  0  0
 26 27  2  0  0  0
 27 28  1  0  0  0
 28 29  2  0  0  0
 29 23  1  0  0  0
 23 21  1  0  0  0
 21  1  1  0  0  0
  1  2  2  0  0  0
  2  3  1  0  0  0
  3  4  1  0  0  0
  3  5  2  0  0  0
  5  6  1  0  0  0
  6  7  1  0  0  0
  7  8  1  0  0  0
  8  9  2  0  0  0
  9 12  1  0  0  0
 12 13  2  0  0  0
 13 14  1  0  0  0
 14 15  2  0  0  0
 15 16  1  0  0  0
 16 17  1  0  0  0
 16 18  2  0  0  0
  9 10  1  0  0  0
 29 24  1  0  0  0
 10  1  1  0  0  0
 10  6  2  0  0  0
 18 12  1  0  0  0
 21 22  1  0  0  0
  7 11  1  0  0  0
 17 19  1  0  0  0
 17 20  1  0  0  0
M  END
> <minimizedAffinity>
-8.62577

> <CNNscore>
0.6909038424

> <CNNaffinity>
7.1935615540

> <CNN_VS>
4.9700593948

> <CNNaffinity_variance>
0.0724128038

$$$$
[H]c1nc(N([H])[H])c([H])c(-c2c([H])n([H])c3nc(C([H])([H])[H])nc(N([H])C([H])([H])c4c([H])c([H])c([H])c([H])c4OC([H])([H])C([H])([H])[H])c23)c1[H]


 32 35  0  0  0  0  0  0  0  0999 V2000
  -85.3285   30.3043    0.4449 C   0  0  0  0  0  0  0  0  0  0  0  0
  -84.6228   29.3866    1.1666 N   0  0  0  0  0  0  0  0  0  0  0  0
  -83.3647   29.5477    1.5722 C   0  0  0  0  0  0  0  0  0  0  0  0
  -82.6840   28.4791    2.3579 C   0  0  0  0  0  0  0  0  0  0  0  0
  -82.7565   30.6939    1.2447 N   0  0  0  0  0  0  0  0  0  0  0  0
  -83.4061   31.6551    0.5233 C   0  0  0  0  0  0  0  0  0  0  0  0
  -83.0154   32.8633    0.0808 N   0  0  0  0  0  0  0  0  0  0  0  0
  -83.9875   33.4801   -0.5965 C   0  0  0  0  0  0  0  0  0  0  0  0
  -85.0722   32.6186   -0.5918 C   0  0  0  0  0  0  0  0  0  0  0  0
  -84.7126   31.4856    0.1031 C   0  0  0  0  0  0  0  0  0  0  0  0
  -82.0634   33.3097    0.2286 H   0  0  0  0  0  0  0  0  0  0  0  0
  -86.3126   32.9416   -1.2309 C   0  0  0  0  0  0  0  0  0  0  0  0
  -87.5180   32.8295   -0.5696 C   0  0  0  0  0  0  0  0  0  0  0  0
  -88.6664   33.1185   -1.2745 C   0  0  0  0  0  0  0  0  0  0  0  0
  -88.6269   33.4941   -2.5512 N   0  0  0  0  0  0  0  0  0  0  0  0
  -87.4704   33.6222   -3.2551 C   0  0  0  0  0  0  0  0  0  0  0  0
  -87.4788   34.0235   -4.6065 N   0  0  0  0  0  0  0  0  0  0  0  0
  -86.3134   33.3365   -2.5633 C   0  0  0  0  0  0  0  0  0  0  0  0
  -87.9066   33.4133   -5.3176 H   0  0  0  0  0  0  0  0  0  0  0  0
  -87.0590   34.9230   -4.8818 H   0  0  0  0  0  0  0  0  0  0  0  0
  -86.6712   30.0489    0.0766 N   0  0  0  0  0  0  0  0  0  0  0  0
  -87.3916   30.7088   -0.2073 H   0  0  0  0  0  0  0  0  0  0  0  0
  -87.0961   28.6560    0.1046 C   0  0  0  0  0  0  0  0  0  0  0  0
  -89.5017   29.0491   -0.0415 C   0  0  0  0  0  0  0  0  0  0  0  0
  -90.7847   28.8685    0.4102 C   0  0  0  0  0  0  0  0  0  0  0  0
  -91.0652   28.1015    1.5373 C   0  0  0  0  0  0  0  0  0  0  0  0
  -90.0379   27.5147    2.2092 C   0  0  0  0  0  0  0  0  0  0  0  0
  -88.7319   27.7030    1.7429 C   0  0  0  0  0  0  0  0  0  0  0  0
  -88.4589   28.4572    0.6358 C   0  0  0  0  0  0  0  0  0  0  0  0
  -89.2420   29.8047   -1.1487 O   0  0  0  0  0  0  0  0  0  0  0  0
  -88.0707   29.9323   -3.2878 C   0  0  0  0  0  0  0  0  0  0  0  0
  -89.2201   29.4160   -2.4823 C   0  0  0  0  0  0  0  0  0  0  0  0
 31 32  1  0  0  0
 32 30  1  0  0  0
 30 24  1  0  0  0
 24 25  2  0  0  0
 25 26  1  0  0  0
 26 27  2  0  0  0
 27 28  1  0  0  0
 28 29  2  0  0  0
 29 23  1  0  0  0
 23 21  1  0  0  0
 21  1  1  0  0  0
  1  2  2  0  0  0
  2  3  1  0  0  0
  3  4  1  0  0  0
  3  5  2  0  0  0
  5  6  1  0  0  0
  6  7  1  0  0  0
  7  8  1  0  0  0
  8  9  2  0  0  0
  9 12  1  0  0  0
 12 13  2  0  0  0
 13 14  1  0  0  0
 14 15  2  0  0  0
 15 16  1  0  0  0
 16 17  1  0  0  0
 16 18  2  0  0  0
  9 10  1  0  0  0
 29 24  1  0  0  0
 10  1  1  0  0  0
 10  6  2  0  0  0
 18 12  1  0  0  0
 21 22  1  0  0  0
  7 11  1  0  0  0
 17 19  1  0  0  0
 17 20  1  0  0  0
M  END
> <minimizedAffinity>
-8.87712

> <CNNscore>
0.6325794458

> <CNNaffinity>
7.1592864990

> <CNN_VS>
4.5288176537

> <CNNaffinity_variance>
0.0701469406

$$$$
[H]c1nc(N([H])[H])c([H])c(-c2c([H])n([H])c3nc(C([H])([H])[H])nc(N([H])C([H])([H])c4c([H])c([H])c([H])c([H])c4OC([H])([H])C([H])([H])[H])c23)c1[H]


 32 35  0  0  0  0  0  0  0  0999 V2000
  -86.9448   31.6378   -0.5881 C   0  0  0  0  0  0  0  0  0  0  0  0
  -87.6953   32.2979   -1.5166 N   0  0  0  0  0  0  0  0  0  0  0  0
  -87.2777   33.3497   -2.2186 C   0  0  0  0  0  0  0  0  0  0  0  0
  -88.1808   33.9992   -3.2112 C   0  0  0  0  0  0  0  0  0  0  0  0
  -86.0324   33.7838   -1.9913 N   0  0  0  0  0  0  0  0  0  0  0  0
  -85.2279   33.1681   -1.0749 C   0  0  0  0  0  0  0  0  0  0  0  0
  -83.9670   33.4144   -0.6778 N   0  0  0  0  0  0  0  0  0  0  0  0
  -83.5655   32.5503    0.2583 C   0  0  0  0  0  0  0  0  0  0  0  0
  -84.6313   31.6936    0.4800 C   0  0  0  0  0  0  0  0  0  0  0  0
  -85.6636   32.0761   -0.3470 C   0  0  0  0  0  0  0  0  0  0  0  0
  -83.3341   34.1876   -1.0368 H   0  0  0  0  0  0  0  0  0  0  0  0
  -84.5723   30.6239    1.4305 C   0  0  0  0  0  0  0  0  0  0  0  0
  -85.5426   30.4607    2.3973 C   0  0  0  0  0  0  0  0  0  0  0  0
  -85.3836   29.4307    3.2991 C   0  0  0  0  0  0  0  0  0  0  0  0
  -84.3333   28.6141    3.2494 N   0  0  0  0  0  0  0  0  0  0  0  0
  -83.3459   28.7253    2.3209 C   0  0  0  0  0  0  0  0  0  0  0  0
  -82.2521   27.8359    2.3080 N   0  0  0  0  0  0  0  0  0  0  0  0
  -83.4911   29.7509    1.4121 C   0  0  0  0  0  0  0  0  0  0  0  0
  -81.5862   27.8343    3.0939 H   0  0  0  0  0  0  0  0  0  0  0  0
  -82.1194   27.1905    1.5163 H   0  0  0  0  0  0  0  0  0  0  0  0
  -87.4717   30.5149    0.0939 N   0  0  0  0  0  0  0  0  0  0  0  0
  -87.0064   29.8886    0.7467 H   0  0  0  0  0  0  0  0  0  0  0  0
  -88.8696   30.1981   -0.1649 C   0  0  0  0  0  0  0  0  0  0  0  0
  -89.1033   27.7902    0.1671 C   0  0  0  0  0  0  0  0  0  0  0  0
  -89.3217   26.5212   -0.3068 C   0  0  0  0  0  0  0  0  0  0  0  0
  -89.5252   26.2677   -1.6602 C   0  0  0  0  0  0  0  0  0  0  0  0
  -89.5072   27.3080   -2.5369 C   0  0  0  0  0  0  0  0  0  0  0  0
  -89.2841   28.5996   -2.0466 C   0  0  0  0  0  0  0  0  0  0  0  0
  -89.0840   28.8460   -0.7170 C   0  0  0  0  0  0  0  0  0  0  0  0
  -88.9049   28.0233    1.4977 O   0  0  0  0  0  0  0  0  0  0  0  0
  -90.9787   28.3541    2.7444 C   0  0  0  0  0  0  0  0  0  0  0  0
  -89.6838   27.6249    2.5769 C   0  0  0  0  0  0  0  0  0  0  0  0
 31 32  1  0  0  0
 32 30  1  0  0  0
 30 24  1  0  0  0
 24 25  2  0  0  0
 25 26  1  0  0  0
 26 27  2  0  0  0
 27 28  1  0  0  0
 28 29  2  0  0  0
 29 23  1  0  0  0
 23 21  1  0  0  0
 21  1  1  0  0  0
  1  2  2  0  0  0
  2  3  1  0  0  0
  3  4  1  0  0  0
  3  5  2  0  0  0
  5  6  1  0  0  0
  6  7  1  0  0  0
  7  8  1  0  0  0
  8  9  2  0  0  0
  9 12  1  0  0  0
 12 13  2  0  0  0
 13 14  1  0  0  0
 14 15  2  0  0  0
 15 16  1  0  0  0
 16 17  1  0  0  0
 16 18  2  0  0  0
  9 10  1  0  0  0
 29 24  1  0  0  0
 10  1  1  0  0  0
 10  6  2  0  0  0
 18 12  1  0  0  0
 21 22  1  0  0  0
  7 11  1  0  0  0
 17 19  1  0  0  0
 17 20  1  0  0  0
M  END
> <minimizedAffinity>
-8.09077

> <CNNscore>
0.5308331847

> <CNNaffinity>
7.0330452919

> <CNN_VS>
3.7333738804

> <CNNaffinity_variance>
0.1226143390

$$$$
[H]c1nc(N([H])[H])c([H])c(-c2c([H])n([H])c3nc(C([H])([H])[H])nc(N([H])C([H])([H])c4c([H])c([H])c([H])c([H])c4OC([H])([H])C([H])([H])[H])c23)c1[H]


 32 35  0  0  0  0  0  0  0  0999 V2000
  -86.7597   28.6066   -0.3339 C   0  0  0  0  0  0  0  0  0  0  0  0
  -87.4778   27.4473   -0.2961 N   0  0  0  0  0  0  0  0  0  0  0  0
  -87.6828   26.7192    0.7999 C   0  0  0  0  0  0  0  0  0  0  0  0
  -88.4849   25.4644    0.7313 C   0  0  0  0  0  0  0  0  0  0  0  0
  -87.1428   27.1629    1.9411 N   0  0  0  0  0  0  0  0  0  0  0  0
  -86.4122   28.3167    1.9730 C   0  0  0  0  0  0  0  0  0  0  0  0
  -85.7822   28.9533    2.9760 N   0  0  0  0  0  0  0  0  0  0  0  0
  -85.1798   30.0680    2.5534 C   0  0  0  0  0  0  0  0  0  0  0  0
  -85.4356   30.1576    1.1950 C   0  0  0  0  0  0  0  0  0  0  0  0
  -86.2005   29.0712    0.8336 C   0  0  0  0  0  0  0  0  0  0  0  0
  -85.7431   28.6441    3.9911 H   0  0  0  0  0  0  0  0  0  0  0  0
  -84.9423   31.2343    0.3897 C   0  0  0  0  0  0  0  0  0  0  0  0
  -83.5932   31.5044    0.2902 C   0  0  0  0  0  0  0  0  0  0  0  0
  -83.2095   32.5870   -0.4714 C   0  0  0  0  0  0  0  0  0  0  0  0
  -84.1013   33.3541   -1.0950 N   0  0  0  0  0  0  0  0  0  0  0  0
  -85.4426   33.1380   -1.0342 C   0  0  0  0  0  0  0  0  0  0  0  0
  -86.3490   33.9782   -1.7123 N   0  0  0  0  0  0  0  0  0  0  0  0
  -85.8415   32.0586   -0.2761 C   0  0  0  0  0  0  0  0  0  0  0  0
  -86.4410   34.9642   -1.4288 H   0  0  0  0  0  0  0  0  0  0  0  0
  -86.9168   33.6078   -2.4879 H   0  0  0  0  0  0  0  0  0  0  0  0
  -86.6142   29.3213   -1.5470 N   0  0  0  0  0  0  0  0  0  0  0  0
  -85.8566   29.9341   -1.8397 H   0  0  0  0  0  0  0  0  0  0  0  0
  -87.6883   29.1713   -2.5192 C   0  0  0  0  0  0  0  0  0  0  0  0
  -89.0700   31.1619   -2.2170 C   0  0  0  0  0  0  0  0  0  0  0  0
  -89.5628   32.3671   -2.6496 C   0  0  0  0  0  0  0  0  0  0  0  0
  -89.2232   32.8962   -3.8914 C   0  0  0  0  0  0  0  0  0  0  0  0
  -88.3788   32.1981   -4.6981 C   0  0  0  0  0  0  0  0  0  0  0  0
  -87.8798   30.9696   -4.2505 C   0  0  0  0  0  0  0  0  0  0  0  0
  -88.2152   30.4519   -3.0305 C   0  0  0  0  0  0  0  0  0  0  0  0
  -89.4124   30.6555   -0.9961 O   0  0  0  0  0  0  0  0  0  0  0  0
  -90.4859   29.2615    0.6976 C   0  0  0  0  0  0  0  0  0  0  0  0
  -90.5395   29.9245   -0.6419 C   0  0  0  0  0  0  0  0  0  0  0  0
 31 32  1  0  0  0
 32 30  1  0  0  0
 30 24  1  0  0  0
 24 25  2  0  0  0
 25 26  1  0  0  0
 26 27  2  0  0  0
 27 28  1  0  0  0
 28 29  2  0  0  0
 29 23  1  0  0  0
 23 21  1  0  0  0
 21  1  1  0  0  0
  1  2  2  0  0  0
  2  3  1  0  0  0
  3  4  1  0  0  0
  3  5  2  0  0  0
  5  6  1  0  0  0
  6  7  1  0  0  0
  7  8  1  0  0  0
  8  9  2  0  0  0
  9 12  1  0  0  0
 12 13  2  0  0  0
 13 14  1  0  0  0
 14 15  2  0  0  0
 15 16  1  0  0  0
 16 17  1  0  0  0
 16 18  2  0  0  0
  9 10  1  0  0  0
 29 24  1  0  0  0
 10  1  1  0  0  0
 10  6  2  0  0  0
 18 12  1  0  0  0
 21 22  1  0  0  0
  7 11  1  0  0  0
 17 19  1  0  0  0
 17 20  1  0  0  0
M  END
> <minimizedAffinity>
-8.14524

> <CNNscore>
0.4901757836

> <CNNaffinity>
6.9518103600

> <CNN_VS>
3.4076089859

> <CNNaffinity_variance>
0.0997871608

$$$$
[H]c1nc(N([H])[H])c([H])c(-c2c([H])n([H])c3nc(C([H])([H])[H])nc(N([H])C([H])([H])c4c([H])c([H])c([H])c([H])c4OC([H])([H])C([H])([H])[H])c23)c1[H]


 32 35  0  0  0  0  0  0  0  0999 V2000
  -86.9344   28.7432   -0.2149 C   0  0  0  0  0  0  0  0  0  0  0  0
  -87.6961   27.6136   -0.1436 N   0  0  0  0  0  0  0  0  0  0  0  0
  -87.8199   26.8514    0.9413 C   0  0  0  0  0  0  0  0  0  0  0  0
  -88.6802   25.6341    0.9122 C   0  0  0  0  0  0  0  0  0  0  0  0
  -87.1464   27.2268    2.0351 N   0  0  0  0  0  0  0  0  0  0  0  0
  -86.3654   28.3476    2.0315 C   0  0  0  0  0  0  0  0  0  0  0  0
  -85.6080   28.9174    2.9854 N   0  0  0  0  0  0  0  0  0  0  0  0
  -85.0028   30.0225    2.5421 C   0  0  0  0  0  0  0  0  0  0  0  0
  -85.3924   30.1766    1.2217 C   0  0  0  0  0  0  0  0  0  0  0  0
  -86.2382   29.1376    0.9037 C   0  0  0  0  0  0  0  0  0  0  0  0
  -85.4789   28.5666    3.9792 H   0  0  0  0  0  0  0  0  0  0  0  0
  -84.9366   31.2636    0.4081 C   0  0  0  0  0  0  0  0  0  0  0  0
  -83.5930   31.5175    0.2262 C   0  0  0  0  0  0  0  0  0  0  0  0
  -83.2436   32.6109   -0.5365 C   0  0  0  0  0  0  0  0  0  0  0  0
  -84.1626   33.4030   -1.0847 N   0  0  0  0  0  0  0  0  0  0  0  0
  -85.5002   33.2038   -0.9408 C   0  0  0  0  0  0  0  0  0  0  0  0
  -86.4362   34.0704   -1.5410 N   0  0  0  0  0  0  0  0  0  0  0  0
  -85.8650   32.1139   -0.1805 C   0  0  0  0  0  0  0  0  0  0  0  0
  -86.4951   35.0512   -1.2320 H   0  0  0  0  0  0  0  0  0  0  0  0
  -87.0587   33.7243   -2.2852 H   0  0  0  0  0  0  0  0  0  0  0  0
  -86.8823   29.4992   -1.4104 N   0  0  0  0  0  0  0  0  0  0  0  0
  -86.3326   30.3302   -1.6165 H   0  0  0  0  0  0  0  0  0  0  0  0
  -87.7265   29.0389   -2.5044 C   0  0  0  0  0  0  0  0  0  0  0  0
  -89.1700   30.9804   -2.8358 C   0  0  0  0  0  0  0  0  0  0  0  0
  -90.4071   31.5726   -2.8782 C   0  0  0  0  0  0  0  0  0  0  0  0
  -91.5717   30.8604   -2.6069 C   0  0  0  0  0  0  0  0  0  0  0  0
  -91.4801   29.5401   -2.2912 C   0  0  0  0  0  0  0  0  0  0  0  0
  -90.2153   28.9426   -2.2499 C   0  0  0  0  0  0  0  0  0  0  0  0
  -89.0728   29.6444   -2.5163 C   0  0  0  0  0  0  0  0  0  0  0  0
  -88.0362   31.6922   -3.1041 O   0  0  0  0  0  0  0  0  0  0  0  0
  -88.0060   33.5776   -4.6561 C   0  0  0  0  0  0  0  0  0  0  0  0
  -87.5838   32.1821   -4.3229 C   0  0  0  0  0  0  0  0  0  0  0  0
 31 32  1  0  0  0
 32 30  1  0  0  0
 30 24  1  0  0  0
 24 25  2  0  0  0
 25 26  1  0  0  0
 26 27  2  0  0  0
 27 28  1  0  0  0
 28 29  2  0  0  0
 29 23  1  0  0  0
 23 21  1  0  0  0
 21  1  1  0  0  0
  1  2  2  0  0  0
  2  3  1  0  0  0
  3  4  1  0  0  0
  3  5  2  0  0  0
  5  6  1  0  0  0
  6  7  1  0  0  0
  7  8  1  0  0  0
  8  9  2  0  0  0
  9 12  1  0  0  0
 12 13  2  0  0  0
 13 14  1  0  0  0
 14 15  2  0  0  0
 15 16  1  0  0  0
 16 17  1  0  0  0
 16 18  2  0  0  0
  9 10  1  0  0  0
 29 24  1  0  0  0
 10  1  1  0  0  0
 10  6  2  0  0  0
 18 12  1  0  0  0
 21 22  1  0  0  0
  7 11  1  0  0  0
 17 19  1  0  0  0
 17 20  1  0  0  0
M  END
> <minimizedAffinity>
-7.82086

> <CNNscore>
0.3793634772

> <CNNaffinity>
6.9286322594

> <CNN_VS>
2.6284699440

> <CNNaffinity_variance>
0.2296112329

$$$$
[H]c1sc(-c2c([H])c([H])c3c(c2[H])C([H])([H])C([H])([H])O3)nc1C(=O)N([H])c1nc2c([H])c([H])c([H])c([H])c2n1[H]


 28 32  0  0  0  0  0  0  0  0999 V2000
  -87.5050   31.5373   -2.3003 O   0  0  0  0  0  0  0  0  0  0  0  0
  -87.1983   32.7108   -2.0037 C   0  0  0  0  0  0  0  0  0  0  0  0
  -86.2846   32.9986   -0.9843 N   0  0  0  0  0  0  0  0  0  0  0  0
  -86.0723   34.0289   -0.7881 H   0  0  0  0  0  0  0  0  0  0  0  0
  -85.6349   32.0110   -0.2091 C   0  0  0  0  0  0  0  0  0  0  0  0
  -84.2732   31.9575   -0.0266 N   0  0  0  0  0  0  0  0  0  0  0  0
  -83.9906   30.9142    0.7494 C   0  0  0  0  0  0  0  0  0  0  0  0
  -82.8045   30.3859    1.2528 C   0  0  0  0  0  0  0  0  0  0  0  0
  -82.8109   29.2669    2.0523 C   0  0  0  0  0  0  0  0  0  0  0  0
  -83.9813   28.6185    2.3920 C   0  0  0  0  0  0  0  0  0  0  0  0
  -85.1472   29.1470    1.8905 C   0  0  0  0  0  0  0  0  0  0  0  0
  -85.1503   30.2657    1.0901 C   0  0  0  0  0  0  0  0  0  0  0  0
  -86.1383   30.9797    0.4749 N   0  0  0  0  0  0  0  0  0  0  0  0
  -87.1325   30.6948    0.5733 H   0  0  0  0  0  0  0  0  0  0  0  0
  -87.8467   33.8055   -2.7819 C   0  0  0  0  0  0  0  0  0  0  0  0
  -89.1930   34.0590   -2.6612 C   0  0  0  0  0  0  0  0  0  0  0  0
  -89.3931   35.3700   -3.7380 S   0  0  0  0  0  0  0  0  0  0  0  0
  -87.7748   35.5108   -4.2663 C   0  0  0  0  0  0  0  0  0  0  0  0
  -87.1755   34.5570   -3.5969 N   0  0  0  0  0  0  0  0  0  0  0  0
  -87.1953   36.4740   -5.2404 C   0  0  0  0  0  0  0  0  0  0  0  0
  -87.6721   36.4233   -6.5270 C   0  0  0  0  0  0  0  0  0  0  0  0
  -87.2012   37.2708   -7.5007 C   0  0  0  0  0  0  0  0  0  0  0  0
  -86.2312   38.1885   -7.1758 C   0  0  0  0  0  0  0  0  0  0  0  0
  -85.5776   39.1597   -7.9498 O   0  0  0  0  0  0  0  0  0  0  0  0
  -84.3110   39.3813   -7.3284 C   0  0  0  0  0  0  0  0  0  0  0  0
  -84.7237   39.3245   -5.8537 C   0  0  0  0  0  0  0  0  0  0  0  0
  -85.7496   38.2386   -5.8730 C   0  0  0  0  0  0  0  0  0  0  0  0
  -86.2412   37.3696   -4.9005 C   0  0  0  0  0  0  0  0  0  0  0  0
  1  2  2  0  0  0
  2  3  1  0  0  0
  3  5  1  0  0  0
  5  6  2  0  0  0
  6  7  1  0  0  0
  7  8  2  0  0  0
  8  9  1  0  0  0
  9 10  2  0  0  0
 10 11  1  0  0  0
 11 12  2  0  0  0
 12 13  1  0  0  0
  2 15  1  0  0  0
 15 16  2  0  0  0
 16 17  1  0  0  0
 17 18  1  0  0  0
 18 19  2  0  0  0
 18 20  1  0  0  0
 20 21  2  0  0  0
 21 22  1  0  0  0
 22 23  2  0  0  0
 23 24  1  0  0  0
 24 25  1  0  0  0
 25 26  1  0  0  0
 26 27  1  0  0  0
 27 28  2  0  0  0
 13  5  1  0  0  0
 19 15  1  0  0  0
 28 20  1  0  0  0
 12  7  1  0  0  0
 27 23  1  0  0  0
  3  4  1  0  0  0
 13 14  1  0  0  0
M  END
> <minimizedAffinity>
-9.01269

> <CNNscore>
0.3908649087

> <CNNaffinity>
6.0922899246

> <CNN_VS>
2.3812623024

> <CNNaffinity_variance>
0.0995339677

$$$$
[H]c1sc(-c2c([H])c([H])c3c(c2[H])C([H])([H])C([H])([H])O3)nc1C(=O)N([H])c1nc2c([H])c([H])c([H])c([H])c2n1[H]


 28 32  0  0  0  0  0  0  0  0999 V2000
  -88.9232   35.2187   -2.9255 O   0  0  0  0  0  0  0  0  0  0  0  0
  -87.9172   34.4797   -2.9527 C   0  0  0  0  0  0  0  0  0  0  0  0
  -86.8592   34.7071   -3.8391 N   0  0  0  0  0  0  0  0  0  0  0  0
  -86.0310   34.0304   -3.8031 H   0  0  0  0  0  0  0  0  0  0  0  0
  -86.8277   35.7715   -4.7688 C   0  0  0  0  0  0  0  0  0  0  0  0
  -87.4700   35.7427   -5.9841 N   0  0  0  0  0  0  0  0  0  0  0  0
  -87.2407   36.8934   -6.6117 C   0  0  0  0  0  0  0  0  0  0  0  0
  -87.6310   37.4080   -7.8455 C   0  0  0  0  0  0  0  0  0  0  0  0
  -87.2348   38.6624   -8.2467 C   0  0  0  0  0  0  0  0  0  0  0  0
  -86.4387   39.4653   -7.4547 C   0  0  0  0  0  0  0  0  0  0  0  0
  -86.0583   38.9490   -6.2386 C   0  0  0  0  0  0  0  0  0  0  0  0
  -86.4498   37.6955   -5.8290 C   0  0  0  0  0  0  0  0  0  0  0  0
  -86.2210   36.9599   -4.7017 N   0  0  0  0  0  0  0  0  0  0  0  0
  -85.6381   37.3439   -3.9322 H   0  0  0  0  0  0  0  0  0  0  0  0
  -87.8827   33.3348   -1.9974 C   0  0  0  0  0  0  0  0  0  0  0  0
  -89.0350   32.6730   -1.6429 C   0  0  0  0  0  0  0  0  0  0  0  0
  -88.4346   31.4931   -0.5633 S   0  0  0  0  0  0  0  0  0  0  0  0
  -86.7795   31.9101   -0.6300 C   0  0  0  0  0  0  0  0  0  0  0  0
  -86.7762   32.9190   -1.4660 N   0  0  0  0  0  0  0  0  0  0  0  0
  -85.6336   31.2841    0.0825 C   0  0  0  0  0  0  0  0  0  0  0  0
  -84.3821   31.7752   -0.1963 C   0  0  0  0  0  0  0  0  0  0  0  0
  -83.2595   31.2644    0.4095 C   0  0  0  0  0  0  0  0  0  0  0  0
  -83.3964   30.2390    1.3142 C   0  0  0  0  0  0  0  0  0  0  0  0
  -82.4451   29.5366    2.0701 O   0  0  0  0  0  0  0  0  0  0  0  0
  -83.0128   28.2534    2.3357 C   0  0  0  0  0  0  0  0  0  0  0  0
  -84.4678   28.6548    2.5999 C   0  0  0  0  0  0  0  0  0  0  0  0
  -84.6639   29.7429    1.5953 C   0  0  0  0  0  0  0  0  0  0  0  0
  -85.7896   30.2757    0.9694 C   0  0  0  0  0  0  0  0  0  0  0  0
  1  2  2  0  0  0
  2  3  1  0  0  0
  3  5  1  0  0  0
  5  6  2  0  0  0
  6  7  1  0  0  0
  7  8  2  0  0  0
  8  9  1  0  0  0
  9 10  2  0  0  0
 10 11  1  0  0  0
 11 12  2  0  0  0
 12 13  1  0  0  0
  2 15  1  0  0  0
 15 16  2  0  0  0
 16 17  1  0  0  0
 17 18  1  0  0  0
 18 19  2  0  0  0
 18 20  1  0  0  0
 20 21  2  0  0  0
 21 22  1  0  0  0
 22 23  2  0  0  0
 23 24  1  0  0  0
 24 25  1  0  0  0
 25 26  1  0  0  0
 26 27  1  0  0  0
 27 28  2  0  0  0
 13  5  1  0  0  0
 19 15  1  0  0  0
 28 20  1  0  0  0
 12  7  1  0  0  0
 27 23  1  0  0  0
  3  4  1  0  0  0
 13 14  1  0  0  0
M  END
> <minimizedAffinity>
-9.32187

> <CNNscore>
0.2786914706

> <CNNaffinity>
5.8288335800

> <CNN_VS>
1.6244461536

> <CNNaffinity_variance>
0.1655373126

$$$$
[H]c1sc(-c2c([H])c([H])c3c(c2[H])C([H])([H])C([H])([H])O3)nc1C(=O)N([H])c1nc2c([H])c([H])c([H])c([H])c2n1[H]


 28 32  0  0  0  0  0  0  0  0999 V2000
  -88.5479   34.0866   -2.4763 O   0  0  0  0  0  0  0  0  0  0  0  0
  -87.3220   33.9137   -2.6387 C   0  0  0  0  0  0  0  0  0  0  0  0
  -86.6459   34.4277   -3.7503 N   0  0  0  0  0  0  0  0  0  0  0  0
  -85.5951   34.2381   -3.8199 H   0  0  0  0  0  0  0  0  0  0  0  0
  -87.2713   35.1756   -4.7740 C   0  0  0  0  0  0  0  0  0  0  0  0
  -86.7704   36.3550   -5.2723 N   0  0  0  0  0  0  0  0  0  0  0  0
  -87.5938   36.7984   -6.2189 C   0  0  0  0  0  0  0  0  0  0  0  0
  -87.5902   37.9185   -7.0464 C   0  0  0  0  0  0  0  0  0  0  0  0
  -88.5981   38.1283   -7.9583 C   0  0  0  0  0  0  0  0  0  0  0  0
  -89.6525   37.2482   -8.0971 C   0  0  0  0  0  0  0  0  0  0  0  0
  -89.6477   36.1454   -7.2761 C   0  0  0  0  0  0  0  0  0  0  0  0
  -88.6439   35.9275   -6.3612 C   0  0  0  0  0  0  0  0  0  0  0  0
  -88.4007   34.9418   -5.4482 N   0  0  0  0  0  0  0  0  0  0  0  0
  -89.0575   34.1430   -5.3489 H   0  0  0  0  0  0  0  0  0  0  0  0
  -86.5967   33.1324   -1.5957 C   0  0  0  0  0  0  0  0  0  0  0  0
  -85.4377   33.6106   -1.0304 C   0  0  0  0  0  0  0  0  0  0  0  0
  -85.0466   32.3574    0.0626 S   0  0  0  0  0  0  0  0  0  0  0  0
  -86.3630   31.3191   -0.2638 C   0  0  0  0  0  0  0  0  0  0  0  0
  -87.0235   31.9808   -1.1818 N   0  0  0  0  0  0  0  0  0  0  0  0
  -86.6775   29.9977    0.3427 C   0  0  0  0  0  0  0  0  0  0  0  0
  -85.6777   29.3854    1.0573 C   0  0  0  0  0  0  0  0  0  0  0  0
  -85.8686   28.1634    1.6560 C   0  0  0  0  0  0  0  0  0  0  0  0
  -87.0890   27.5433    1.5347 C   0  0  0  0  0  0  0  0  0  0  0  0
  -87.5589   26.3172    2.0301 O   0  0  0  0  0  0  0  0  0  0  0  0
  -88.5965   25.8980    1.1428 C   0  0  0  0  0  0  0  0  0  0  0  0
  -89.2756   27.2445    0.8713 C   0  0  0  0  0  0  0  0  0  0  0  0
  -88.1000   28.1644    0.8110 C   0  0  0  0  0  0  0  0  0  0  0  0
  -87.8851   29.4042    0.2116 C   0  0  0  0  0  0  0  0  0  0  0  0
  1  2  2  0  0  0
  2  3  1  0  0  0
  3  5  1  0  0  0
  5  6  2  0  0  0
  6  7  1  0  0  0
  7  8  2  0  0  0
  8  9  1  0  0  0
  9 10  2  0  0  0
 10 11  1  0  0  0
 11 12  2  0  0  0
 12 13  1  0  0  0
  2 15  1  0  0  0
 15 16  2  0  0  0
 16 17  1  0  0  0
 17 18  1  0  0  0
 18 19  2  0  0  0
 18 20  1  0  0  0
 20 21  2  0  0  0
 21 22  1  0  0  0
 22 23  2  0  0  0
 23 24  1  0  0  0
 24 25  1  0  0  0
 25 26  1  0  0  0
 26 27  1  0  0  0
 27 28  2  0  0  0
 13  5  1  0  0  0
 19 15  1  0  0  0
 28 20  1  0  0  0
 12  7  1  0  0  0
 27 23  1  0  0  0
  3  4  1  0  0  0
 13 14  1  0  0  0
M  END
> <minimizedAffinity>
-8.11523

> <CNNscore>
0.1896453053

> <CNNaffinity>
5.6747550964

> <CNN_VS>
1.0761907101

> <CNNaffinity_variance>
0.1507055163

$$$$
[H]c1sc(-c2c([H])c([H])c3c(c2[H])C([H])([H])C([H])([H])O3)nc1C(=O)N([H])c1nc2c([H])c([H])c([H])c([H])c2n1[H]


 28 32  0  0  0  0  0  0  0  0999 V2000
  -86.8143   32.3458   -3.1466 O   0  0  0  0  0  0  0  0  0  0  0  0
  -87.2335   33.2877   -2.4423 C   0  0  0  0  0  0  0  0  0  0  0  0
  -86.8393   33.4435   -1.1092 N   0  0  0  0  0  0  0  0  0  0  0  0
  -87.2411   34.2757   -0.5697 H   0  0  0  0  0  0  0  0  0  0  0  0
  -85.9484   32.5692   -0.4458 C   0  0  0  0  0  0  0  0  0  0  0  0
  -86.3391   31.4019    0.1668 N   0  0  0  0  0  0  0  0  0  0  0  0
  -85.2644   30.8191    0.6922 C   0  0  0  0  0  0  0  0  0  0  0  0
  -85.0654   29.6435    1.4117 C   0  0  0  0  0  0  0  0  0  0  0  0
  -83.8103   29.2798    1.8406 C   0  0  0  0  0  0  0  0  0  0  0  0
  -82.6971   30.0540    1.5821 C   0  0  0  0  0  0  0  0  0  0  0  0
  -82.9031   31.2127    0.8713 C   0  0  0  0  0  0  0  0  0  0  0  0
  -84.1547   31.5844    0.4383 C   0  0  0  0  0  0  0  0  0  0  0  0
  -84.6272   32.6540   -0.2667 N   0  0  0  0  0  0  0  0  0  0  0  0
  -83.9792   33.3994   -0.5889 H   0  0  0  0  0  0  0  0  0  0  0  0
  -88.1785   34.2504   -3.0784 C   0  0  0  0  0  0  0  0  0  0  0  0
  -87.9172   35.6007   -3.0841 C   0  0  0  0  0  0  0  0  0  0  0  0
  -89.2801   36.2104   -3.9141 S   0  0  0  0  0  0  0  0  0  0  0  0
  -90.0848   34.7305   -4.1974 C   0  0  0  0  0  0  0  0  0  0  0  0
  -89.2754   33.8593   -3.6472 N   0  0  0  0  0  0  0  0  0  0  0  0
  -91.3781   34.4939   -4.8932 C   0  0  0  0  0  0  0  0  0  0  0  0
  -92.2042   35.5778   -5.0601 C   0  0  0  0  0  0  0  0  0  0  0  0
  -93.4200   35.4630   -5.6901 C   0  0  0  0  0  0  0  0  0  0  0  0
  -93.8146   34.2342   -6.1623 C   0  0  0  0  0  0  0  0  0  0  0  0
  -94.9793   33.8290   -6.8322 O   0  0  0  0  0  0  0  0  0  0  0  0
  -95.1468   32.4410   -6.5405 C   0  0  0  0  0  0  0  0  0  0  0  0
  -93.6880   31.9765   -6.6069 C   0  0  0  0  0  0  0  0  0  0  0  0
  -92.9771   33.1380   -5.9925 C   0  0  0  0  0  0  0  0  0  0  0  0
  -91.7478   33.2765   -5.3505 C   0  0  0  0  0  0  0  0  0  0  0  0
  1  2  2  0  0  0
  2  3  1  0  0  0
  3  5  1  0  0  0
  5  6  2  0  0  0
  6  7  1  0  0  0
  7  8  2  0  0  0
  8  9  1  0  0  0
  9 10  2  0  0  0
 10 11  1  0  0  0
 11 12  2  0  0  0
 12 13  1  0  0  0
  2 15  1  0  0  0
 15 16  2  0  0  0
 16 17  1  0  0  0
 17 18  1  0  0  0
 18 19  2  0  0  0
 18 20  1  0  0  0
 20 21  2  0  0  0
 21 22  1  0  0  0
 22 23  2  0  0  0
 23 24  1  0  0  0
 24 25  1  0  0  0
 25 26  1  0  0  0
 26 27  1  0  0  0
 27 28  2  0  0  0
 13  5  1  0  0  0
 19 15  1  0  0  0
 28 20  1  0  0  0
 12  7  1  0  0  0
 27 23  1  0  0  0
  3  4  1  0  0  0
 13 14  1  0  0  0
M  END
> <minimizedAffinity>
-7.31786

> <CNNscore>
0.1806639731

> <CNNaffinity>
5.5184803009

> <CNN_VS>
0.9969905615

> <CNNaffinity_variance>
0.1709017903

$$$$
[H]c1sc(-c2c([H])c([H])c3c(c2[H])C([H])([H])C([H])([H])O3)nc1C(=O)N([H])c1nc2c([H])c([H])c([H])c([H])c2n1[H]


 28 32  0  0  0  0  0  0  0  0999 V2000
  -85.6410   33.6462   -0.4010 O   0  0  0  0  0  0  0  0  0  0  0  0
  -86.1674   32.6026   -0.8399 C   0  0  0  0  0  0  0  0  0  0  0  0
  -86.9833   32.6101   -1.9763 N   0  0  0  0  0  0  0  0  0  0  0  0
  -87.3988   31.6758   -2.2917 H   0  0  0  0  0  0  0  0  0  0  0  0
  -87.2837   33.7738   -2.7205 C   0  0  0  0  0  0  0  0  0  0  0  0
  -88.5035   34.4072   -2.6874 N   0  0  0  0  0  0  0  0  0  0  0  0
  -88.4546   35.4628   -3.4960 C   0  0  0  0  0  0  0  0  0  0  0  0
  -89.3762   36.4458   -3.8477 C   0  0  0  0  0  0  0  0  0  0  0  0
  -89.0429   37.4450   -4.7320 C   0  0  0  0  0  0  0  0  0  0  0  0
  -87.7912   37.5223   -5.3090 C   0  0  0  0  0  0  0  0  0  0  0  0
  -86.8880   36.5477   -4.9559 C   0  0  0  0  0  0  0  0  0  0  0  0
  -87.2126   35.5447   -4.0724 C   0  0  0  0  0  0  0  0  0  0  0  0
  -86.5251   34.4806   -3.5630 N   0  0  0  0  0  0  0  0  0  0  0  0
  -85.5397   34.3082   -3.8431 H   0  0  0  0  0  0  0  0  0  0  0  0
  -85.8932   31.3352   -0.1030 C   0  0  0  0  0  0  0  0  0  0  0  0
  -84.6859   31.1259    0.5215 C   0  0  0  0  0  0  0  0  0  0  0  0
  -84.9086   29.5677    1.1853 S   0  0  0  0  0  0  0  0  0  0  0  0
  -86.5005   29.2848    0.6344 C   0  0  0  0  0  0  0  0  0  0  0  0
  -86.7724   30.3866   -0.0208 N   0  0  0  0  0  0  0  0  0  0  0  0
  -87.3589   28.0887    0.8464 C   0  0  0  0  0  0  0  0  0  0  0  0
  -87.7552   27.3988   -0.2727 C   0  0  0  0  0  0  0  0  0  0  0  0
  -88.5489   26.2807   -0.1828 C   0  0  0  0  0  0  0  0  0  0  0  0
  -88.9532   25.8462    1.0567 C   0  0  0  0  0  0  0  0  0  0  0  0
  -89.7499   24.7572    1.4428 O   0  0  0  0  0  0  0  0  0  0  0  0
  -90.3370   25.1144    2.6946 C   0  0  0  0  0  0  0  0  0  0  0  0
  -89.1500   25.8259    3.3527 C   0  0  0  0  0  0  0  0  0  0  0  0
  -88.5512   26.5456    2.1885 C   0  0  0  0  0  0  0  0  0  0  0  0
  -87.7459   27.6775    2.0748 C   0  0  0  0  0  0  0  0  0  0  0  0
  1  2  2  0  0  0
  2  3  1  0  0  0
  3  5  1  0  0  0
  5  6  2  0  0  0
  6  7  1  0  0  0
  7  8  2  0  0  0
  8  9  1  0  0  0
  9 10  2  0  0  0
 10 11  1  0  0  0
 11 12  2  0  0  0
 12 13  1  0  0  0
  2 15  1  0  0  0
 15 16  2  0  0  0
 16 17  1  0  0  0
 17 18  1  0  0  0
 18 19  2  0  0  0
 18 20  1  0  0  0
 20 21  2  0  0  0
 21 22  1  0  0  0
 22 23  2  0  0  0
 23 24  1  0  0  0
 24 25  1  0  0  0
 25 26  1  0  0  0
 26 27  1  0  0  0
 27 28  2  0  0  0
 13  5  1  0  0  0
 19 15  1  0  0  0
 28 20  1  0  0  0
 12  7  1  0  0  0
 27 23  1  0  0  0
  3  4  1  0  0  0
 13 14  1  0  0  0
M  END
> <minimizedAffinity>
-8.08195

> <CNNscore>
0.1710732728

> <CNNaffinity>
6.0341682434

> <CNN_VS>
1.0322848558

> <CNNaffinity_variance>
0.2229717076

$$$$
[H]c1sc(-c2c([H])c([H])c3c(c2[H])C([H])([H])C([H])([H])O3)nc1C(=O)N([H])c1nc2c([H])c([H])c([H])c([H])c2n1[H]


 28 32  0  0  0  0  0  0  0  0999 V2000
  -89.1521   31.5853   -3.5581 O   0  0  0  0  0  0  0  0  0  0  0  0
  -88.6427   32.7167   -3.4194 C   0  0  0  0  0  0  0  0  0  0  0  0
  -89.0356   33.8036   -4.2076 N   0  0  0  0  0  0  0  0  0  0  0  0
  -88.5530   34.7421   -4.0299 H   0  0  0  0  0  0  0  0  0  0  0  0
  -90.0250   33.7276   -5.2143 C   0  0  0  0  0  0  0  0  0  0  0  0
  -89.8978   34.3069   -6.4547 N   0  0  0  0  0  0  0  0  0  0  0  0
  -90.9981   34.0490   -7.1573 C   0  0  0  0  0  0  0  0  0  0  0  0
  -91.4130   34.3772   -8.4455 C   0  0  0  0  0  0  0  0  0  0  0  0
  -92.6352   33.9645   -8.9223 C   0  0  0  0  0  0  0  0  0  0  0  0
  -93.5024   33.2124   -8.1556 C   0  0  0  0  0  0  0  0  0  0  0  0
  -93.0844   32.8932   -6.8853 C   0  0  0  0  0  0  0  0  0  0  0  0
  -91.8638   33.3016   -6.4001 C   0  0  0  0  0  0  0  0  0  0  0  0
  -91.2191   33.1285   -5.2089 N   0  0  0  0  0  0  0  0  0  0  0  0
  -91.6656   32.5870   -4.4430 H   0  0  0  0  0  0  0  0  0  0  0  0
  -87.5902   32.8703   -2.3738 C   0  0  0  0  0  0  0  0  0  0  0  0
  -86.9192   34.0600   -2.2135 C   0  0  0  0  0  0  0  0  0  0  0  0
  -85.8648   33.6878   -0.9221 S   0  0  0  0  0  0  0  0  0  0  0  0
  -86.3372   32.0656   -0.6712 C   0  0  0  0  0  0  0  0  0  0  0  0
  -87.2665   31.8986   -1.5798 N   0  0  0  0  0  0  0  0  0  0  0  0
  -85.8219   31.0911    0.3275 C   0  0  0  0  0  0  0  0  0  0  0  0
  -84.8846   31.5491    1.2202 C   0  0  0  0  0  0  0  0  0  0  0  0
  -84.3472   30.7272    2.1812 C   0  0  0  0  0  0  0  0  0  0  0  0
  -84.7594   29.4179    2.2474 C   0  0  0  0  0  0  0  0  0  0  0  0
  -84.3898   28.3721    3.1072 O   0  0  0  0  0  0  0  0  0  0  0  0
  -84.6213   27.1607    2.3871 C   0  0  0  0  0  0  0  0  0  0  0  0
  -85.9328   27.5175    1.6793 C   0  0  0  0  0  0  0  0  0  0  0  0
  -85.7082   28.9557    1.3430 C   0  0  0  0  0  0  0  0  0  0  0  0
  -86.2406   29.8065    0.3759 C   0  0  0  0  0  0  0  0  0  0  0  0
  1  2  2  0  0  0
  2  3  1  0  0  0
  3  5  1  0  0  0
  5  6  2  0  0  0
  6  7  1  0  0  0
  7  8  2  0  0  0
  8  9  1  0  0  0
  9 10  2  0  0  0
 10 11  1  0  0  0
 11 12  2  0  0  0
 12 13  1  0  0  0
  2 15  1  0  0  0
 15 16  2  0  0  0
 16 17  1  0  0  0
 17 18  1  0  0  0
 18 19  2  0  0  0
 18 20  1  0  0  0
 20 21  2  0  0  0
 21 22  1  0  0  0
 22 23  2  0  0  0
 23 24  1  0  0  0
 24 25  1  0  0  0
 25 26  1  0  0  0
 26 27  1  0  0  0
 27 28  2  0  0  0
 13  5  1  0  0  0
 19 15  1  0  0  0
 28 20  1  0  0  0
 12  7  1  0  0  0
 27 23  1  0  0  0
  3  4  1  0  0  0
 13 14  1  0  0  0
M  END
> <minimizedAffinity>
-7.83099

> <CNNscore>
0.1191165373

> <CNNaffinity>
5.7717847824

> <CNN_VS>
0.6875150204

> <CNNaffinity_variance>
0.1596667469

$$$$
[H]c1sc(-c2c([H])c([H])c3c(c2[H])C([H])([H])C([H])([H])O3)nc1C(=O)N([H])c1nc2c([H])c([H])c([H])c([H])c2n1[H]


 28 32  0  0  0  0  0  0  0  0999 V2000
  -87.8838   30.1796   -3.1315 O   0  0  0  0  0  0  0  0  0  0  0  0
  -88.5196   31.1155   -2.6036 C   0  0  0  0  0  0  0  0  0  0  0  0
  -88.1227   31.6830   -1.3882 N   0  0  0  0  0  0  0  0  0  0  0  0
  -88.7185   32.4818   -0.9985 H   0  0  0  0  0  0  0  0  0  0  0  0
  -86.9889   31.2610   -0.6569 C   0  0  0  0  0  0  0  0  0  0  0  0
  -85.9082   32.0684   -0.3912 N   0  0  0  0  0  0  0  0  0  0  0  0
  -85.0207   31.3700    0.3125 C   0  0  0  0  0  0  0  0  0  0  0  0
  -83.7698   31.6692    0.8466 C   0  0  0  0  0  0  0  0  0  0  0  0
  -83.0558   30.7265    1.5485 C   0  0  0  0  0  0  0  0  0  0  0  0
  -83.5385   29.4500    1.7564 C   0  0  0  0  0  0  0  0  0  0  0  0
  -84.7740   29.1637    1.2255 C   0  0  0  0  0  0  0  0  0  0  0  0
  -85.4952   30.1002    0.5221 C   0  0  0  0  0  0  0  0  0  0  0  0
  -86.7131   30.0808   -0.0948 N   0  0  0  0  0  0  0  0  0  0  0  0
  -87.2940   29.2196   -0.0853 H   0  0  0  0  0  0  0  0  0  0  0  0
  -89.7291   31.6122   -3.3213 C   0  0  0  0  0  0  0  0  0  0  0  0
  -90.9849   31.1597   -2.9902 C   0  0  0  0  0  0  0  0  0  0  0  0
  -91.9631   32.0278   -4.0892 S   0  0  0  0  0  0  0  0  0  0  0  0
  -90.7305   32.8990   -4.8891 C   0  0  0  0  0  0  0  0  0  0  0  0
  -89.6487   32.4826   -4.2781 N   0  0  0  0  0  0  0  0  0  0  0  0
  -90.8566   33.8815   -5.9987 C   0  0  0  0  0  0  0  0  0  0  0  0
  -89.8290   34.7780   -6.1580 C   0  0  0  0  0  0  0  0  0  0  0  0
  -89.8508   35.7251   -7.1534 C   0  0  0  0  0  0  0  0  0  0  0  0
  -90.9271   35.7730   -8.0066 C   0  0  0  0  0  0  0  0  0  0  0  0
  -91.2129   36.6161   -9.0916 O   0  0  0  0  0  0  0  0  0  0  0  0
  -92.6358   36.6480   -9.2099 C   0  0  0  0  0  0  0  0  0  0  0  0
  -92.9612   35.1803   -8.9131 C   0  0  0  0  0  0  0  0  0  0  0  0
  -91.9665   34.8648   -7.8441 C   0  0  0  0  0  0  0  0  0  0  0  0
  -91.9242   33.9120   -6.8276 C   0  0  0  0  0  0  0  0  0  0  0  0
  1  2  2  0  0  0
  2  3  1  0  0  0
  3  5  1  0  0  0
  5  6  2  0  0  0
  6  7  1  0  0  0
  7  8  2  0  0  0
  8  9  1  0  0  0
  9 10  2  0  0  0
 10 11  1  0  0  0
 11 12  2  0  0  0
 12 13  1  0  0  0
  2 15  1  0  0  0
 15 16  2  0  0  0
 16 17  1  0  0  0
 17 18  1  0  0  0
 18 19  2  0  0  0
 18 20  1  0  0  0
 20 21  2  0  0  0
 21 22  1  0  0  0
 22 23  2  0  0  0
 23 24  1  0  0  0
 24 25  1  0  0  0
 25 26  1  0  0  0
 26 27  1  0  0  0
 27 28  2  0  0  0
 13  5  1  0  0  0
 19 15  1  0  0  0
 28 20  1  0  0  0
 12  7  1  0  0  0
 27 23  1  0  0  0
  3  4  1  0  0  0
 13 14  1  0  0  0
M  END
> <minimizedAffinity>
-7.38786

> <CNNscore>
0.0775062740

> <CNNaffinity>
5.1985316277

> <CNN_VS>
0.4029188156

> <CNNaffinity_variance>
0.2203772962

$$$$
[H]c1sc(-c2c([H])c([H])c3c(c2[H])C([H])([H])C([H])([H])O3)nc1C(=O)N([H])c1nc2c([H])c([H])c([H])c([H])c2n1[H]


 28 32  0  0  0  0  0  0  0  0999 V2000
  -87.8239   30.6306   -4.9755 O   0  0  0  0  0  0  0  0  0  0  0  0
  -88.1391   30.8895   -3.7955 C   0  0  0  0  0  0  0  0  0  0  0  0
  -88.4429   32.1910   -3.3822 N   0  0  0  0  0  0  0  0  0  0  0  0
  -88.7044   32.3342   -2.3545 H   0  0  0  0  0  0  0  0  0  0  0  0
  -88.4226   33.3134   -4.2414 C   0  0  0  0  0  0  0  0  0  0  0  0
  -89.4666   33.6632   -5.0648 N   0  0  0  0  0  0  0  0  0  0  0  0
  -89.1271   34.7608   -5.7360 C   0  0  0  0  0  0  0  0  0  0  0  0
  -89.7770   35.5439   -6.6868 C   0  0  0  0  0  0  0  0  0  0  0  0
  -89.1690   36.6537   -7.2254 C   0  0  0  0  0  0  0  0  0  0  0  0
  -87.8975   37.0425   -6.8543 C   0  0  0  0  0  0  0  0  0  0  0  0
  -87.2636   36.2635   -5.9153 C   0  0  0  0  0  0  0  0  0  0  0  0
  -87.8640   35.1519   -5.3712 C   0  0  0  0  0  0  0  0  0  0  0  0
  -87.4703   34.2277   -4.4465 N   0  0  0  0  0  0  0  0  0  0  0  0
  -86.5335   34.2939   -4.0024 H   0  0  0  0  0  0  0  0  0  0  0  0
  -88.1810   29.7514   -2.8325 C   0  0  0  0  0  0  0  0  0  0  0  0
  -87.3905   29.7462   -1.7071 C   0  0  0  0  0  0  0  0  0  0  0  0
  -87.8262   28.2588   -0.9887 S   0  0  0  0  0  0  0  0  0  0  0  0
  -88.9700   27.7448   -2.1486 C   0  0  0  0  0  0  0  0  0  0  0  0
  -88.9566   28.7289   -3.0136 N   0  0  0  0  0  0  0  0  0  0  0  0
  -89.7762   26.4949   -2.1688 C   0  0  0  0  0  0  0  0  0  0  0  0
  -89.2801   25.4212   -1.4715 C   0  0  0  0  0  0  0  0  0  0  0  0
  -89.9499   24.2221   -1.4285 C   0  0  0  0  0  0  0  0  0  0  0  0
  -91.1426   24.0985   -2.0998 C   0  0  0  0  0  0  0  0  0  0  0  0
  -92.0260   23.0156   -2.2285 O   0  0  0  0  0  0  0  0  0  0  0  0
  -92.7234   23.2116   -3.4592 C   0  0  0  0  0  0  0  0  0  0  0  0
  -92.9309   24.7291   -3.4095 C   0  0  0  0  0  0  0  0  0  0  0  0
  -91.6434   25.1863   -2.8053 C   0  0  0  0  0  0  0  0  0  0  0  0
  -90.9478   26.3937   -2.8357 C   0  0  0  0  0  0  0  0  0  0  0  0
  1  2  2  0  0  0
  2  3  1  0  0  0
  3  5  1  0  0  0
  5  6  2  0  0  0
  6  7  1  0  0  0
  7  8  2  0  0  0
  8  9  1  0  0  0
  9 10  2  0  0  0
 10 11  1  0  0  0
 11 12  2  0  0  0
 12 13  1  0  0  0
  2 15  1  0  0  0
 15 16  2  0  0  0
 16 17  1  0  0  0
 17 18  1  0  0  0
 18 19  2  0  0  0
 18 20  1  0  0  0
 20 21  2  0  0  0
 21 22  1  0  0  0
 22 23  2  0  0  0
 23 24  1  0  0  0
 24 25  1  0  0  0
 25 26  1  0  0  0
 26 27  1  0  0  0
 27 28  2  0  0  0
 13  5  1  0  0  0
 19 15  1  0  0  0
 28 20  1  0  0  0
 12  7  1  0  0  0
 27 23  1  0  0  0
  3  4  1  0  0  0
 13 14  1  0  0  0
M  END
> <minimizedAffinity>
-7.68277

> <CNNscore>
0.0759548619

> <CNNaffinity>
5.0809645653

> <CNN_VS>
0.3859239519

> <CNNaffinity_variance>
0.1620135009

$$$$
[H]c1sc(-c2c([H])c([H])c3c(c2[H])C([H])([H])C([H])([H])O3)nc1C(=O)N([H])c1nc2c([H])c([H])c([H])c([H])c2n1[H]


 28 32  0  0  0  0  0  0  0  0999 V2000
  -86.2152   26.9039    2.3020 O   0  0  0  0  0  0  0  0  0  0  0  0
  -87.2870   27.2196    1.7448 C   0  0  0  0  0  0  0  0  0  0  0  0
  -87.4119   28.3974    1.0004 N   0  0  0  0  0  0  0  0  0  0  0  0
  -88.3624   28.5997    0.5524 H   0  0  0  0  0  0  0  0  0  0  0  0
  -86.3603   29.3230    0.8115 C   0  0  0  0  0  0  0  0  0  0  0  0
  -85.0472   29.0604    1.1231 N   0  0  0  0  0  0  0  0  0  0  0  0
  -84.3186   30.1334    0.8257 C   0  0  0  0  0  0  0  0  0  0  0  0
  -82.9620   30.4307    0.9282 C   0  0  0  0  0  0  0  0  0  0  0  0
  -82.4736   31.6545    0.5341 C   0  0  0  0  0  0  0  0  0  0  0  0
  -83.2955   32.6387    0.0228 C   0  0  0  0  0  0  0  0  0  0  0  0
  -84.6331   32.3363   -0.0746 C   0  0  0  0  0  0  0  0  0  0  0  0
  -85.1304   31.1151    0.3170 C   0  0  0  0  0  0  0  0  0  0  0  0
  -86.3814   30.5681    0.3277 N   0  0  0  0  0  0  0  0  0  0  0  0
  -87.1970   31.1138   -0.0134 H   0  0  0  0  0  0  0  0  0  0  0  0
  -88.4409   26.2877    1.9021 C   0  0  0  0  0  0  0  0  0  0  0  0
  -88.9795   26.0300    3.1410 C   0  0  0  0  0  0  0  0  0  0  0  0
  -90.2304   24.9343    2.7501 S   0  0  0  0  0  0  0  0  0  0  0  0
  -89.9928   24.8740    1.0596 C   0  0  0  0  0  0  0  0  0  0  0  0
  -88.9796   25.6871    0.8879 N   0  0  0  0  0  0  0  0  0  0  0  0
  -90.7471   24.0943    0.0420 C   0  0  0  0  0  0  0  0  0  0  0  0
  -90.5692   24.4478   -1.2727 C   0  0  0  0  0  0  0  0  0  0  0  0
  -91.2207   23.7891   -2.2874 C   0  0  0  0  0  0  0  0  0  0  0  0
  -92.0687   22.7535   -1.9755 C   0  0  0  0  0  0  0  0  0  0  0  0
  -92.8506   21.9187   -2.7887 O   0  0  0  0  0  0  0  0  0  0  0  0
  -93.9411   21.4779   -1.9788 C   0  0  0  0  0  0  0  0  0  0  0  0
  -93.2132   21.2568   -0.6486 C   0  0  0  0  0  0  0  0  0  0  0  0
  -92.2477   22.3968   -0.6442 C   0  0  0  0  0  0  0  0  0  0  0  0
  -91.5768   23.0784    0.3697 C   0  0  0  0  0  0  0  0  0  0  0  0
  1  2  2  0  0  0
  2  3  1  0  0  0
  3  5  1  0  0  0
  5  6  2  0  0  0
  6  7  1  0  0  0
  7  8  2  0  0  0
  8  9  1  0  0  0
  9 10  2  0  0  0
 10 11  1  0  0  0
 11 12  2  0  0  0
 12 13  1  0  0  0
  2 15  1  0  0  0
 15 16  2  0  0  0
 16 17  1  0  0  0
 17 18  1  0  0  0
 18 19  2  0  0  0
 18 20  1  0  0  0
 20 21  2  0  0  0
 21 22  1  0  0  0
 22 23  2  0  0  0
 23 24  1  0  0  0
 24 25  1  0  0  0
 25 26  1  0  0  0
 26 27  1  0  0  0
 27 28  2  0  0  0
 13  5  1  0  0  0
 19 15  1  0  0  0
 28 20  1  0  0  0
 12  7  1  0  0  0
 27 23  1  0  0  0
  3  4  1  0  0  0
 13 14  1  0  0  0
M  END
> <minimizedAffinity>
-8.15307

> <CNNscore>
0.0579566248

> <CNNaffinity>
5.4381666183

> <CNN_VS>
0.3151777685

> <CNNaffinity_variance>
0.3522923589

$$$$
[H]Oc1c([H])c([H])c(-c2c([H])n([H])c3nc([H])c(-c4c([H])c([H])c(N([H])[H])c([H])c4[H])c([H])c23)c([H])c1[H]


 27 30  0  0  0  0  0  0  0  0999 V2000
  -87.7941   31.7966   -1.0208 C   0  0  0  0  0  0  0  0  0  0  0  0
  -87.5593   33.0141   -1.6233 C   0  0  0  0  0  0  0  0  0  0  0  0
  -86.3751   33.6472   -1.5375 N   0  0  0  0  0  0  0  0  0  0  0  0
  -85.3251   33.1437   -0.8575 C   0  0  0  0  0  0  0  0  0  0  0  0
  -84.0647   33.5589   -0.6177 N   0  0  0  0  0  0  0  0  0  0  0  0
  -83.4072   32.6669    0.1363 C   0  0  0  0  0  0  0  0  0  0  0  0
  -84.3115   31.6296    0.3836 C   0  0  0  0  0  0  0  0  0  0  0  0
  -85.5044   31.9190   -0.2303 C   0  0  0  0  0  0  0  0  0  0  0  0
  -86.7119   31.2617   -0.3110 C   0  0  0  0  0  0  0  0  0  0  0  0
  -83.6484   34.4400   -0.9609 H   0  0  0  0  0  0  0  0  0  0  0  0
  -92.6662   28.9517   -1.1547 N   0  0  0  0  0  0  0  0  0  0  0  0
  -91.4479   29.6776   -1.1390 C   0  0  0  0  0  0  0  0  0  0  0  0
  -90.5290   29.4114   -0.1503 C   0  0  0  0  0  0  0  0  0  0  0  0
  -89.3445   30.1294   -0.1495 C   0  0  0  0  0  0  0  0  0  0  0  0
  -89.0637   31.0881   -1.0957 C   0  0  0  0  0  0  0  0  0  0  0  0
  -90.0183   31.3159   -2.0643 C   0  0  0  0  0  0  0  0  0  0  0  0
  -91.2084   30.6395   -2.1188 C   0  0  0  0  0  0  0  0  0  0  0  0
  -92.7487   27.9507   -1.4402 H   0  0  0  0  0  0  0  0  0  0  0  0
  -93.5270   29.4518   -0.8632 H   0  0  0  0  0  0  0  0  0  0  0  0
  -84.0586   30.4213    1.1567 C   0  0  0  0  0  0  0  0  0  0  0  0
  -82.7646   29.9864    1.3806 C   0  0  0  0  0  0  0  0  0  0  0  0
  -82.4950   28.8325    2.1124 C   0  0  0  0  0  0  0  0  0  0  0  0
  -83.5230   28.0826    2.6405 C   0  0  0  0  0  0  0  0  0  0  0  0
  -83.2931   26.9197    3.3800 O   0  0  0  0  0  0  0  0  0  0  0  0
  -84.8155   28.5106    2.4209 C   0  0  0  0  0  0  0  0  0  0  0  0
  -85.0837   29.6702    1.6853 C   0  0  0  0  0  0  0  0  0  0  0  0
  -83.2384   26.0056    2.9218 H   0  0  0  0  0  0  0  0  0  0  0  0
 11 12  1  0  0  0
 12 13  2  0  0  0
 13 14  1  0  0  0
 14 15  2  0  0  0
 15 16  1  0  0  0
 16 17  2  0  0  0
 15  1  1  0  0  0
  1  2  2  0  0  0
  2  3  1  0  0  0
  3  4  2  0  0  0
  4  5  1  0  0  0
  5  6  1  0  0  0
  6  7  2  0  0  0
  7 20  1  0  0  0
 20 21  2  0  0  0
 21 22  1  0  0  0
 22 23  2  0  0  0
 23 24  1  0  0  0
 23 25  1  0  0  0
 25 26  2  0  0  0
  7  8  1  0  0  0
  8  9  2  0  0  0
 17 12  1  0  0  0
  9  1  1  0  0  0
  8  4  1  0  0  0
 26 20  1  0  0  0
 11 18  1  0  0  0
 11 19  1  0  0  0
  5 10  1  0  0  0
 24 27  1  0  0  0
M  END
> <minimizedAffinity>
-10.51743

> <CNNscore>
0.8623754978

> <CNNaffinity>
6.7715086937

> <CNN_VS>
5.8395833969

> <CNNaffinity_variance>
0.2444535494

$$$$
[H]Oc1c([H])c([H])c(-c2c([H])n([H])c3nc([H])c(-c4c([H])c([H])c(N([H])[H])c([H])c4[H])c([H])c23)c([H])c1[H]


 27 30  0  0  0  0  0  0  0  0999 V2000
  -85.6898   32.7928   -0.8791 C   0  0  0  0  0  0  0  0  0  0  0  0
  -84.4847   33.4537   -0.7727 C   0  0  0  0  0  0  0  0  0  0  0  0
  -83.4334   32.9388   -0.1093 N   0  0  0  0  0  0  0  0  0  0  0  0
  -83.4730   31.7381    0.5032 C   0  0  0  0  0  0  0  0  0  0  0  0
  -82.5910   31.0091    1.2167 N   0  0  0  0  0  0  0  0  0  0  0  0
  -83.1426   29.8541    1.6144 C   0  0  0  0  0  0  0  0  0  0  0  0
  -84.4502   29.8605    1.1194 C   0  0  0  0  0  0  0  0  0  0  0  0
  -84.6623   31.0273    0.4286 C   0  0  0  0  0  0  0  0  0  0  0  0
  -85.7451   31.5442   -0.2475 C   0  0  0  0  0  0  0  0  0  0  0  0
  -81.6205   31.2883    1.4350 H   0  0  0  0  0  0  0  0  0  0  0  0
  -90.2766   34.7327   -3.5336 N   0  0  0  0  0  0  0  0  0  0  0  0
  -89.1115   34.2591   -2.8781 C   0  0  0  0  0  0  0  0  0  0  0  0
  -89.2379   33.2661   -1.9342 C   0  0  0  0  0  0  0  0  0  0  0  0
  -88.0902   32.8151   -1.3036 C   0  0  0  0  0  0  0  0  0  0  0  0
  -86.8442   33.3240   -1.5894 C   0  0  0  0  0  0  0  0  0  0  0  0
  -86.7731   34.3176   -2.5430 C   0  0  0  0  0  0  0  0  0  0  0  0
  -87.8708   34.8058   -3.2012 C   0  0  0  0  0  0  0  0  0  0  0  0
  -90.7974   34.1977   -4.2634 H   0  0  0  0  0  0  0  0  0  0  0  0
  -90.6295   35.6712   -3.2673 H   0  0  0  0  0  0  0  0  0  0  0  0
  -85.4481   28.8125    1.2857 C   0  0  0  0  0  0  0  0  0  0  0  0
  -85.1227   27.6235    1.9133 C   0  0  0  0  0  0  0  0  0  0  0  0
  -86.0561   26.6036    2.0815 C   0  0  0  0  0  0  0  0  0  0  0  0
  -87.3462   26.7528    1.6214 C   0  0  0  0  0  0  0  0  0  0  0  0
  -88.3108   25.7532    1.7713 O   0  0  0  0  0  0  0  0  0  0  0  0
  -87.6772   27.9358    0.9947 C   0  0  0  0  0  0  0  0  0  0  0  0
  -86.7375   28.9589    0.8270 C   0  0  0  0  0  0  0  0  0  0  0  0
  -88.4390   25.0326    1.0551 H   0  0  0  0  0  0  0  0  0  0  0  0
 11 12  1  0  0  0
 12 13  2  0  0  0
 13 14  1  0  0  0
 14 15  2  0  0  0
 15 16  1  0  0  0
 16 17  2  0  0  0
 15  1  1  0  0  0
  1  2  2  0  0  0
  2  3  1  0  0  0
  3  4  2  0  0  0
  4  5  1  0  0  0
  5  6  1  0  0  0
  6  7  2  0  0  0
  7 20  1  0  0  0
 20 21  2  0  0  0
 21 22  1  0  0  0
 22 23  2  0  0  0
 23 24  1  0  0  0
 23 25  1  0  0  0
 25 26  2  0  0  0
  7  8  1  0  0  0
  8  9  2  0  0  0
 17 12  1  0  0  0
  9  1  1  0  0  0
  8  4  1  0  0  0
 26 20  1  0  0  0
 11 18  1  0  0  0
 11 19  1  0  0  0
  5 10  1  0  0  0
 24 27  1  0  0  0
M  END
> <minimizedAffinity>
-9.77767

> <CNNscore>
0.8437610865

> <CNNaffinity>
6.5281701088

> <CNN_VS>
5.5082159042

> <CNNaffinity_variance>
0.0893959999

$$$$
[H]Oc1c([H])c([H])c(-c2c([H])n([H])c3nc([H])c(-c4c([H])c([H])c(N([H])[H])c([H])c4[H])c([H])c23)c([H])c1[H]


 27 30  0  0  0  0  0  0  0  0999 V2000
  -87.6885   27.6391    0.9113 C   0  0  0  0  0  0  0  0  0  0  0  0
  -87.3267   26.5367    1.6557 C   0  0  0  0  0  0  0  0  0  0  0  0
  -86.1184   26.4209    2.2364 N   0  0  0  0  0  0  0  0  0  0  0  0
  -85.1664   27.3708    2.1379 C   0  0  0  0  0  0  0  0  0  0  0  0
  -83.9085   27.5035    2.6053 N   0  0  0  0  0  0  0  0  0  0  0  0
  -83.3765   28.6685    2.2104 C   0  0  0  0  0  0  0  0  0  0  0  0
  -84.3618   29.3043    1.4490 C   0  0  0  0  0  0  0  0  0  0  0  0
  -85.4759   28.5042    1.3996 C   0  0  0  0  0  0  0  0  0  0  0  0
  -86.7092   28.6339    0.8006 C   0  0  0  0  0  0  0  0  0  0  0  0
  -83.4099   26.8117    3.1888 H   0  0  0  0  0  0  0  0  0  0  0  0
  -92.7636   28.3739   -1.4450 N   0  0  0  0  0  0  0  0  0  0  0  0
  -91.4839   28.1734   -0.8674 C   0  0  0  0  0  0  0  0  0  0  0  0
  -91.1118   28.9475    0.2075 C   0  0  0  0  0  0  0  0  0  0  0  0
  -89.8589   28.7387    0.7596 C   0  0  0  0  0  0  0  0  0  0  0  0
  -88.9871   27.7927    0.2714 C   0  0  0  0  0  0  0  0  0  0  0  0
  -89.4091   27.0440   -0.8069 C   0  0  0  0  0  0  0  0  0  0  0  0
  -90.6352   27.2029   -1.3969 C   0  0  0  0  0  0  0  0  0  0  0  0
  -93.6603   28.0727   -1.0030 H   0  0  0  0  0  0  0  0  0  0  0  0
  -92.8055   28.8506   -2.3655 H   0  0  0  0  0  0  0  0  0  0  0  0
  -84.2578   30.6067    0.8051 C   0  0  0  0  0  0  0  0  0  0  0  0
  -83.0256   31.1088    0.4268 C   0  0  0  0  0  0  0  0  0  0  0  0
  -82.8975   32.3528   -0.1864 C   0  0  0  0  0  0  0  0  0  0  0  0
  -84.0090   33.1275   -0.4363 C   0  0  0  0  0  0  0  0  0  0  0  0
  -83.9214   34.3800   -1.0493 O   0  0  0  0  0  0  0  0  0  0  0  0
  -85.2405   32.6328   -0.0615 C   0  0  0  0  0  0  0  0  0  0  0  0
  -85.3665   31.3828    0.5544 C   0  0  0  0  0  0  0  0  0  0  0  0
  -83.8012   35.2317   -0.4937 H   0  0  0  0  0  0  0  0  0  0  0  0
 11 12  1  0  0  0
 12 13  2  0  0  0
 13 14  1  0  0  0
 14 15  2  0  0  0
 15 16  1  0  0  0
 16 17  2  0  0  0
 15  1  1  0  0  0
  1  2  2  0  0  0
  2  3  1  0  0  0
  3  4  2  0  0  0
  4  5  1  0  0  0
  5  6  1  0  0  0
  6  7  2  0  0  0
  7 20  1  0  0  0
 20 21  2  0  0  0
 21 22  1  0  0  0
 22 23  2  0  0  0
 23 24  1  0  0  0
 23 25  1  0  0  0
 25 26  2  0  0  0
  7  8  1  0  0  0
  8  9  2  0  0  0
 17 12  1  0  0  0
  9  1  1  0  0  0
  8  4  1  0  0  0
 26 20  1  0  0  0
 11 18  1  0  0  0
 11 19  1  0  0  0
  5 10  1  0  0  0
 24 27  1  0  0  0
M  END
> <minimizedAffinity>
-9.12152

> <CNNscore>
0.5330371261

> <CNNaffinity>
6.2430210114

> <CNN_VS>
3.3277618885

> <CNNaffinity_variance>
0.1018082872

$$$$
[H]Oc1c([H])c([H])c(-c2c([H])n([H])c3nc([H])c(-c4c([H])c([H])c(N([H])[H])c([H])c4[H])c([H])c23)c([H])c1[H]


 27 30  0  0  0  0  0  0  0  0999 V2000
  -85.2570   31.3293    0.2081 C   0  0  0  0  0  0  0  0  0  0  0  0
  -84.6594   32.5177   -0.1538 C   0  0  0  0  0  0  0  0  0  0  0  0
  -85.3057   33.4692   -0.8519 N   0  0  0  0  0  0  0  0  0  0  0  0
  -86.5865   33.3383   -1.2528 C   0  0  0  0  0  0  0  0  0  0  0  0
  -87.4468   34.1131   -1.9442 N   0  0  0  0  0  0  0  0  0  0  0  0
  -88.6323   33.5024   -2.0780 C   0  0  0  0  0  0  0  0  0  0  0  0
  -88.5066   32.2696   -1.4305 C   0  0  0  0  0  0  0  0  0  0  0  0
  -87.2389   32.1608   -0.9160 C   0  0  0  0  0  0  0  0  0  0  0  0
  -86.5876   31.1797   -0.2019 C   0  0  0  0  0  0  0  0  0  0  0  0
  -87.2363   35.0504   -2.3246 H   0  0  0  0  0  0  0  0  0  0  0  0
  -82.8150   27.1775    3.1486 N   0  0  0  0  0  0  0  0  0  0  0  0
  -83.4093   28.2309    2.4080 C   0  0  0  0  0  0  0  0  0  0  0  0
  -84.7601   28.1826    2.1516 C   0  0  0  0  0  0  0  0  0  0  0  0
  -85.3244   29.2193    1.4270 C   0  0  0  0  0  0  0  0  0  0  0  0
  -84.5839   30.2818    0.9623 C   0  0  0  0  0  0  0  0  0  0  0  0
  -83.2346   30.2815    1.2468 C   0  0  0  0  0  0  0  0  0  0  0  0
  -82.6179   29.2863    1.9580 C   0  0  0  0  0  0  0  0  0  0  0  0
  -82.9374   27.0416    4.1766 H   0  0  0  0  0  0  0  0  0  0  0  0
  -82.2218   26.5018    2.6312 H   0  0  0  0  0  0  0  0  0  0  0  0
  -89.5358   31.2474   -1.2992 C   0  0  0  0  0  0  0  0  0  0  0  0
  -90.3937   30.9728   -2.3491 C   0  0  0  0  0  0  0  0  0  0  0  0
  -91.3892   30.0039   -2.2487 C   0  0  0  0  0  0  0  0  0  0  0  0
  -91.5489   29.2827   -1.0857 C   0  0  0  0  0  0  0  0  0  0  0  0
  -92.5351   28.3029   -0.9464 O   0  0  0  0  0  0  0  0  0  0  0  0
  -90.6970   29.5515   -0.0351 C   0  0  0  0  0  0  0  0  0  0  0  0
  -89.6977   30.5255   -0.1386 C   0  0  0  0  0  0  0  0  0  0  0  0
  -93.4673   28.5393   -0.5948 H   0  0  0  0  0  0  0  0  0  0  0  0
 11 12  1  0  0  0
 12 13  2  0  0  0
 13 14  1  0  0  0
 14 15  2  0  0  0
 15 16  1  0  0  0
 16 17  2  0  0  0
 15  1  1  0  0  0
  1  2  2  0  0  0
  2  3  1  0  0  0
  3  4  2  0  0  0
  4  5  1  0  0  0
  5  6  1  0  0  0
  6  7  2  0  0  0
  7 20  1  0  0  0
 20 21  2  0  0  0
 21 22  1  0  0  0
 22 23  2  0  0  0
 23 24  1  0  0  0
 23 25  1  0  0  0
 25 26  2  0  0  0
  7  8  1  0  0  0
  8  9  2  0  0  0
 17 12  1  0  0  0
  9  1  1  0  0  0
  8  4  1  0  0  0
 26 20  1  0  0  0
 11 18  1  0  0  0
 11 19  1  0  0  0
  5 10  1  0  0  0
 24 27  1  0  0  0
M  END
> <minimizedAffinity>
-9.67013

> <CNNscore>
0.4732413590

> <CNNaffinity>
6.1999831200

> <CNN_VS>
2.9340884686

> <CNNaffinity_variance>
0.1149624363

$$$$
[H]Oc1c([H])c([H])c(-c2c([H])n([H])c3nc([H])c(-c4c([H])c([H])c(N([H])[H])c([H])c4[H])c([H])c23)c([H])c1[H]


 27 30  0  0  0  0  0  0  0  0999 V2000
  -87.2796   32.7228   -1.5138 C   0  0  0  0  0  0  0  0  0  0  0  0
  -88.4249   32.0040   -1.2458 C   0  0  0  0  0  0  0  0  0  0  0  0
  -89.5836   32.2210   -1.8946 N   0  0  0  0  0  0  0  0  0  0  0  0
  -89.7181   33.1563   -2.8567 C   0  0  0  0  0  0  0  0  0  0  0  0
  -90.7345   33.5695   -3.6407 N   0  0  0  0  0  0  0  0  0  0  0  0
  -90.3351   34.5585   -4.4524 C   0  0  0  0  0  0  0  0  0  0  0  0
  -88.9859   34.7778   -4.1585 C   0  0  0  0  0  0  0  0  0  0  0  0
  -88.5961   33.9109   -3.1685 C   0  0  0  0  0  0  0  0  0  0  0  0
  -87.4049   33.6978   -2.5111 C   0  0  0  0  0  0  0  0  0  0  0  0
  -91.6940   33.1865   -3.6295 H   0  0  0  0  0  0  0  0  0  0  0  0
  -82.2914   32.0432    1.0366 N   0  0  0  0  0  0  0  0  0  0  0  0
  -83.5532   32.1978    0.4079 C   0  0  0  0  0  0  0  0  0  0  0  0
  -83.6965   33.1588   -0.5662 C   0  0  0  0  0  0  0  0  0  0  0  0
  -84.9354   33.2965   -1.1700 C   0  0  0  0  0  0  0  0  0  0  0  0
  -86.0125   32.5111   -0.8290 C   0  0  0  0  0  0  0  0  0  0  0  0
  -85.8152   31.5633    0.1530 C   0  0  0  0  0  0  0  0  0  0  0  0
  -84.6151   31.3785    0.7872 C   0  0  0  0  0  0  0  0  0  0  0  0
  -81.4581   31.6098    0.5805 H   0  0  0  0  0  0  0  0  0  0  0  0
  -82.1958   32.3840    2.0117 H   0  0  0  0  0  0  0  0  0  0  0  0
  -88.1067   35.7545   -4.7868 C   0  0  0  0  0  0  0  0  0  0  0  0
  -87.9926   35.8160   -6.1640 C   0  0  0  0  0  0  0  0  0  0  0  0
  -87.1561   36.7369   -6.7902 C   0  0  0  0  0  0  0  0  0  0  0  0
  -86.4096   37.6236   -6.0454 C   0  0  0  0  0  0  0  0  0  0  0  0
  -85.5597   38.5618   -6.6365 O   0  0  0  0  0  0  0  0  0  0  0  0
  -86.5187   37.5675   -4.6718 C   0  0  0  0  0  0  0  0  0  0  0  0
  -87.3597   36.6413   -4.0452 C   0  0  0  0  0  0  0  0  0  0  0  0
  -84.5798   38.3369   -6.8308 H   0  0  0  0  0  0  0  0  0  0  0  0
 11 12  1  0  0  0
 12 13  2  0  0  0
 13 14  1  0  0  0
 14 15  2  0  0  0
 15 16  1  0  0  0
 16 17  2  0  0  0
 15  1  1  0  0  0
  1  2  2  0  0  0
  2  3  1  0  0  0
  3  4  2  0  0  0
  4  5  1  0  0  0
  5  6  1  0  0  0
  6  7  2  0  0  0
  7 20  1  0  0  0
 20 21  2  0  0  0
 21 22  1  0  0  0
 22 23  2  0  0  0
 23 24  1  0  0  0
 23 25  1  0  0  0
 25 26  2  0  0  0
  7  8  1  0  0  0
  8  9  2  0  0  0
 17 12  1  0  0  0
  9  1  1  0  0  0
  8  4  1  0  0  0
 26 20  1  0  0  0
 11 18  1  0  0  0
 11 19  1  0  0  0
  5 10  1  0  0  0
 24 27  1  0  0  0
M  END
> <minimizedAffinity>
-8.22108

> <CNNscore>
0.3851733506

> <CNNaffinity>
5.4664049149

> <CNN_VS>
2.1055135727

> <CNNaffinity_variance>
0.4062829912

$$$$
[H]Oc1c([H])c([H])c(-c2c([H])n([H])c3nc([H])c(-c4c([H])c([H])c(N([H])[H])c([H])c4[H])c([H])c23)c([H])c1[H]


 27 30  0  0  0  0  0  0  0  0999 V2000
  -85.9758   28.9179    0.9591 C   0  0  0  0  0  0  0  0  0  0  0  0
  -84.6981   28.8709    1.4744 C   0  0  0  0  0  0  0  0  0  0  0  0
  -83.8231   29.8831    1.3322 N   0  0  0  0  0  0  0  0  0  0  0  0
  -84.1240   31.0223    0.6764 C   0  0  0  0  0  0  0  0  0  0  0  0
  -83.4545   32.1584    0.3946 N   0  0  0  0  0  0  0  0  0  0  0  0
  -84.2262   33.0025   -0.3041 C   0  0  0  0  0  0  0  0  0  0  0  0
  -85.4543   32.3552   -0.4699 C   0  0  0  0  0  0  0  0  0  0  0  0
  -85.3980   31.1251    0.1362 C   0  0  0  0  0  0  0  0  0  0  0  0
  -86.3021   30.0955    0.2752 C   0  0  0  0  0  0  0  0  0  0  0  0
  -82.4809   32.3648    0.6722 H   0  0  0  0  0  0  0  0  0  0  0  0
  -89.7664   24.7977    1.6690 N   0  0  0  0  0  0  0  0  0  0  0  0
  -88.8099   25.8258    1.4703 C   0  0  0  0  0  0  0  0  0  0  0  0
  -88.5665   26.7131    2.4932 C   0  0  0  0  0  0  0  0  0  0  0  0
  -87.6294   27.7110    2.2825 C   0  0  0  0  0  0  0  0  0  0  0  0
  -86.9440   27.8394    1.0964 C   0  0  0  0  0  0  0  0  0  0  0  0
  -87.2254   26.9243    0.1040 C   0  0  0  0  0  0  0  0  0  0  0  0
  -88.1407   25.9156    0.2510 C   0  0  0  0  0  0  0  0  0  0  0  0
  -89.6091   23.9584    2.2698 H   0  0  0  0  0  0  0  0  0  0  0  0
  -90.6787   24.8903    1.1839 H   0  0  0  0  0  0  0  0  0  0  0  0
  -86.6255   32.8761   -1.1617 C   0  0  0  0  0  0  0  0  0  0  0  0
  -87.8984   32.4966   -0.7752 C   0  0  0  0  0  0  0  0  0  0  0  0
  -89.0348   32.9761   -1.4221 C   0  0  0  0  0  0  0  0  0  0  0  0
  -88.9210   33.8531   -2.4786 C   0  0  0  0  0  0  0  0  0  0  0  0
  -90.0367   34.3561   -3.1526 O   0  0  0  0  0  0  0  0  0  0  0  0
  -87.6548   34.2354   -2.8690 C   0  0  0  0  0  0  0  0  0  0  0  0
  -86.5147   33.7522   -2.2174 C   0  0  0  0  0  0  0  0  0  0  0  0
  -90.4255   33.8693   -3.9652 H   0  0  0  0  0  0  0  0  0  0  0  0
 11 12  1  0  0  0
 12 13  2  0  0  0
 13 14  1  0  0  0
 14 15  2  0  0  0
 15 16  1  0  0  0
 16 17  2  0  0  0
 15  1  1  0  0  0
  1  2  2  0  0  0
  2  3  1  0  0  0
  3  4  2  0  0  0
  4  5  1  0  0  0
  5  6  1  0  0  0
  6  7  2  0  0  0
  7 20  1  0  0  0
 20 21  2  0  0  0
 21 22  1  0  0  0
 22 23  2  0  0  0
 23 24  1  0  0  0
 23 25  1  0  0  0
 25 26  2  0  0  0
  7  8  1  0  0  0
  8  9  2  0  0  0
 17 12  1  0  0  0
  9  1  1  0  0  0
  8  4  1  0  0  0
 26 20  1  0  0  0
 11 18  1  0  0  0
 11 19  1  0  0  0
  5 10  1  0  0  0
 24 27  1  0  0  0
M  END
> <minimizedAffinity>
-9.31322

> <CNNscore>
0.3131030500

> <CNNaffinity>
6.0977182388

> <CNN_VS>
1.9092141390

> <CNNaffinity_variance>
0.1416080743

$$$$
[H]Oc1c([H])c([H])c(-c2c([H])n([H])c3nc([H])c(-c4c([H])c([H])c(N([H])[H])c([H])c4[H])c([H])c23)c([H])c1[H]


 27 30  0  0  0  0  0  0  0  0999 V2000
  -87.7873   30.7622   -0.9350 C   0  0  0  0  0  0  0  0  0  0  0  0
  -88.3057   31.1177   -2.1618 C   0  0  0  0  0  0  0  0  0  0  0  0
  -89.5311   30.7373   -2.5670 N   0  0  0  0  0  0  0  0  0  0  0  0
  -90.3491   29.9799   -1.8083 C   0  0  0  0  0  0  0  0  0  0  0  0
  -91.5877   29.4712   -1.9677 N   0  0  0  0  0  0  0  0  0  0  0  0
  -91.9542   28.7683   -0.8869 C   0  0  0  0  0  0  0  0  0  0  0  0
  -90.8790   28.8416    0.0038 C   0  0  0  0  0  0  0  0  0  0  0  0
  -89.8787   29.5921   -0.5617 C   0  0  0  0  0  0  0  0  0  0  0  0
  -88.6262   29.9753   -0.1363 C   0  0  0  0  0  0  0  0  0  0  0  0
  -92.1846   29.5972   -2.8016 H   0  0  0  0  0  0  0  0  0  0  0  0
  -82.6366   32.1177    0.9310 N   0  0  0  0  0  0  0  0  0  0  0  0
  -83.9338   31.7977    0.4552 C   0  0  0  0  0  0  0  0  0  0  0  0
  -84.3997   30.5125    0.6104 C   0  0  0  0  0  0  0  0  0  0  0  0
  -85.6685   30.2169    0.1401 C   0  0  0  0  0  0  0  0  0  0  0  0
  -86.4660   31.1580   -0.4694 C   0  0  0  0  0  0  0  0  0  0  0  0
  -85.9513   32.4307   -0.5998 C   0  0  0  0  0  0  0  0  0  0  0  0
  -84.7047   32.7851   -0.1558 C   0  0  0  0  0  0  0  0  0  0  0  0
  -82.3915   32.2221    1.9405 H   0  0  0  0  0  0  0  0  0  0  0  0
  -81.8875   32.2560    0.2268 H   0  0  0  0  0  0  0  0  0  0  0  0
  -90.8032   28.2372    1.3269 C   0  0  0  0  0  0  0  0  0  0  0  0
  -90.4366   26.9117    1.4757 C   0  0  0  0  0  0  0  0  0  0  0  0
  -90.3604   26.3079    2.7285 C   0  0  0  0  0  0  0  0  0  0  0  0
  -90.6519   27.0237    3.8690 C   0  0  0  0  0  0  0  0  0  0  0  0
  -90.5868   26.4538    5.1430 O   0  0  0  0  0  0  0  0  0  0  0  0
  -91.0182   28.3457    3.7278 C   0  0  0  0  0  0  0  0  0  0  0  0
  -91.0939   28.9499    2.4680 C   0  0  0  0  0  0  0  0  0  0  0  0
  -91.4042   25.9987    5.5594 H   0  0  0  0  0  0  0  0  0  0  0  0
 11 12  1  0  0  0
 12 13  2  0  0  0
 13 14  1  0  0  0
 14 15  2  0  0  0
 15 16  1  0  0  0
 16 17  2  0  0  0
 15  1  1  0  0  0
  1  2  2  0  0  0
  2  3  1  0  0  0
  3  4  2  0  0  0
  4  5  1  0  0  0
  5  6  1  0  0  0
  6  7  2  0  0  0
  7 20  1  0  0  0
 20 21  2  0  0  0
 21 22  1  0  0  0
 22 23  2  0  0  0
 23 24  1  0  0  0
 23 25  1  0  0  0
 25 26  2  0  0  0
  7  8  1  0  0  0
  8  9  2  0  0  0
 17 12  1  0  0  0
  9  1  1  0  0  0
  8  4  1  0  0  0
 26 20  1  0  0  0
 11 18  1  0  0  0
 11 19  1  0  0  0
  5 10  1  0  0  0
 24 27  1  0  0  0
M  END
> <minimizedAffinity>
-8.45110

> <CNNscore>
0.2984040082

> <CNNaffinity>
5.9163770676

> <CNN_VS>
1.7654706240

> <CNNaffinity_variance>
0.0801659375

$$$$
[H]Oc1c([H])c([H])c(-c2c([H])n([H])c3nc([H])c(-c4c([H])c([H])c(N([H])[H])c([H])c4[H])c([H])c23)c([H])c1[H]


 27 30  0  0  0  0  0  0  0  0999 V2000
  -87.0713   32.5208   -1.7099 C   0  0  0  0  0  0  0  0  0  0  0  0
  -86.2569   33.5153   -1.2119 C   0  0  0  0  0  0  0  0  0  0  0  0
  -85.4152   33.3130   -0.1818 N   0  0  0  0  0  0  0  0  0  0  0  0
  -85.3001   32.1246    0.4450 C   0  0  0  0  0  0  0  0  0  0  0  0
  -84.5589   31.6635    1.4729 N   0  0  0  0  0  0  0  0  0  0  0  0
  -84.8295   30.3726    1.7108 C   0  0  0  0  0  0  0  0  0  0  0  0
  -85.7997   30.0028    0.7744 C   0  0  0  0  0  0  0  0  0  0  0  0
  -86.0968   31.0857   -0.0147 C   0  0  0  0  0  0  0  0  0  0  0  0
  -86.9621   31.2809   -1.0682 C   0  0  0  0  0  0  0  0  0  0  0  0
  -83.8727   32.2163    2.0123 H   0  0  0  0  0  0  0  0  0  0  0  0
  -90.5562   33.1043   -6.1102 N   0  0  0  0  0  0  0  0  0  0  0  0
  -89.6902   32.9746   -4.9946 C   0  0  0  0  0  0  0  0  0  0  0  0
  -88.7375   31.9821   -5.0052 C   0  0  0  0  0  0  0  0  0  0  0  0
  -87.9000   31.8694   -3.9079 C   0  0  0  0  0  0  0  0  0  0  0  0
  -87.9915   32.7095   -2.8220 C   0  0  0  0  0  0  0  0  0  0  0  0
  -88.9632   33.6870   -2.8620 C   0  0  0  0  0  0  0  0  0  0  0  0
  -89.8213   33.8495   -3.9175 C   0  0  0  0  0  0  0  0  0  0  0  0
  -90.2651   33.4861   -7.0373 H   0  0  0  0  0  0  0  0  0  0  0  0
  -91.5406   32.7989   -5.9920 H   0  0  0  0  0  0  0  0  0  0  0  0
  -86.4112   28.6889    0.6285 C   0  0  0  0  0  0  0  0  0  0  0  0
  -86.4840   27.8226    1.7045 C   0  0  0  0  0  0  0  0  0  0  0  0
  -87.0593   26.5592    1.5914 C   0  0  0  0  0  0  0  0  0  0  0  0
  -87.5787   26.1320    0.3890 C   0  0  0  0  0  0  0  0  0  0  0  0
  -88.1638   24.8725    0.2358 O   0  0  0  0  0  0  0  0  0  0  0  0
  -87.5094   26.9908   -0.6878 C   0  0  0  0  0  0  0  0  0  0  0  0
  -86.9308   28.2595   -0.5715 C   0  0  0  0  0  0  0  0  0  0  0  0
  -87.6036   24.0609   -0.0400 H   0  0  0  0  0  0  0  0  0  0  0  0
 11 12  1  0  0  0
 12 13  2  0  0  0
 13 14  1  0  0  0
 14 15  2  0  0  0
 15 16  1  0  0  0
 16 17  2  0  0  0
 15  1  1  0  0  0
  1  2  2  0  0  0
  2  3  1  0  0  0
  3  4  2  0  0  0
  4  5  1  0  0  0
  5  6  1  0  0  0
  6  7  2  0  0  0
  7 20  1  0  0  0
 20 21  2  0  0  0
 21 22  1  0  0  0
 22 23  2  0  0  0
 23 24  1  0  0  0
 23 25  1  0  0  0
 25 26  2  0  0  0
  7  8  1  0  0  0
  8  9  2  0  0  0
 17 12  1  0  0  0
  9  1  1  0  0  0
  8  4  1  0  0  0
 26 20  1  0  0  0
 11 18  1  0  0  0
 11 19  1  0  0  0
  5 10  1  0  0  0
 24 27  1  0  0  0
M  END
> <minimizedAffinity>
-9.05815

> <CNNscore>
0.2909094095

> <CNNaffinity>
5.9020500183

> <CNN_VS>
1.7169618607

> <CNNaffinity_variance>
0.2091544420

$$$$
[H]Oc1c([H])c([H])c(-c2c([H])n([H])c3nc([H])c(-c4c([H])c([H])c(N([H])[H])c([H])c4[H])c([H])c23)c([H])c1[H]


 27 30  0  0  0  0  0  0  0  0999 V2000
  -85.8073   28.6658    1.1654 C   0  0  0  0  0  0  0  0  0  0  0  0
  -85.4316   27.6363    2.0017 C   0  0  0  0  0  0  0  0  0  0  0  0
  -86.2262   26.5792    2.2496 N   0  0  0  0  0  0  0  0  0  0  0  0
  -87.4507   26.4411    1.7017 C   0  0  0  0  0  0  0  0  0  0  0  0
  -88.4241   25.5111    1.7797 N   0  0  0  0  0  0  0  0  0  0  0  0
  -89.4731   25.8583    1.0212 C   0  0  0  0  0  0  0  0  0  0  0  0
  -89.1358   27.0806    0.4322 C   0  0  0  0  0  0  0  0  0  0  0  0
  -87.8814   27.4487    0.8504 C   0  0  0  0  0  0  0  0  0  0  0  0
  -87.0770   28.5355    0.5893 C   0  0  0  0  0  0  0  0  0  0  0  0
  -88.3820   24.6451    2.3417 H   0  0  0  0  0  0  0  0  0  0  0  0
  -82.7134   33.2325   -0.0269 N   0  0  0  0  0  0  0  0  0  0  0  0
  -83.4733   32.0754    0.2817 C   0  0  0  0  0  0  0  0  0  0  0  0
  -84.8023   32.0399   -0.0722 C   0  0  0  0  0  0  0  0  0  0  0  0
  -85.5298   30.9025    0.2366 C   0  0  0  0  0  0  0  0  0  0  0  0
  -84.9701   29.8217    0.8783 C   0  0  0  0  0  0  0  0  0  0  0  0
  -83.6347   29.9087    1.2109 C   0  0  0  0  0  0  0  0  0  0  0  0
  -82.8622   31.0054    0.9331 C   0  0  0  0  0  0  0  0  0  0  0  0
  -82.3950   33.4857   -0.9885 H   0  0  0  0  0  0  0  0  0  0  0  0
  -82.4603   33.8638    0.7564 H   0  0  0  0  0  0  0  0  0  0  0  0
  -89.9559   27.8594   -0.4856 C   0  0  0  0  0  0  0  0  0  0  0  0
  -91.0137   28.6168   -0.0153 C   0  0  0  0  0  0  0  0  0  0  0  0
  -91.8163   29.3670   -0.8714 C   0  0  0  0  0  0  0  0  0  0  0  0
  -91.5758   29.3755   -2.2279 C   0  0  0  0  0  0  0  0  0  0  0  0
  -92.3581   30.1150   -3.1185 O   0  0  0  0  0  0  0  0  0  0  0  0
  -90.5228   28.6224   -2.7034 C   0  0  0  0  0  0  0  0  0  0  0  0
  -89.7179   27.8697   -1.8412 C   0  0  0  0  0  0  0  0  0  0  0  0
  -93.1899   29.7065   -3.5541 H   0  0  0  0  0  0  0  0  0  0  0  0
 11 12  1  0  0  0
 12 13  2  0  0  0
 13 14  1  0  0  0
 14 15  2  0  0  0
 15 16  1  0  0  0
 16 17  2  0  0  0
 15  1  1  0  0  0
  1  2  2  0  0  0
  2  3  1  0  0  0
  3  4  2  0  0  0
  4  5  1  0  0  0
  5  6  1  0  0  0
  6  7  2  0  0  0
  7 20  1  0  0  0
 20 21  2  0  0  0
 21 22  1  0  0  0
 22 23  2  0  0  0
 23 24  1  0  0  0
 23 25  1  0  0  0
 25 26  2  0  0  0
  7  8  1  0  0  0
  8  9  2  0  0  0
 17 12  1  0  0  0
  9  1  1  0  0  0
  8  4  1  0  0  0
 26 20  1  0  0  0
 11 18  1  0  0  0
 11 19  1  0  0  0
  5 10  1  0  0  0
 24 27  1  0  0  0
M  END
> <minimizedAffinity>
-8.53892

> <CNNscore>
0.2335802466

> <CNNaffinity>
5.9824204445

> <CNN_VS>
1.3973752260

> <CNNaffinity_variance>
0.1747916639

$$$$
[H]C#Cc1c([H])c([H])c([H])c(N([H])c2nc([H])nc3c([H])c([H])c4nc(C(=N[H])OC([H])([H])[H])sc4c23)c1[H]


 28 31  0  0  0  0  0  0  0  0999 V2000
  -86.3704   32.9693   -1.3521 C   0  0  0  0  0  0  0  0  0  0  0  0
  -85.1189   33.1423   -1.0070 N   0  0  0  0  0  0  0  0  0  0  0  0
  -84.5030   32.2639   -0.2729 C   0  0  0  0  0  0  0  0  0  0  0  0
  -83.1696   32.3389    0.1683 C   0  0  0  0  0  0  0  0  0  0  0  0
  -82.6519   31.3572    0.9364 C   0  0  0  0  0  0  0  0  0  0  0  0
  -83.3516   30.2436    1.3389 C   0  0  0  0  0  0  0  0  0  0  0  0
  -82.8220   29.2898    2.1058 N   0  0  0  0  0  0  0  0  0  0  0  0
  -83.5983   28.2269    2.4611 C   0  0  0  0  0  0  0  0  0  0  0  0
  -84.8588   28.1390    2.0522 N   0  0  0  0  0  0  0  0  0  0  0  0
  -85.4669   29.0782    1.2643 C   0  0  0  0  0  0  0  0  0  0  0  0
  -84.6903   30.1376    0.9130 C   0  0  0  0  0  0  0  0  0  0  0  0
  -85.2102   31.1533    0.1248 C   0  0  0  0  0  0  0  0  0  0  0  0
  -86.7189   31.4847   -0.6073 S   0  0  0  0  0  0  0  0  0  0  0  0
  -87.2564   33.8328   -2.1719 C   0  0  0  0  0  0  0  0  0  0  0  0
  -86.7221   34.6279   -3.0282 N   0  0  0  0  0  0  0  0  0  0  0  0
  -85.6881   34.6381   -3.1162 H   0  0  0  0  0  0  0  0  0  0  0  0
  -89.3489   33.0062   -2.9799 C   0  0  0  0  0  0  0  0  0  0  0  0
  -88.6140   33.7923   -2.0287 O   0  0  0  0  0  0  0  0  0  0  0  0
  -86.7800   28.9055    0.8145 N   0  0  0  0  0  0  0  0  0  0  0  0
  -87.2212   29.5339    0.1567 H   0  0  0  0  0  0  0  0  0  0  0  0
  -87.6290   27.8012    1.2350 C   0  0  0  0  0  0  0  0  0  0  0  0
  -87.8358   26.7992    0.2743 C   0  0  0  0  0  0  0  0  0  0  0  0
  -88.6361   25.7062    0.5133 C   0  0  0  0  0  0  0  0  0  0  0  0
  -89.2442   25.6114    1.7409 C   0  0  0  0  0  0  0  0  0  0  0  0
  -89.0441   26.5912    2.6838 C   0  0  0  0  0  0  0  0  0  0  0  0
  -88.2299   27.7038    2.4401 C   0  0  0  0  0  0  0  0  0  0  0  0
  -89.6975   26.4543    3.9527 C   0  0  0  0  0  0  0  0  0  0  0  0
  -90.2667   26.3392    5.0255 C   0  0  0  0  0  0  0  0  0  0  0  0
 17 18  1  0  0  0
 18 14  1  0  0  0
 14 15  2  0  0  0
 14  1  1  0  0  0
  1  2  2  0  0  0
  2  3  1  0  0  0
  3  4  2  0  0  0
  4  5  1  0  0  0
  5  6  2  0  0  0
  6  7  1  0  0  0
  7  8  2  0  0  0
  8  9  1  0  0  0
  9 10  2  0  0  0
 10 19  1  0  0  0
 19 21  1  0  0  0
 21 22  2  0  0  0
 22 23  1  0  0  0
 23 24  2  0  0  0
 24 25  1  0  0  0
 25 26  2  0  0  0
 25 27  1  0  0  0
 27 28  3  0  0  0
 10 11  1  0  0  0
 11 12  2  0  0  0
 12 13  1  0  0  0
 13  1  1  0  0  0
 12  3  1  0  0  0
 11  6  1  0  0  0
 26 21  1  0  0  0
 15 16  1  0  0  0
 19 20  1  0  0  0
M  END
> <minimizedAffinity>
-8.81112

> <CNNscore>
0.9031040668

> <CNNaffinity>
7.4058198929

> <CNN_VS>
6.6882262230

> <CNNaffinity_variance>
0.1235792637

$$$$
[H]C#Cc1c([H])c([H])c([H])c(N([H])c2nc([H])nc3c([H])c([H])c4nc(C(=N[H])OC([H])([H])[H])sc4c23)c1[H]


 28 31  0  0  0  0  0  0  0  0999 V2000
  -87.1303   27.0795    1.8154 C   0  0  0  0  0  0  0  0  0  0  0  0
  -85.8883   27.0462    2.2294 N   0  0  0  0  0  0  0  0  0  0  0  0
  -85.0764   28.0303    1.9797 C   0  0  0  0  0  0  0  0  0  0  0  0
  -83.7251   28.1090    2.3615 C   0  0  0  0  0  0  0  0  0  0  0  0
  -82.9872   29.1894    2.0299 C   0  0  0  0  0  0  0  0  0  0  0  0
  -83.4700   30.2639    1.3200 C   0  0  0  0  0  0  0  0  0  0  0  0
  -82.7197   31.3176    0.9956 N   0  0  0  0  0  0  0  0  0  0  0  0
  -83.2858   32.3313    0.2811 C   0  0  0  0  0  0  0  0  0  0  0  0
  -84.5608   32.2744   -0.0864 N   0  0  0  0  0  0  0  0  0  0  0  0
  -85.3890   31.2265    0.2114 C   0  0  0  0  0  0  0  0  0  0  0  0
  -84.8208   30.2167    0.9230 C   0  0  0  0  0  0  0  0  0  0  0  0
  -85.5677   29.1007    1.2694 C   0  0  0  0  0  0  0  0  0  0  0  0
  -87.1774   28.5802    1.0243 S   0  0  0  0  0  0  0  0  0  0  0  0
  -88.2139   26.0796    1.9848 C   0  0  0  0  0  0  0  0  0  0  0  0
  -88.5377   25.3454    0.9813 N   0  0  0  0  0  0  0  0  0  0  0  0
  -88.0292   25.4780    0.0864 H   0  0  0  0  0  0  0  0  0  0  0  0
  -89.6060   27.0619    3.6617 C   0  0  0  0  0  0  0  0  0  0  0  0
  -88.8614   25.9328    3.1783 O   0  0  0  0  0  0  0  0  0  0  0  0
  -86.7399   31.2460   -0.1506 N   0  0  0  0  0  0  0  0  0  0  0  0
  -87.4892   31.1646    0.5235 H   0  0  0  0  0  0  0  0  0  0  0  0
  -87.1963   31.4008   -1.5234 C   0  0  0  0  0  0  0  0  0  0  0  0
  -87.5940   30.2173   -2.1643 C   0  0  0  0  0  0  0  0  0  0  0  0
  -88.0235   30.1980   -3.4709 C   0  0  0  0  0  0  0  0  0  0  0  0
  -88.0565   31.3889   -4.1540 C   0  0  0  0  0  0  0  0  0  0  0  0
  -87.6672   32.5497   -3.5294 C   0  0  0  0  0  0  0  0  0  0  0  0
  -87.2297   32.5689   -2.1996 C   0  0  0  0  0  0  0  0  0  0  0  0
  -87.7166   33.7716   -4.2780 C   0  0  0  0  0  0  0  0  0  0  0  0
  -87.7736   34.8109   -4.9142 C   0  0  0  0  0  0  0  0  0  0  0  0
 17 18  1  0  0  0
 18 14  1  0  0  0
 14 15  2  0  0  0
 14  1  1  0  0  0
  1  2  2  0  0  0
  2  3  1  0  0  0
  3  4  2  0  0  0
  4  5  1  0  0  0
  5  6  2  0  0  0
  6  7  1  0  0  0
  7  8  2  0  0  0
  8  9  1  0  0  0
  9 10  2  0  0  0
 10 19  1  0  0  0
 19 21  1  0  0  0
 21 22  2  0  0  0
 22 23  1  0  0  0
 23 24  2  0  0  0
 24 25  1  0  0  0
 25 26  2  0  0  0
 25 27  1  0  0  0
 27 28  3  0  0  0
 10 11  1  0  0  0
 11 12  2  0  0  0
 12 13  1  0  0  0
 13  1  1  0  0  0
 12  3  1  0  0  0
 11  6  1  0  0  0
 26 21  1  0  0  0
 15 16  1  0  0  0
 19 20  1  0  0  0
M  END
> <minimizedAffinity>
-9.09497

> <CNNscore>
0.4578195512

> <CNNaffinity>
6.8671622276

> <CNN_VS>
3.1439211369

> <CNNaffinity_variance>
0.1442924291

$$$$
[H]C#Cc1c([H])c([H])c([H])c(N([H])c2nc([H])nc3c([H])c([H])c4nc(C(=N[H])OC([H])([H])[H])sc4c23)c1[H]


 28 31  0  0  0  0  0  0  0  0999 V2000
  -86.5067   32.6476   -1.0624 C   0  0  0  0  0  0  0  0  0  0  0  0
  -85.2670   32.7741   -0.6595 N   0  0  0  0  0  0  0  0  0  0  0  0
  -84.6989   31.8442    0.0492 C   0  0  0  0  0  0  0  0  0  0  0  0
  -83.3831   31.8659    0.5458 C   0  0  0  0  0  0  0  0  0  0  0  0
  -82.9166   30.8333    1.2790 C   0  0  0  0  0  0  0  0  0  0  0  0
  -83.6540   29.7154    1.5924 C   0  0  0  0  0  0  0  0  0  0  0  0
  -83.1749   28.7103    2.3264 N   0  0  0  0  0  0  0  0  0  0  0  0
  -83.9858   27.6473    2.5925 C   0  0  0  0  0  0  0  0  0  0  0  0
  -85.2304   27.6093    2.1303 N   0  0  0  0  0  0  0  0  0  0  0  0
  -85.7873   28.6027    1.3715 C   0  0  0  0  0  0  0  0  0  0  0  0
  -84.9762   29.6620    1.1092 C   0  0  0  0  0  0  0  0  0  0  0  0
  -85.4435   30.7297    0.3577 C   0  0  0  0  0  0  0  0  0  0  0  0
  -86.9146   31.1332   -0.4139 S   0  0  0  0  0  0  0  0  0  0  0  0
  -87.3415   33.5732   -1.8681 C   0  0  0  0  0  0  0  0  0  0  0  0
  -88.6149   33.4022   -1.8809 N   0  0  0  0  0  0  0  0  0  0  0  0
  -89.0150   32.6215   -1.3265 H   0  0  0  0  0  0  0  0  0  0  0  0
  -87.3279   34.8538   -3.8867 C   0  0  0  0  0  0  0  0  0  0  0  0
  -86.7796   34.5903   -2.5856 O   0  0  0  0  0  0  0  0  0  0  0  0
  -87.0844   28.4834    0.8619 N   0  0  0  0  0  0  0  0  0  0  0  0
  -87.4701   29.1308    0.1878 H   0  0  0  0  0  0  0  0  0  0  0  0
  -87.9943   27.4121    1.2379 C   0  0  0  0  0  0  0  0  0  0  0  0
  -88.5130   27.4899    2.5397 C   0  0  0  0  0  0  0  0  0  0  0  0
  -89.3639   26.5370    3.0497 C   0  0  0  0  0  0  0  0  0  0  0  0
  -89.7052   25.4813    2.2405 C   0  0  0  0  0  0  0  0  0  0  0  0
  -89.1986   25.4019    0.9652 C   0  0  0  0  0  0  0  0  0  0  0  0
  -88.3322   26.3717    0.4466 C   0  0  0  0  0  0  0  0  0  0  0  0
  -89.5797   24.2835    0.1529 C   0  0  0  0  0  0  0  0  0  0  0  0
  -89.8895   23.3281   -0.5393 C   0  0  0  0  0  0  0  0  0  0  0  0
 17 18  1  0  0  0
 18 14  1  0  0  0
 14 15  2  0  0  0
 14  1  1  0  0  0
  1  2  2  0  0  0
  2  3  1  0  0  0
  3  4  2  0  0  0
  4  5  1  0  0  0
  5  6  2  0  0  0
  6  7  1  0  0  0
  7  8  2  0  0  0
  8  9  1  0  0  0
  9 10  2  0  0  0
 10 19  1  0  0  0
 19 21  1  0  0  0
 21 22  2  0  0  0
 22 23  1  0  0  0
 23 24  2  0  0  0
 24 25  1  0  0  0
 25 26  2  0  0  0
 25 27  1  0  0  0
 27 28  3  0  0  0
 10 11  1  0  0  0
 11 12  2  0  0  0
 12 13  1  0  0  0
 13  1  1  0  0  0
 12  3  1  0  0  0
 11  6  1  0  0  0
 26 21  1  0  0  0
 15 16  1  0  0  0
 19 20  1  0  0  0
M  END
> <minimizedAffinity>
-8.35667

> <CNNscore>
0.4542841911

> <CNNaffinity>
6.9088058472

> <CNN_VS>
3.1385612488

> <CNNaffinity_variance>
0.1698791832

$$$$
[H]C#Cc1c([H])c([H])c([H])c(N([H])c2nc([H])nc3c([H])c([H])c4nc(C(=N[H])OC([H])([H])[H])sc4c23)c1[H]


 28 31  0  0  0  0  0  0  0  0999 V2000
  -88.5686   28.6016    0.3784 C   0  0  0  0  0  0  0  0  0  0  0  0
  -87.3946   28.2606    0.8480 N   0  0  0  0  0  0  0  0  0  0  0  0
  -86.3828   29.0725    0.7650 C   0  0  0  0  0  0  0  0  0  0  0  0
  -85.0768   28.8208    1.2223 C   0  0  0  0  0  0  0  0  0  0  0  0
  -84.1113   29.7510    1.0665 C   0  0  0  0  0  0  0  0  0  0  0  0
  -84.3096   30.9755    0.4725 C   0  0  0  0  0  0  0  0  0  0  0  0
  -83.3380   31.8763    0.3211 N   0  0  0  0  0  0  0  0  0  0  0  0
  -83.6297   33.0599   -0.2894 C   0  0  0  0  0  0  0  0  0  0  0  0
  -84.8579   33.3150   -0.7259 N   0  0  0  0  0  0  0  0  0  0  0  0
  -85.9023   32.4393   -0.6041 C   0  0  0  0  0  0  0  0  0  0  0  0
  -85.6076   31.2593    0.0040 C   0  0  0  0  0  0  0  0  0  0  0  0
  -86.5902   30.2949    0.1697 C   0  0  0  0  0  0  0  0  0  0  0  0
  -88.2487   30.1569   -0.2206 S   0  0  0  0  0  0  0  0  0  0  0  0
  -89.8429   27.8406    0.3659 C   0  0  0  0  0  0  0  0  0  0  0  0
  -90.4156   27.5786    1.4857 N   0  0  0  0  0  0  0  0  0  0  0  0
  -89.9659   27.9088    2.3608 H   0  0  0  0  0  0  0  0  0  0  0  0
  -89.5310   26.8206   -1.7736 C   0  0  0  0  0  0  0  0  0  0  0  0
  -90.4057   27.4220   -0.8060 O   0  0  0  0  0  0  0  0  0  0  0  0
  -87.1894   32.7840   -1.0294 N   0  0  0  0  0  0  0  0  0  0  0  0
  -88.0016   32.7133   -0.4314 H   0  0  0  0  0  0  0  0  0  0  0  0
  -87.4808   33.2905   -2.3619 C   0  0  0  0  0  0  0  0  0  0  0  0
  -88.1917   32.4158   -3.1980 C   0  0  0  0  0  0  0  0  0  0  0  0
  -88.5175   32.7408   -4.4943 C   0  0  0  0  0  0  0  0  0  0  0  0
  -88.1240   33.9686   -4.9671 C   0  0  0  0  0  0  0  0  0  0  0  0
  -87.4272   34.8274   -4.1509 C   0  0  0  0  0  0  0  0  0  0  0  0
  -87.0954   34.4961   -2.8317 C   0  0  0  0  0  0  0  0  0  0  0  0
  -87.0349   36.0998   -4.6832 C   0  0  0  0  0  0  0  0  0  0  0  0
  -86.6911   37.1753   -5.1448 C   0  0  0  0  0  0  0  0  0  0  0  0
 17 18  1  0  0  0
 18 14  1  0  0  0
 14 15  2  0  0  0
 14  1  1  0  0  0
  1  2  2  0  0  0
  2  3  1  0  0  0
  3  4  2  0  0  0
  4  5  1  0  0  0
  5  6  2  0  0  0
  6  7  1  0  0  0
  7  8  2  0  0  0
  8  9  1  0  0  0
  9 10  2  0  0  0
 10 19  1  0  0  0
 19 21  1  0  0  0
 21 22  2  0  0  0
 22 23  1  0  0  0
 23 24  2  0  0  0
 24 25  1  0  0  0
 25 26  2  0  0  0
 25 27  1  0  0  0
 27 28  3  0  0  0
 10 11  1  0  0  0
 11 12  2  0  0  0
 12 13  1  0  0  0
 13  1  1  0  0  0
 12  3  1  0  0  0
 11  6  1  0  0  0
 26 21  1  0  0  0
 15 16  1  0  0  0
 19 20  1  0  0  0
M  END
> <minimizedAffinity>
-7.49175

> <CNNscore>
0.4462418258

> <CNNaffinity>
6.8060011864

> <CNN_VS>
3.0371224880

> <CNNaffinity_variance>
0.1793264300

$$$$
[H]C#Cc1c([H])c([H])c([H])c(N([H])c2nc([H])nc3c([H])c([H])c4nc(C(=N[H])OC([H])([H])[H])sc4c23)c1[H]


 28 31  0  0  0  0  0  0  0  0999 V2000
  -87.2835   27.6923    1.2749 C   0  0  0  0  0  0  0  0  0  0  0  0
  -86.0264   27.8549    1.6039 N   0  0  0  0  0  0  0  0  0  0  0  0
  -85.3881   28.9400    1.2798 C   0  0  0  0  0  0  0  0  0  0  0  0
  -84.0418   29.2285    1.5670 C   0  0  0  0  0  0  0  0  0  0  0  0
  -83.4962   30.3954    1.1643 C   0  0  0  0  0  0  0  0  0  0  0  0
  -84.1785   31.3652    0.4674 C   0  0  0  0  0  0  0  0  0  0  0  0
  -83.6161   32.5078    0.0716 N   0  0  0  0  0  0  0  0  0  0  0  0
  -84.3717   33.4050   -0.6230 C   0  0  0  0  0  0  0  0  0  0  0  0
  -85.6450   33.1498   -0.9017 N   0  0  0  0  0  0  0  0  0  0  0  0
  -86.2868   32.0007   -0.5272 C   0  0  0  0  0  0  0  0  0  0  0  0
  -85.5298   31.1074    0.1643 C   0  0  0  0  0  0  0  0  0  0  0  0
  -86.0781   29.9045    0.5832 C   0  0  0  0  0  0  0  0  0  0  0  0
  -87.6046   29.1453    0.4587 S   0  0  0  0  0  0  0  0  0  0  0  0
  -88.1927   26.5491    1.5377 C   0  0  0  0  0  0  0  0  0  0  0  0
  -88.0466   25.8827    2.6265 N   0  0  0  0  0  0  0  0  0  0  0  0
  -87.2965   26.1680    3.2845 H   0  0  0  0  0  0  0  0  0  0  0  0
  -88.7432   25.7132   -0.6333 C   0  0  0  0  0  0  0  0  0  0  0  0
  -89.1693   26.2024    0.6481 O   0  0  0  0  0  0  0  0  0  0  0  0
  -87.6459   31.8099   -0.7967 N   0  0  0  0  0  0  0  0  0  0  0  0
  -88.3528   31.8059   -0.0736 H   0  0  0  0  0  0  0  0  0  0  0  0
  -88.1741   31.6159   -2.1384 C   0  0  0  0  0  0  0  0  0  0  0  0
  -87.3249   32.0098   -3.1841 C   0  0  0  0  0  0  0  0  0  0  0  0
  -87.6939   31.9141   -4.5058 C   0  0  0  0  0  0  0  0  0  0  0  0
  -88.9405   31.4132   -4.7902 C   0  0  0  0  0  0  0  0  0  0  0  0
  -89.7748   31.0271   -3.7684 C   0  0  0  0  0  0  0  0  0  0  0  0
  -89.3991   31.1250   -2.4232 C   0  0  0  0  0  0  0  0  0  0  0  0
  -91.0681   30.5095   -4.1082 C   0  0  0  0  0  0  0  0  0  0  0  0
  -92.1634   30.0552   -4.3945 C   0  0  0  0  0  0  0  0  0  0  0  0
 17 18  1  0  0  0
 18 14  1  0  0  0
 14 15  2  0  0  0
 14  1  1  0  0  0
  1  2  2  0  0  0
  2  3  1  0  0  0
  3  4  2  0  0  0
  4  5  1  0  0  0
  5  6  2  0  0  0
  6  7  1  0  0  0
  7  8  2  0  0  0
  8  9  1  0  0  0
  9 10  2  0  0  0
 10 19  1  0  0  0
 19 21  1  0  0  0
 21 22  2  0  0  0
 22 23  1  0  0  0
 23 24  2  0  0  0
 24 25  1  0  0  0
 25 26  2  0  0  0
 25 27  1  0  0  0
 27 28  3  0  0  0
 10 11  1  0  0  0
 11 12  2  0  0  0
 12 13  1  0  0  0
 13  1  1  0  0  0
 12  3  1  0  0  0
 11  6  1  0  0  0
 26 21  1  0  0  0
 15 16  1  0  0  0
 19 20  1  0  0  0
M  END
> <minimizedAffinity>
-7.79092

> <CNNscore>
0.3137126863

> <CNNaffinity>
6.6588683128

> <CNN_VS>
2.0889713764

> <CNNaffinity_variance>
0.2422259748

$$$$
[H]C#Cc1c([H])c([H])c([H])c(N([H])c2nc([H])nc3c([H])c([H])c4nc(C(=N[H])OC([H])([H])[H])sc4c23)c1[H]


 28 31  0  0  0  0  0  0  0  0999 V2000
  -88.5314   27.9824   -1.6125 C   0  0  0  0  0  0  0  0  0  0  0  0
  -88.7528   28.4951   -2.7972 N   0  0  0  0  0  0  0  0  0  0  0  0
  -88.4109   29.7198   -3.0672 C   0  0  0  0  0  0  0  0  0  0  0  0
  -88.6010   30.3839   -4.2923 C   0  0  0  0  0  0  0  0  0  0  0  0
  -88.2048   31.6658   -4.4389 C   0  0  0  0  0  0  0  0  0  0  0  0
  -87.6052   32.4054   -3.4464 C   0  0  0  0  0  0  0  0  0  0  0  0
  -87.2297   33.6744   -3.6110 N   0  0  0  0  0  0  0  0  0  0  0  0
  -86.6509   34.3285   -2.5643 C   0  0  0  0  0  0  0  0  0  0  0  0
  -86.4621   33.7164   -1.4008 N   0  0  0  0  0  0  0  0  0  0  0  0
  -86.8212   32.4179   -1.1609 C   0  0  0  0  0  0  0  0  0  0  0  0
  -87.3994   31.7688   -2.2066 C   0  0  0  0  0  0  0  0  0  0  0  0
  -87.8116   30.4520   -2.0689 C   0  0  0  0  0  0  0  0  0  0  0  0
  -87.7976   29.2890   -0.8161 S   0  0  0  0  0  0  0  0  0  0  0  0
  -88.8371   26.6258   -1.0937 C   0  0  0  0  0  0  0  0  0  0  0  0
  -88.4170   25.6051   -1.7512 N   0  0  0  0  0  0  0  0  0  0  0  0
  -87.8780   25.7657   -2.6234 H   0  0  0  0  0  0  0  0  0  0  0  0
  -88.8157   26.0587    1.2285 C   0  0  0  0  0  0  0  0  0  0  0  0
  -89.5496   26.4528    0.0585 O   0  0  0  0  0  0  0  0  0  0  0  0
  -86.5451   31.8053    0.0658 N   0  0  0  0  0  0  0  0  0  0  0  0
  -87.2612   31.6005    0.7496 H   0  0  0  0  0  0  0  0  0  0  0  0
  -85.2098   31.3908    0.4683 C   0  0  0  0  0  0  0  0  0  0  0  0
  -84.1685   32.2466    0.0770 C   0  0  0  0  0  0  0  0  0  0  0  0
  -82.8497   31.9759    0.3593 C   0  0  0  0  0  0  0  0  0  0  0  0
  -82.5638   30.8231    1.0487 C   0  0  0  0  0  0  0  0  0  0  0  0
  -83.5812   29.9826    1.4329 C   0  0  0  0  0  0  0  0  0  0  0  0
  -84.9234   30.2582    1.1450 C   0  0  0  0  0  0  0  0  0  0  0  0
  -83.2399   28.7893    2.1508 C   0  0  0  0  0  0  0  0  0  0  0  0
  -82.9602   27.7666    2.7541 C   0  0  0  0  0  0  0  0  0  0  0  0
 17 18  1  0  0  0
 18 14  1  0  0  0
 14 15  2  0  0  0
 14  1  1  0  0  0
  1  2  2  0  0  0
  2  3  1  0  0  0
  3  4  2  0  0  0
  4  5  1  0  0  0
  5  6  2  0  0  0
  6  7  1  0  0  0
  7  8  2  0  0  0
  8  9  1  0  0  0
  9 10  2  0  0  0
 10 19  1  0  0  0
 19 21  1  0  0  0
 21 22  2  0  0  0
 22 23  1  0  0  0
 23 24  2  0  0  0
 24 25  1  0  0  0
 25 26  2  0  0  0
 25 27  1  0  0  0
 27 28  3  0  0  0
 10 11  1  0  0  0
 11 12  2  0  0  0
 12 13  1  0  0  0
 13  1  1  0  0  0
 12  3  1  0  0  0
 11  6  1  0  0  0
 26 21  1  0  0  0
 15 16  1  0  0  0
 19 20  1  0  0  0
M  END
> <minimizedAffinity>
-9.36074

> <CNNscore>
0.2230312973

> <CNNaffinity>
6.2989234924

> <CNN_VS>
1.4048570395

> <CNNaffinity_variance>
0.4666336179

$$$$
[H]C#Cc1c([H])c([H])c([H])c(N([H])c2nc([H])nc3c([H])c([H])c4nc(C(=N[H])OC([H])([H])[H])sc4c23)c1[H]


 28 31  0  0  0  0  0  0  0  0999 V2000
  -87.5385   35.3173   -3.9529 C   0  0  0  0  0  0  0  0  0  0  0  0
  -88.2128   34.5037   -4.7267 N   0  0  0  0  0  0  0  0  0  0  0  0
  -88.3656   33.2533   -4.4059 C   0  0  0  0  0  0  0  0  0  0  0  0
  -89.0577   32.2832   -5.1530 C   0  0  0  0  0  0  0  0  0  0  0  0
  -89.1354   31.0112   -4.7084 C   0  0  0  0  0  0  0  0  0  0  0  0
  -88.5696   30.5690   -3.5354 C   0  0  0  0  0  0  0  0  0  0  0  0
  -88.6515   29.3044   -3.1198 N   0  0  0  0  0  0  0  0  0  0  0  0
  -88.0495   28.9589   -1.9465 C   0  0  0  0  0  0  0  0  0  0  0  0
  -87.3933   29.8623   -1.2274 N   0  0  0  0  0  0  0  0  0  0  0  0
  -87.2692   31.1756   -1.5914 C   0  0  0  0  0  0  0  0  0  0  0  0
  -87.8697   31.5165   -2.7628 C   0  0  0  0  0  0  0  0  0  0  0  0
  -87.7967   32.8197   -3.2312 C   0  0  0  0  0  0  0  0  0  0  0  0
  -87.0839   34.2768   -2.6916 S   0  0  0  0  0  0  0  0  0  0  0  0
  -87.2430   36.7617   -4.1234 C   0  0  0  0  0  0  0  0  0  0  0  0
  -87.9728   37.6178   -3.5027 N   0  0  0  0  0  0  0  0  0  0  0  0
  -88.7445   37.2682   -2.9032 H   0  0  0  0  0  0  0  0  0  0  0  0
  -86.5423   38.1250   -5.9578 C   0  0  0  0  0  0  0  0  0  0  0  0
  -86.2185   37.1852   -4.9211 O   0  0  0  0  0  0  0  0  0  0  0  0
  -86.6163   32.0969   -0.7660 N   0  0  0  0  0  0  0  0  0  0  0  0
  -87.0393   32.9680   -0.4750 H   0  0  0  0  0  0  0  0  0  0  0  0
  -85.2782   31.8852   -0.2355 C   0  0  0  0  0  0  0  0  0  0  0  0
  -84.3453   32.8910   -0.5319 C   0  0  0  0  0  0  0  0  0  0  0  0
  -83.0337   32.8199   -0.1237 C   0  0  0  0  0  0  0  0  0  0  0  0
  -82.6441   31.7183    0.5978 C   0  0  0  0  0  0  0  0  0  0  0  0
  -83.5552   30.7313    0.8894 C   0  0  0  0  0  0  0  0  0  0  0  0
  -84.8900   30.8037    0.4733 C   0  0  0  0  0  0  0  0  0  0  0  0
  -83.1078   29.5976    1.6448 C   0  0  0  0  0  0  0  0  0  0  0  0
  -82.7231   28.6424    2.2986 C   0  0  0  0  0  0  0  0  0  0  0  0
 17 18  1  0  0  0
 18 14  1  0  0  0
 14 15  2  0  0  0
 14  1  1  0  0  0
  1  2  2  0  0  0
  2  3  1  0  0  0
  3  4  2  0  0  0
  4  5  1  0  0  0
  5  6  2  0  0  0
  6  7  1  0  0  0
  7  8  2  0  0  0
  8  9  1  0  0  0
  9 10  2  0  0  0
 10 19  1  0  0  0
 19 21  1  0  0  0
 21 22  2  0  0  0
 22 23  1  0  0  0
 23 24  2  0  0  0
 24 25  1  0  0  0
 25 26  2  0  0  0
 25 27  1  0  0  0
 27 28  3  0  0  0
 10 11  1  0  0  0
 11 12  2  0  0  0
 12 13  1  0  0  0
 13  1  1  0  0  0
 12  3  1  0  0  0
 11  6  1  0  0  0
 26 21  1  0  0  0
 15 16  1  0  0  0
 19 20  1  0  0  0
M  END
> <minimizedAffinity>
-8.82682

> <CNNscore>
0.1651768684

> <CNNaffinity>
6.0223226547

> <CNN_VS>
0.9947484136

> <CNNaffinity_variance>
0.3183320761

$$$$
[H]C#Cc1c([H])c([H])c([H])c(N([H])c2nc([H])nc3c([H])c([H])c4nc(C(=N[H])OC([H])([H])[H])sc4c23)c1[H]


 28 31  0  0  0  0  0  0  0  0999 V2000
  -88.7433   30.8755   -1.9370 C   0  0  0  0  0  0  0  0  0  0  0  0
  -87.8643   31.7406   -1.4965 N   0  0  0  0  0  0  0  0  0  0  0  0
  -86.9301   31.3779   -0.6686 C   0  0  0  0  0  0  0  0  0  0  0  0
  -85.9375   32.2101   -0.1205 C   0  0  0  0  0  0  0  0  0  0  0  0
  -85.0264   31.7062    0.7383 C   0  0  0  0  0  0  0  0  0  0  0  0
  -84.9885   30.3904    1.1370 C   0  0  0  0  0  0  0  0  0  0  0  0
  -84.0838   29.9160    1.9942 N   0  0  0  0  0  0  0  0  0  0  0  0
  -84.1325   28.5974    2.3368 C   0  0  0  0  0  0  0  0  0  0  0  0
  -85.0618   27.7966    1.8277 N   0  0  0  0  0  0  0  0  0  0  0  0
  -86.0196   28.2138    0.9438 C   0  0  0  0  0  0  0  0  0  0  0  0
  -85.9689   29.5298    0.6053 C   0  0  0  0  0  0  0  0  0  0  0  0
  -86.8995   30.0603   -0.2755 C   0  0  0  0  0  0  0  0  0  0  0  0
  -88.2404   29.4591   -1.1488 S   0  0  0  0  0  0  0  0  0  0  0  0
  -89.8792   31.0697   -2.8724 C   0  0  0  0  0  0  0  0  0  0  0  0
  -90.4832   32.2037   -2.8818 N   0  0  0  0  0  0  0  0  0  0  0  0
  -90.1548   32.9448   -2.2337 H   0  0  0  0  0  0  0  0  0  0  0  0
  -91.5683   30.2216   -4.3361 C   0  0  0  0  0  0  0  0  0  0  0  0
  -90.2837   30.0710   -3.7115 O   0  0  0  0  0  0  0  0  0  0  0  0
  -86.9383   27.3138    0.3940 N   0  0  0  0  0  0  0  0  0  0  0  0
  -86.8876   26.9957   -0.5645 H   0  0  0  0  0  0  0  0  0  0  0  0
  -88.0412   26.7382    1.1484 C   0  0  0  0  0  0  0  0  0  0  0  0
  -88.8696   25.8606    0.4319 C   0  0  0  0  0  0  0  0  0  0  0  0
  -89.9685   25.2592    1.0000 C   0  0  0  0  0  0  0  0  0  0  0  0
  -90.2471   25.5408    2.3149 C   0  0  0  0  0  0  0  0  0  0  0  0
  -89.4381   26.4002    3.0193 C   0  0  0  0  0  0  0  0  0  0  0  0
  -88.3199   27.0125    2.4407 C   0  0  0  0  0  0  0  0  0  0  0  0
  -89.7639   26.6676    4.3898 C   0  0  0  0  0  0  0  0  0  0  0  0
  -90.0535   26.8868    5.5543 C   0  0  0  0  0  0  0  0  0  0  0  0
 17 18  1  0  0  0
 18 14  1  0  0  0
 14 15  2  0  0  0
 14  1  1  0  0  0
  1  2  2  0  0  0
  2  3  1  0  0  0
  3  4  2  0  0  0
  4  5  1  0  0  0
  5  6  2  0  0  0
  6  7  1  0  0  0
  7  8  2  0  0  0
  8  9  1  0  0  0
  9 10  2  0  0  0
 10 19  1  0  0  0
 19 21  1  0  0  0
 21 22  2  0  0  0
 22 23  1  0  0  0
 23 24  2  0  0  0
 24 25  1  0  0  0
 25 26  2  0  0  0
 25 27  1  0  0  0
 27 28  3  0  0  0
 10 11  1  0  0  0
 11 12  2  0  0  0
 12 13  1  0  0  0
 13  1  1  0  0  0
 12  3  1  0  0  0
 11  6  1  0  0  0
 26 21  1  0  0  0
 15 16  1  0  0  0
 19 20  1  0  0  0
M  END
> <minimizedAffinity>
-7.79960

> <CNNscore>
0.1396582425

> <CNNaffinity>
6.4190320969

> <CNN_VS>
0.8964707255

> <CNNaffinity_variance>
0.2010255158

$$$$
[H]C#Cc1c([H])c([H])c([H])c(N([H])c2nc([H])nc3c([H])c([H])c4nc(C(=N[H])OC([H])([H])[H])sc4c23)c1[H]


 28 31  0  0  0  0  0  0  0  0999 V2000
  -85.0109   30.8724    0.3739 C   0  0  0  0  0  0  0  0  0  0  0  0
  -85.6424   31.9474   -0.0271 N   0  0  0  0  0  0  0  0  0  0  0  0
  -86.8498   31.8720   -0.5028 C   0  0  0  0  0  0  0  0  0  0  0  0
  -87.6264   32.9472   -0.9708 C   0  0  0  0  0  0  0  0  0  0  0  0
  -88.8695   32.7298   -1.4491 C   0  0  0  0  0  0  0  0  0  0  0  0
  -89.4628   31.4908   -1.5186 C   0  0  0  0  0  0  0  0  0  0  0  0
  -90.6900   31.2983   -2.0037 N   0  0  0  0  0  0  0  0  0  0  0  0
  -91.1897   30.0305   -2.0403 C   0  0  0  0  0  0  0  0  0  0  0  0
  -90.4710   29.0035   -1.6011 N   0  0  0  0  0  0  0  0  0  0  0  0
  -89.2073   29.1266   -1.0905 C   0  0  0  0  0  0  0  0  0  0  0  0
  -88.7115   30.3923   -1.0567 C   0  0  0  0  0  0  0  0  0  0  0  0
  -87.4354   30.6293   -0.5683 C   0  0  0  0  0  0  0  0  0  0  0  0
  -86.1716   29.6720    0.0710 S   0  0  0  0  0  0  0  0  0  0  0  0
  -83.6467   30.7295    0.9408 C   0  0  0  0  0  0  0  0  0  0  0  0
  -82.6557   31.2345    0.2977 N   0  0  0  0  0  0  0  0  0  0  0  0
  -82.8447   31.7251   -0.5971 H   0  0  0  0  0  0  0  0  0  0  0  0
  -82.5875   28.9184    2.0866 C   0  0  0  0  0  0  0  0  0  0  0  0
  -83.4359   30.0768    2.1218 O   0  0  0  0  0  0  0  0  0  0  0  0
  -88.5186   28.0179   -0.5879 N   0  0  0  0  0  0  0  0  0  0  0  0
  -87.6115   27.7335   -0.9326 H   0  0  0  0  0  0  0  0  0  0  0  0
  -89.0303   27.1798    0.4857 C   0  0  0  0  0  0  0  0  0  0  0  0
  -89.4043   25.8801    0.1107 C   0  0  0  0  0  0  0  0  0  0  0  0
  -89.9311   24.9796    1.0073 C   0  0  0  0  0  0  0  0  0  0  0  0
  -90.0881   25.3866    2.3094 C   0  0  0  0  0  0  0  0  0  0  0  0
  -89.7233   26.6589    2.6798 C   0  0  0  0  0  0  0  0  0  0  0  0
  -89.1876   27.5754    1.7669 C   0  0  0  0  0  0  0  0  0  0  0  0
  -89.9037   27.0442    4.0491 C   0  0  0  0  0  0  0  0  0  0  0  0
  -90.0649   27.3840    5.2095 C   0  0  0  0  0  0  0  0  0  0  0  0
 17 18  1  0  0  0
 18 14  1  0  0  0
 14 15  2  0  0  0
 14  1  1  0  0  0
  1  2  2  0  0  0
  2  3  1  0  0  0
  3  4  2  0  0  0
  4  5  1  0  0  0
  5  6  2  0  0  0
  6  7  1  0  0  0
  7  8  2  0  0  0
  8  9  1  0  0  0
  9 10  2  0  0  0
 10 19  1  0  0  0
 19 21  1  0  0  0
 21 22  2  0  0  0
 22 23  1  0  0  0
 23 24  2  0  0  0
 24 25  1  0  0  0
 25 26  2  0  0  0
 25 27  1  0  0  0
 27 28  3  0  0  0
 10 11  1  0  0  0
 11 12  2  0  0  0
 12 13  1  0  0  0
 13  1  1  0  0  0
 12  3  1  0  0  0
 11  6  1  0  0  0
 26 21  1  0  0  0
 15 16  1  0  0  0
 19 20  1  0  0  0
M  END
> <minimizedAffinity>
-7.57963

> <CNNscore>
0.1389553100

> <CNNaffinity>
6.4431128502

> <CNN_VS>
0.8953047395

> <CNNaffinity_variance>
0.0663837269

$$$$
[H]c1sc(-c2c([H])c([H])c3c(c2[H])C([H])([H])C([H])([H])O3)nc1C(=O)N([H])c1nn([H])c([H])c1C(=O)OC([H])([H])C([H])([H])[H]


 29 32  0  0  0  0  0  0  0  0999 V2000
  -86.7914   29.7158    0.9479 N   0  0  0  0  0  0  0  0  0  0  0  0
  -86.7056   30.1055   -0.4122 C   0  0  0  0  0  0  0  0  0  0  0  0
  -86.7387   29.2437   -1.3085 O   0  0  0  0  0  0  0  0  0  0  0  0
  -86.7643   30.4343    1.7060 H   0  0  0  0  0  0  0  0  0  0  0  0
  -85.9851   27.5402    1.8608 C   0  0  0  0  0  0  0  0  0  0  0  0
  -86.5890   26.3005    1.9675 C   0  0  0  0  0  0  0  0  0  0  0  0
  -87.8402   26.3596    1.4649 N   0  0  0  0  0  0  0  0  0  0  0  0
  -88.0051   27.6028    1.0583 N   0  0  0  0  0  0  0  0  0  0  0  0
  -86.9136   28.3546    1.2755 C   0  0  0  0  0  0  0  0  0  0  0  0
  -88.4800   25.5370    1.4429 H   0  0  0  0  0  0  0  0  0  0  0  0
  -84.6247   27.8595    2.3016 C   0  0  0  0  0  0  0  0  0  0  0  0
  -83.8124   27.0097    2.7013 O   0  0  0  0  0  0  0  0  0  0  0  0
  -84.2030   29.2032    2.2752 O   0  0  0  0  0  0  0  0  0  0  0  0
  -82.8936   30.5699    0.8774 C   0  0  0  0  0  0  0  0  0  0  0  0
  -82.8496   29.5105    1.9629 C   0  0  0  0  0  0  0  0  0  0  0  0
  -86.5759   31.5338   -0.7974 C   0  0  0  0  0  0  0  0  0  0  0  0
  -85.6575   32.3411   -0.1671 C   0  0  0  0  0  0  0  0  0  0  0  0
  -85.9148   33.8347   -0.9642 S   0  0  0  0  0  0  0  0  0  0  0  0
  -87.1517   33.3429   -2.0281 C   0  0  0  0  0  0  0  0  0  0  0  0
  -87.3050   32.0720   -1.7233 N   0  0  0  0  0  0  0  0  0  0  0  0
  -87.8843   34.0990   -3.0361 C   0  0  0  0  0  0  0  0  0  0  0  0
  -89.2524   34.1806   -2.9685 C   0  0  0  0  0  0  0  0  0  0  0  0
  -89.9848   34.8986   -3.9204 C   0  0  0  0  0  0  0  0  0  0  0  0
  -89.3040   35.5308   -4.9400 C   0  0  0  0  0  0  0  0  0  0  0  0
  -89.7785   36.3018   -6.0048 O   0  0  0  0  0  0  0  0  0  0  0  0
  -88.7951   36.4426   -6.9954 C   0  0  0  0  0  0  0  0  0  0  0  0
  -87.5083   36.2439   -6.2304 C   0  0  0  0  0  0  0  0  0  0  0  0
  -87.9146   35.4639   -5.0320 C   0  0  0  0  0  0  0  0  0  0  0  0
  -87.2389   34.7396   -4.0631 C   0  0  0  0  0  0  0  0  0  0  0  0
 14 15  1  0  0  0
 15 13  1  0  0  0
 13 11  1  0  0  0
 11 12  2  0  0  0
 11  5  1  0  0  0
  5  6  2  0  0  0
  6  7  1  0  0  0
  7  8  1  0  0  0
  8  9  2  0  0  0
  9  1  1  0  0  0
  1  2  1  0  0  0
  2  3  2  0  0  0
  2 16  1  0  0  0
 16 17  2  0  0  0
 17 18  1  0  0  0
 18 19  1  0  0  0
 19 20  2  0  0  0
 19 21  1  0  0  0
 21 22  2  0  0  0
 22 23  1  0  0  0
 23 24  2  0  0  0
 24 25  1  0  0  0
 25 26  1  0  0  0
 26 27  1  0  0  0
 27 28  1  0  0  0
 28 29  2  0  0  0
  9  5  1  0  0  0
 20 16  1  0  0  0
 29 21  1  0  0  0
 28 24  1  0  0  0
  7 10  1  0  0  0
  1  4  1  0  0  0
M  END
> <minimizedAffinity>
-7.53878

> <CNNscore>
0.4159309268

> <CNNaffinity>
6.1322503090

> <CNN_VS>
2.5505926609

> <CNNaffinity_variance>
0.1025259495

$$$$
[H]c1sc(-c2c([H])c([H])c3c(c2[H])C([H])([H])C([H])([H])O3)nc1C(=O)N([H])c1nn([H])c([H])c1C(=O)OC([H])([H])C([H])([H])[H]


 29 32  0  0  0  0  0  0  0  0999 V2000
  -87.4027   31.6153   -0.1289 N   0  0  0  0  0  0  0  0  0  0  0  0
  -87.6491   30.2696   -0.4996 C   0  0  0  0  0  0  0  0  0  0  0  0
  -86.7870   29.6309   -1.1289 O   0  0  0  0  0  0  0  0  0  0  0  0
  -88.1222   32.1579    0.3998 H   0  0  0  0  0  0  0  0  0  0  0  0
  -84.9682   32.0844    0.1363 C   0  0  0  0  0  0  0  0  0  0  0  0
  -84.0953   32.8806   -0.5828 C   0  0  0  0  0  0  0  0  0  0  0  0
  -84.7560   33.4794   -1.5960 N   0  0  0  0  0  0  0  0  0  0  0  0
  -86.0040   33.0642   -1.5055 N   0  0  0  0  0  0  0  0  0  0  0  0
  -86.1825   32.2205   -0.4758 C   0  0  0  0  0  0  0  0  0  0  0  0
  -84.2924   34.1266   -2.2688 H   0  0  0  0  0  0  0  0  0  0  0  0
  -84.6103   31.2799    1.3075 C   0  0  0  0  0  0  0  0  0  0  0  0
  -84.7454   31.6696    2.4787 O   0  0  0  0  0  0  0  0  0  0  0  0
  -84.0820   29.9898    1.1062 O   0  0  0  0  0  0  0  0  0  0  0  0
  -83.2139   28.2872    2.4787 C   0  0  0  0  0  0  0  0  0  0  0  0
  -82.8959   29.6002    1.7880 C   0  0  0  0  0  0  0  0  0  0  0  0
  -88.9258   29.5961   -0.1508 C   0  0  0  0  0  0  0  0  0  0  0  0
  -90.1178   30.0699   -0.6480 C   0  0  0  0  0  0  0  0  0  0  0  0
  -91.2341   28.9684    0.0395 S   0  0  0  0  0  0  0  0  0  0  0  0
  -90.1310   27.9948    0.8990 C   0  0  0  0  0  0  0  0  0  0  0  0
  -88.9739   28.5558    0.6199 N   0  0  0  0  0  0  0  0  0  0  0  0
  -90.3609   26.8282    1.7421 C   0  0  0  0  0  0  0  0  0  0  0  0
  -90.4937   26.9815    3.0992 C   0  0  0  0  0  0  0  0  0  0  0  0
  -90.7152   25.8819    3.9357 C   0  0  0  0  0  0  0  0  0  0  0  0
  -90.7992   24.6265    3.3702 C   0  0  0  0  0  0  0  0  0  0  0  0
  -91.0109   23.3783    3.9621 O   0  0  0  0  0  0  0  0  0  0  0  0
  -90.6642   22.3433    3.0807 C   0  0  0  0  0  0  0  0  0  0  0  0
  -90.8078   22.9882    1.7228 C   0  0  0  0  0  0  0  0  0  0  0  0
  -90.6679   24.4430    1.9946 C   0  0  0  0  0  0  0  0  0  0  0  0
  -90.4497   25.5659    1.2127 C   0  0  0  0  0  0  0  0  0  0  0  0
 14 15  1  0  0  0
 15 13  1  0  0  0
 13 11  1  0  0  0
 11 12  2  0  0  0
 11  5  1  0  0  0
  5  6  2  0  0  0
  6  7  1  0  0  0
  7  8  1  0  0  0
  8  9  2  0  0  0
  9  1  1  0  0  0
  1  2  1  0  0  0
  2  3  2  0  0  0
  2 16  1  0  0  0
 16 17  2  0  0  0
 17 18  1  0  0  0
 18 19  1  0  0  0
 19 20  2  0  0  0
 19 21  1  0  0  0
 21 22  2  0  0  0
 22 23  1  0  0  0
 23 24  2  0  0  0
 24 25  1  0  0  0
 25 26  1  0  0  0
 26 27  1  0  0  0
 27 28  1  0  0  0
 28 29  2  0  0  0
  9  5  1  0  0  0
 20 16  1  0  0  0
 29 21  1  0  0  0
 28 24  1  0  0  0
  7 10  1  0  0  0
  1  4  1  0  0  0
M  END
> <minimizedAffinity>
-7.96812

> <CNNscore>
0.2468947768

> <CNNaffinity>
5.9789338112

> <CNN_VS>
1.4761675596

> <CNNaffinity_variance>
0.1217164621

$$$$
[H]c1sc(-c2c([H])c([H])c3c(c2[H])C([H])([H])C([H])([H])O3)nc1C(=O)N([H])c1nn([H])c([H])c1C(=O)OC([H])([H])C([H])([H])[H]


 29 32  0  0  0  0  0  0  0  0999 V2000
  -86.5444   29.6668   -0.9636 N   0  0  0  0  0  0  0  0  0  0  0  0
  -87.3344   30.8396   -1.0620 C   0  0  0  0  0  0  0  0  0  0  0  0
  -87.7839   31.3739   -0.0326 O   0  0  0  0  0  0  0  0  0  0  0  0
  -86.1635   29.2126   -1.8240 H   0  0  0  0  0  0  0  0  0  0  0  0
  -85.1951   29.3425    1.1080 C   0  0  0  0  0  0  0  0  0  0  0  0
  -85.3991   28.5643    2.2331 C   0  0  0  0  0  0  0  0  0  0  0  0
  -86.5605   27.8871    2.1129 N   0  0  0  0  0  0  0  0  0  0  0  0
  -87.0608   28.2375    0.9445 N   0  0  0  0  0  0  0  0  0  0  0  0
  -86.2735   29.1142    0.3000 C   0  0  0  0  0  0  0  0  0  0  0  0
  -86.9145   27.2374    2.8470 H   0  0  0  0  0  0  0  0  0  0  0  0
  -84.0404   30.2153    0.8809 C   0  0  0  0  0  0  0  0  0  0  0  0
  -83.0482   30.2537    1.6265 O   0  0  0  0  0  0  0  0  0  0  0  0
  -84.0444   31.0636   -0.2436 O   0  0  0  0  0  0  0  0  0  0  0  0
  -84.2920   33.2979   -0.9383 C   0  0  0  0  0  0  0  0  0  0  0  0
  -83.4076   32.3335   -0.1700 C   0  0  0  0  0  0  0  0  0  0  0  0
  -87.6418   31.4527   -2.3791 C   0  0  0  0  0  0  0  0  0  0  0  0
  -87.9646   30.6586   -3.4550 C   0  0  0  0  0  0  0  0  0  0  0  0
  -88.2168   31.8301   -4.6782 S   0  0  0  0  0  0  0  0  0  0  0  0
  -87.9006   33.2284   -3.7571 C   0  0  0  0  0  0  0  0  0  0  0  0
  -87.6204   32.7340   -2.5703 N   0  0  0  0  0  0  0  0  0  0  0  0
  -87.9219   34.6346   -4.1401 C   0  0  0  0  0  0  0  0  0  0  0  0
  -87.9969   34.9805   -5.4659 C   0  0  0  0  0  0  0  0  0  0  0  0
  -88.0194   36.3211   -5.8662 C   0  0  0  0  0  0  0  0  0  0  0  0
  -87.9644   37.3019   -4.8978 C   0  0  0  0  0  0  0  0  0  0  0  0
  -87.9708   38.6944   -5.0169 O   0  0  0  0  0  0  0  0  0  0  0  0
  -87.5376   39.2985   -3.8271 C   0  0  0  0  0  0  0  0  0  0  0  0
  -87.8443   38.2531   -2.7814 C   0  0  0  0  0  0  0  0  0  0  0  0
  -87.8877   36.9779   -3.5441 C   0  0  0  0  0  0  0  0  0  0  0  0
  -87.8687   35.6350   -3.2031 C   0  0  0  0  0  0  0  0  0  0  0  0
 14 15  1  0  0  0
 15 13  1  0  0  0
 13 11  1  0  0  0
 11 12  2  0  0  0
 11  5  1  0  0  0
  5  6  2  0  0  0
  6  7  1  0  0  0
  7  8  1  0  0  0
  8  9  2  0  0  0
  9  1  1  0  0  0
  1  2  1  0  0  0
  2  3  2  0  0  0
  2 16  1  0  0  0
 16 17  2  0  0  0
 17 18  1  0  0  0
 18 19  1  0  0  0
 19 20  2  0  0  0
 19 21  1  0  0  0
 21 22  2  0  0  0
 22 23  1  0  0  0
 23 24  2  0  0  0
 24 25  1  0  0  0
 25 26  1  0  0  0
 26 27  1  0  0  0
 27 28  1  0  0  0
 28 29  2  0  0  0
  9  5  1  0  0  0
 20 16  1  0  0  0
 29 21  1  0  0  0
 28 24  1  0  0  0
  7 10  1  0  0  0
  1  4  1  0  0  0
M  END
> <minimizedAffinity>
-7.10551

> <CNNscore>
0.1768318713

> <CNNaffinity>
5.6441183090

> <CNN_VS>
0.9980599880

> <CNNaffinity_variance>
0.3223392069

$$$$
[H]c1sc(-c2c([H])c([H])c3c(c2[H])C([H])([H])C([H])([H])O3)nc1C(=O)N([H])c1nn([H])c([H])c1C(=O)OC([H])([H])C([H])([H])[H]


 29 32  0  0  0  0  0  0  0  0999 V2000
  -86.2720   30.1832    0.9526 N   0  0  0  0  0  0  0  0  0  0  0  0
  -86.8119   29.6774   -0.2565 C   0  0  0  0  0  0  0  0  0  0  0  0
  -86.2509   28.7331   -0.8402 O   0  0  0  0  0  0  0  0  0  0  0  0
  -86.7379   30.9762    1.4482 H   0  0  0  0  0  0  0  0  0  0  0  0
  -83.8166   30.0587    1.3682 C   0  0  0  0  0  0  0  0  0  0  0  0
  -83.0411   29.1518    2.0675 C   0  0  0  0  0  0  0  0  0  0  0  0
  -83.8286   28.1887    2.5908 N   0  0  0  0  0  0  0  0  0  0  0  0
  -85.0582   28.4924    2.2246 N   0  0  0  0  0  0  0  0  0  0  0  0
  -85.1032   29.6126    1.4852 C   0  0  0  0  0  0  0  0  0  0  0  0
  -83.4542   27.3989    3.1587 H   0  0  0  0  0  0  0  0  0  0  0  0
  -83.3099   31.2396    0.6642 C   0  0  0  0  0  0  0  0  0  0  0  0
  -82.3032   31.8742    1.0188 O   0  0  0  0  0  0  0  0  0  0  0  0
  -83.9951   31.6902   -0.4811 O   0  0  0  0  0  0  0  0  0  0  0  0
  -85.5484   33.4547   -0.3816 C   0  0  0  0  0  0  0  0  0  0  0  0
  -84.1170   33.0863   -0.7250 C   0  0  0  0  0  0  0  0  0  0  0  0
  -88.0450   30.2541   -0.8499 C   0  0  0  0  0  0  0  0  0  0  0  0
  -89.2722   29.6954   -0.5774 C   0  0  0  0  0  0  0  0  0  0  0  0
  -90.3151   30.7098   -1.4806 S   0  0  0  0  0  0  0  0  0  0  0  0
  -89.1425   31.7594   -2.1339 C   0  0  0  0  0  0  0  0  0  0  0  0
  -88.0215   31.2858   -1.6332 N   0  0  0  0  0  0  0  0  0  0  0  0
  -89.2925   32.9034   -3.0244 C   0  0  0  0  0  0  0  0  0  0  0  0
  -89.8954   32.7434   -4.2466 C   0  0  0  0  0  0  0  0  0  0  0  0
  -90.0547   33.8215   -5.1242 C   0  0  0  0  0  0  0  0  0  0  0  0
  -89.5916   35.0625   -4.7389 C   0  0  0  0  0  0  0  0  0  0  0  0
  -89.6207   36.2887   -5.4089 O   0  0  0  0  0  0  0  0  0  0  0  0
  -88.7289   37.1988   -4.8217 C   0  0  0  0  0  0  0  0  0  0  0  0
  -88.6015   36.6879   -3.4064 C   0  0  0  0  0  0  0  0  0  0  0  0
  -88.9754   35.2525   -3.5030 C   0  0  0  0  0  0  0  0  0  0  0  0
  -88.8435   34.1510   -2.6728 C   0  0  0  0  0  0  0  0  0  0  0  0
 14 15  1  0  0  0
 15 13  1  0  0  0
 13 11  1  0  0  0
 11 12  2  0  0  0
 11  5  1  0  0  0
  5  6  2  0  0  0
  6  7  1  0  0  0
  7  8  1  0  0  0
  8  9  2  0  0  0
  9  1  1  0  0  0
  1  2  1  0  0  0
  2  3  2  0  0  0
  2 16  1  0  0  0
 16 17  2  0  0  0
 17 18  1  0  0  0
 18 19  1  0  0  0
 19 20  2  0  0  0
 19 21  1  0  0  0
 21 22  2  0  0  0
 22 23  1  0  0  0
 23 24  2  0  0  0
 24 25  1  0  0  0
 25 26  1  0  0  0
 26 27  1  0  0  0
 27 28  1  0  0  0
 28 29  2  0  0  0
  9  5  1  0  0  0
 20 16  1  0  0  0
 29 21  1  0  0  0
 28 24  1  0  0  0
  7 10  1  0  0  0
  1  4  1  0  0  0
M  END
> <minimizedAffinity>
-7.20380

> <CNNscore>
0.1716251075

> <CNNaffinity>
6.0141558647

> <CNN_VS>
1.0321801901

> <CNNaffinity_variance>
0.1030663997

$$$$
[H]c1sc(-c2c([H])c([H])c3c(c2[H])C([H])([H])C([H])([H])O3)nc1C(=O)N([H])c1nn([H])c([H])c1C(=O)OC([H])([H])C([H])([H])[H]


 29 32  0  0  0  0  0  0  0  0999 V2000
  -86.3531   30.2958    0.6937 N   0  0  0  0  0  0  0  0  0  0  0  0
  -86.8472   29.4575   -0.3370 C   0  0  0  0  0  0  0  0  0  0  0  0
  -86.0538   28.8350   -1.0652 O   0  0  0  0  0  0  0  0  0  0  0  0
  -87.0137   30.8216    1.3092 H   0  0  0  0  0  0  0  0  0  0  0  0
  -84.1428   31.4291    0.4769 C   0  0  0  0  0  0  0  0  0  0  0  0
  -82.8769   31.0794    0.9106 C   0  0  0  0  0  0  0  0  0  0  0  0
  -82.9294   29.8978    1.5608 N   0  0  0  0  0  0  0  0  0  0  0  0
  -84.1943   29.5271    1.5296 N   0  0  0  0  0  0  0  0  0  0  0  0
  -84.9663   30.4182    0.8865 C   0  0  0  0  0  0  0  0  0  0  0  0
  -82.0880   29.4419    1.9738 H   0  0  0  0  0  0  0  0  0  0  0  0
  -84.4762   32.6471   -0.2662 C   0  0  0  0  0  0  0  0  0  0  0  0
  -83.6436   33.3209   -0.8944 O   0  0  0  0  0  0  0  0  0  0  0  0
  -85.8137   33.0888   -0.2760 O   0  0  0  0  0  0  0  0  0  0  0  0
  -87.0597   32.6162   -2.2151 C   0  0  0  0  0  0  0  0  0  0  0  0
  -86.3425   33.7076   -1.4426 C   0  0  0  0  0  0  0  0  0  0  0  0
  -88.3054   29.3026   -0.5712 C   0  0  0  0  0  0  0  0  0  0  0  0
  -89.1833   30.2699   -0.1399 C   0  0  0  0  0  0  0  0  0  0  0  0
  -90.6832   29.6175   -0.6468 S   0  0  0  0  0  0  0  0  0  0  0  0
  -90.1053   28.1825   -1.3614 C   0  0  0  0  0  0  0  0  0  0  0  0
  -88.8054   28.2731   -1.1783 N   0  0  0  0  0  0  0  0  0  0  0  0
  -90.8264   27.1003   -2.0197 C   0  0  0  0  0  0  0  0  0  0  0  0
  -91.7149   27.3844   -3.0261 C   0  0  0  0  0  0  0  0  0  0  0  0
  -92.4226   26.3683   -3.6779 C   0  0  0  0  0  0  0  0  0  0  0  0
  -92.2119   25.0614   -3.2900 C   0  0  0  0  0  0  0  0  0  0  0  0
  -92.7756   23.8734   -3.7636 O   0  0  0  0  0  0  0  0  0  0  0  0
  -92.5599   22.8237   -2.8582 C   0  0  0  0  0  0  0  0  0  0  0  0
  -91.3278   23.2680   -2.1067 C   0  0  0  0  0  0  0  0  0  0  0  0
  -91.3150   24.7454   -2.2706 C   0  0  0  0  0  0  0  0  0  0  0  0
  -90.6408   25.7900   -1.6589 C   0  0  0  0  0  0  0  0  0  0  0  0
 14 15  1  0  0  0
 15 13  1  0  0  0
 13 11  1  0  0  0
 11 12  2  0  0  0
 11  5  1  0  0  0
  5  6  2  0  0  0
  6  7  1  0  0  0
  7  8  1  0  0  0
  8  9  2  0  0  0
  9  1  1  0  0  0
  1  2  1  0  0  0
  2  3  2  0  0  0
  2 16  1  0  0  0
 16 17  2  0  0  0
 17 18  1  0  0  0
 18 19  1  0  0  0
 19 20  2  0  0  0
 19 21  1  0  0  0
 21 22  2  0  0  0
 22 23  1  0  0  0
 23 24  2  0  0  0
 24 25  1  0  0  0
 25 26  1  0  0  0
 26 27  1  0  0  0
 27 28  1  0  0  0
 28 29  2  0  0  0
  9  5  1  0  0  0
 20 16  1  0  0  0
 29 21  1  0  0  0
 28 24  1  0  0  0
  7 10  1  0  0  0
  1  4  1  0  0  0
M  END
> <minimizedAffinity>
-6.94143

> <CNNscore>
0.1396410912

> <CNNaffinity>
5.6875772476

> <CNN_VS>
0.7942194939

> <CNNaffinity_variance>
0.0905295089

$$$$
[H]c1sc(-c2c([H])c([H])c3c(c2[H])C([H])([H])C([H])([H])O3)nc1C(=O)N([H])c1nn([H])c([H])c1C(=O)OC([H])([H])C([H])([H])[H]


 29 32  0  0  0  0  0  0  0  0999 V2000
  -88.8829   30.8282   -2.7327 N   0  0  0  0  0  0  0  0  0  0  0  0
  -88.5062   31.4006   -3.9736 C   0  0  0  0  0  0  0  0  0  0  0  0
  -87.7964   30.7552   -4.7653 O   0  0  0  0  0  0  0  0  0  0  0  0
  -89.4789   31.3645   -2.0628 H   0  0  0  0  0  0  0  0  0  0  0  0
  -87.4895   29.1644   -1.5050 C   0  0  0  0  0  0  0  0  0  0  0  0
  -87.4414   27.7830   -1.5520 C   0  0  0  0  0  0  0  0  0  0  0  0
  -88.3416   27.3271   -2.4484 N   0  0  0  0  0  0  0  0  0  0  0  0
  -88.9304   28.3984   -2.9422 N   0  0  0  0  0  0  0  0  0  0  0  0
  -88.4507   29.5318   -2.4045 C   0  0  0  0  0  0  0  0  0  0  0  0
  -88.4774   26.3130   -2.6474 H   0  0  0  0  0  0  0  0  0  0  0  0
  -86.6567   30.0114   -0.6471 C   0  0  0  0  0  0  0  0  0  0  0  0
  -85.6368   29.6099   -0.0636 O   0  0  0  0  0  0  0  0  0  0  0  0
  -87.0237   31.3592   -0.4661 O   0  0  0  0  0  0  0  0  0  0  0  0
  -86.6313   33.4894   -1.3851 C   0  0  0  0  0  0  0  0  0  0  0  0
  -86.0320   32.3759   -0.5464 C   0  0  0  0  0  0  0  0  0  0  0  0
  -88.9434   32.7674   -4.3555 C   0  0  0  0  0  0  0  0  0  0  0  0
  -90.2600   33.1395   -4.2119 C   0  0  0  0  0  0  0  0  0  0  0  0
  -90.2198   34.7550   -4.7785 S   0  0  0  0  0  0  0  0  0  0  0  0
  -88.5604   34.8493   -5.1542 C   0  0  0  0  0  0  0  0  0  0  0  0
  -88.1236   33.6511   -4.8305 N   0  0  0  0  0  0  0  0  0  0  0  0
  -87.7779   35.9525   -5.6973 C   0  0  0  0  0  0  0  0  0  0  0  0
  -87.9979   36.3782   -6.9831 C   0  0  0  0  0  0  0  0  0  0  0  0
  -87.2637   37.4344   -7.5338 C   0  0  0  0  0  0  0  0  0  0  0  0
  -86.3040   38.0492   -6.7566 C   0  0  0  0  0  0  0  0  0  0  0  0
  -85.4420   39.1091   -7.0510 O   0  0  0  0  0  0  0  0  0  0  0  0
  -84.3952   39.1740   -6.1191 C   0  0  0  0  0  0  0  0  0  0  0  0
  -84.9791   38.4979   -4.9016 C   0  0  0  0  0  0  0  0  0  0  0  0
  -86.0604   37.6364   -5.4476 C   0  0  0  0  0  0  0  0  0  0  0  0
  -86.8161   36.5859   -4.9521 C   0  0  0  0  0  0  0  0  0  0  0  0
 14 15  1  0  0  0
 15 13  1  0  0  0
 13 11  1  0  0  0
 11 12  2  0  0  0
 11  5  1  0  0  0
  5  6  2  0  0  0
  6  7  1  0  0  0
  7  8  1  0  0  0
  8  9  2  0  0  0
  9  1  1  0  0  0
  1  2  1  0  0  0
  2  3  2  0  0  0
  2 16  1  0  0  0
 16 17  2  0  0  0
 17 18  1  0  0  0
 18 19  1  0  0  0
 19 20  2  0  0  0
 19 21  1  0  0  0
 21 22  2  0  0  0
 22 23  1  0  0  0
 23 24  2  0  0  0
 24 25  1  0  0  0
 25 26  1  0  0  0
 26 27  1  0  0  0
 27 28  1  0  0  0
 28 29  2  0  0  0
  9  5  1  0  0  0
 20 16  1  0  0  0
 29 21  1  0  0  0
 28 24  1  0  0  0
  7 10  1  0  0  0
  1  4  1  0  0  0
M  END
> <minimizedAffinity>
-7.24788

> <CNNscore>
0.1252686083

> <CNNaffinity>
5.3294677734

> <CNN_VS>
0.6676149964

> <CNNaffinity_variance>
0.2702506781

$$$$
[H]c1sc(-c2c([H])c([H])c3c(c2[H])C([H])([H])C([H])([H])O3)nc1C(=O)N([H])c1nn([H])c([H])c1C(=O)OC([H])([H])C([H])([H])[H]


 29 32  0  0  0  0  0  0  0  0999 V2000
  -90.0243   27.0263    0.0534 N   0  0  0  0  0  0  0  0  0  0  0  0
  -90.5192   28.3179    0.3638 C   0  0  0  0  0  0  0  0  0  0  0  0
  -91.3916   28.4547    1.2397 O   0  0  0  0  0  0  0  0  0  0  0  0
  -89.2914   26.9039   -0.6811 H   0  0  0  0  0  0  0  0  0  0  0  0
  -90.1036   25.3899    1.9330 C   0  0  0  0  0  0  0  0  0  0  0  0
  -90.9126   24.2940    2.1725 C   0  0  0  0  0  0  0  0  0  0  0  0
  -91.7936   24.1495    1.1603 N   0  0  0  0  0  0  0  0  0  0  0  0
  -91.5358   25.1301    0.3175 N   0  0  0  0  0  0  0  0  0  0  0  0
  -90.5241   25.9061    0.7394 C   0  0  0  0  0  0  0  0  0  0  0  0
  -92.5022   23.3856    1.1323 H   0  0  0  0  0  0  0  0  0  0  0  0
  -89.0297   25.8575    2.8134 C   0  0  0  0  0  0  0  0  0  0  0  0
  -88.8170   25.3956    3.9462 O   0  0  0  0  0  0  0  0  0  0  0  0
  -88.1842   26.8888    2.3602 O   0  0  0  0  0  0  0  0  0  0  0  0
  -86.0859   27.8240    1.8516 C   0  0  0  0  0  0  0  0  0  0  0  0
  -86.9285   26.5644    1.7757 C   0  0  0  0  0  0  0  0  0  0  0  0
  -90.0155   29.5250   -0.3392 C   0  0  0  0  0  0  0  0  0  0  0  0
  -90.8279   30.2062   -1.2159 C   0  0  0  0  0  0  0  0  0  0  0  0
  -89.7911   31.4690   -1.7282 S   0  0  0  0  0  0  0  0  0  0  0  0
  -88.4167   31.0551   -0.8099 C   0  0  0  0  0  0  0  0  0  0  0  0
  -88.8157   29.9810   -0.1630 N   0  0  0  0  0  0  0  0  0  0  0  0
  -87.1098   31.6952   -0.7278 C   0  0  0  0  0  0  0  0  0  0  0  0
  -86.8829   32.8731   -1.3942 C   0  0  0  0  0  0  0  0  0  0  0  0
  -85.6397   33.5125   -1.3353 C   0  0  0  0  0  0  0  0  0  0  0  0
  -84.6333   32.9354   -0.5891 C   0  0  0  0  0  0  0  0  0  0  0  0
  -83.3191   33.3538   -0.3626 O   0  0  0  0  0  0  0  0  0  0  0  0
  -82.5418   32.3023    0.1459 C   0  0  0  0  0  0  0  0  0  0  0  0
  -83.5669   31.4003    0.7909 C   0  0  0  0  0  0  0  0  0  0  0  0
  -84.8372   31.7394    0.0974 C   0  0  0  0  0  0  0  0  0  0  0  0
  -86.0872   31.1486    0.0050 C   0  0  0  0  0  0  0  0  0  0  0  0
 14 15  1  0  0  0
 15 13  1  0  0  0
 13 11  1  0  0  0
 11 12  2  0  0  0
 11  5  1  0  0  0
  5  6  2  0  0  0
  6  7  1  0  0  0
  7  8  1  0  0  0
  8  9  2  0  0  0
  9  1  1  0  0  0
  1  2  1  0  0  0
  2  3  2  0  0  0
  2 16  1  0  0  0
 16 17  2  0  0  0
 17 18  1  0  0  0
 18 19  1  0  0  0
 19 20  2  0  0  0
 19 21  1  0  0  0
 21 22  2  0  0  0
 22 23  1  0  0  0
 23 24  2  0  0  0
 24 25  1  0  0  0
 25 26  1  0  0  0
 26 27  1  0  0  0
 27 28  1  0  0  0
 28 29  2  0  0  0
  9  5  1  0  0  0
 20 16  1  0  0  0
 29 21  1  0  0  0
 28 24  1  0  0  0
  7 10  1  0  0  0
  1  4  1  0  0  0
M  END
> <minimizedAffinity>
-7.66751

> <CNNscore>
0.1159169376

> <CNNaffinity>
5.8419337273

> <CNN_VS>
0.6771790385

> <CNNaffinity_variance>
0.0574164875

$$$$
[H]c1sc(-c2c([H])c([H])c3c(c2[H])C([H])([H])C([H])([H])O3)nc1C(=O)N([H])c1nn([H])c([H])c1C(=O)OC([H])([H])C([H])([H])[H]


 29 32  0  0  0  0  0  0  0  0999 V2000
  -88.2952   32.5179   -1.6954 N   0  0  0  0  0  0  0  0  0  0  0  0
  -88.0072   32.6474   -3.0773 C   0  0  0  0  0  0  0  0  0  0  0  0
  -87.3338   31.7761   -3.6556 O   0  0  0  0  0  0  0  0  0  0  0  0
  -88.8603   33.2459   -1.2031 H   0  0  0  0  0  0  0  0  0  0  0  0
  -86.6179   31.2605   -0.3454 C   0  0  0  0  0  0  0  0  0  0  0  0
  -86.6308   29.9869    0.1938 C   0  0  0  0  0  0  0  0  0  0  0  0
  -87.7962   29.3770   -0.1086 N   0  0  0  0  0  0  0  0  0  0  0  0
  -88.4852   30.2506   -0.8161 N   0  0  0  0  0  0  0  0  0  0  0  0
  -87.8166   31.4029   -0.9862 C   0  0  0  0  0  0  0  0  0  0  0  0
  -88.0225   28.4068    0.1975 H   0  0  0  0  0  0  0  0  0  0  0  0
  -85.5170   32.2198   -0.2238 C   0  0  0  0  0  0  0  0  0  0  0  0
  -85.6673   33.4513   -0.2735 O   0  0  0  0  0  0  0  0  0  0  0  0
  -84.2095   31.7292   -0.0398 O   0  0  0  0  0  0  0  0  0  0  0  0
  -82.8403   30.4662    1.3976 C   0  0  0  0  0  0  0  0  0  0  0  0
  -83.6220   31.7589    1.2554 C   0  0  0  0  0  0  0  0  0  0  0  0
  -88.4956   33.8110   -3.8600 C   0  0  0  0  0  0  0  0  0  0  0  0
  -89.8428   34.0779   -3.9378 C   0  0  0  0  0  0  0  0  0  0  0  0
  -89.8553   35.4765   -4.9258 S   0  0  0  0  0  0  0  0  0  0  0  0
  -88.1757   35.6273   -5.1706 C   0  0  0  0  0  0  0  0  0  0  0  0
  -87.6933   34.6094   -4.4905 N   0  0  0  0  0  0  0  0  0  0  0  0
  -87.4185   36.6139   -5.9306 C   0  0  0  0  0  0  0  0  0  0  0  0
  -87.8041   36.9353   -7.2077 C   0  0  0  0  0  0  0  0  0  0  0  0
  -87.0985   37.8783   -7.9634 C   0  0  0  0  0  0  0  0  0  0  0  0
  -85.9967   38.4875   -7.3998 C   0  0  0  0  0  0  0  0  0  0  0  0
  -85.1261   39.4480   -7.9222 O   0  0  0  0  0  0  0  0  0  0  0  0
  -83.9484   39.5188   -7.1629 C   0  0  0  0  0  0  0  0  0  0  0  0
  -84.3815   39.0031   -5.8113 C   0  0  0  0  0  0  0  0  0  0  0  0
  -85.5836   38.1793   -6.1046 C   0  0  0  0  0  0  0  0  0  0  0  0
  -86.3182   37.2386   -5.4008 C   0  0  0  0  0  0  0  0  0  0  0  0
 14 15  1  0  0  0
 15 13  1  0  0  0
 13 11  1  0  0  0
 11 12  2  0  0  0
 11  5  1  0  0  0
  5  6  2  0  0  0
  6  7  1  0  0  0
  7  8  1  0  0  0
  8  9  2  0  0  0
  9  1  1  0  0  0
  1  2  1  0  0  0
  2  3  2  0  0  0
  2 16  1  0  0  0
 16 17  2  0  0  0
 17 18  1  0  0  0
 18 19  1  0  0  0
 19 20  2  0  0  0
 19 21  1  0  0  0
 21 22  2  0  0  0
 22 23  1  0  0  0
 23 24  2  0  0  0
 24 25  1  0  0  0
 25 26  1  0  0  0
 26 27  1  0  0  0
 27 28  1  0  0  0
 28 29  2  0  0  0
  9  5  1  0  0  0
 20 16  1  0  0  0
 29 21  1  0  0  0
 28 24  1  0  0  0
  7 10  1  0  0  0
  1  4  1  0  0  0
M  END
> <minimizedAffinity>
-6.82586

> <CNNscore>
0.0996466652

> <CNNaffinity>
5.5352888107

> <CNN_VS>
0.5515730977

> <CNNaffinity_variance>
0.1059740633

$$$$
[H]c1sc(-c2c([H])c([H])c3c(c2[H])C([H])([H])C([H])([H])O3)nc1C(=O)N([H])c1nn([H])c([H])c1C(=O)OC([H])([H])C([H])([H])[H]


 29 32  0  0  0  0  0  0  0  0999 V2000
  -88.0328   28.2148   -0.8118 N   0  0  0  0  0  0  0  0  0  0  0  0
  -88.5945   29.5129   -0.9057 C   0  0  0  0  0  0  0  0  0  0  0  0
  -89.2770   29.9635    0.0315 O   0  0  0  0  0  0  0  0  0  0  0  0
  -87.4584   27.8299   -1.5951 H   0  0  0  0  0  0  0  0  0  0  0  0
  -87.3981   27.2284    1.3884 C   0  0  0  0  0  0  0  0  0  0  0  0
  -88.0811   26.4052    2.2652 C   0  0  0  0  0  0  0  0  0  0  0  0
  -89.3061   26.1301    1.7698 N   0  0  0  0  0  0  0  0  0  0  0  0
  -89.3781   26.7665    0.6174 N   0  0  0  0  0  0  0  0  0  0  0  0
  -88.2513   27.4438    0.3427 C   0  0  0  0  0  0  0  0  0  0  0  0
  -89.9941   25.5252    2.2669 H   0  0  0  0  0  0  0  0  0  0  0  0
  -86.0385   27.7363    1.5896 C   0  0  0  0  0  0  0  0  0  0  0  0
  -85.1435   27.0995    2.1687 O   0  0  0  0  0  0  0  0  0  0  0  0
  -85.7163   29.0182    1.1029 O   0  0  0  0  0  0  0  0  0  0  0  0
  -84.4736   30.7421    2.1129 C   0  0  0  0  0  0  0  0  0  0  0  0
  -84.3873   29.5079    1.2344 C   0  0  0  0  0  0  0  0  0  0  0  0
  -88.3855   30.3572   -2.1092 C   0  0  0  0  0  0  0  0  0  0  0  0
  -87.9216   29.7971   -3.2769 C   0  0  0  0  0  0  0  0  0  0  0  0
  -87.8639   31.1625   -4.3088 S   0  0  0  0  0  0  0  0  0  0  0  0
  -88.4238   32.3354   -3.2067 C   0  0  0  0  0  0  0  0  0  0  0  0
  -88.6251   31.6305   -2.1140 N   0  0  0  0  0  0  0  0  0  0  0  0
  -88.6409   33.7660   -3.3817 C   0  0  0  0  0  0  0  0  0  0  0  0
  -87.6171   34.6470   -3.1399 C   0  0  0  0  0  0  0  0  0  0  0  0
  -87.7934   36.0260   -3.2987 C   0  0  0  0  0  0  0  0  0  0  0  0
  -89.0256   36.4930   -3.7066 C   0  0  0  0  0  0  0  0  0  0  0  0
  -89.4682   37.7980   -3.9402 O   0  0  0  0  0  0  0  0  0  0  0  0
  -90.8696   37.8485   -3.9849 C   0  0  0  0  0  0  0  0  0  0  0  0
  -91.2503   36.4401   -4.3745 C   0  0  0  0  0  0  0  0  0  0  0  0
  -90.0825   35.6197   -3.9590 C   0  0  0  0  0  0  0  0  0  0  0  0
  -89.8533   34.2641   -3.7860 C   0  0  0  0  0  0  0  0  0  0  0  0
 14 15  1  0  0  0
 15 13  1  0  0  0
 13 11  1  0  0  0
 11 12  2  0  0  0
 11  5  1  0  0  0
  5  6  2  0  0  0
  6  7  1  0  0  0
  7  8  1  0  0  0
  8  9  2  0  0  0
  9  1  1  0  0  0
  1  2  1  0  0  0
  2  3  2  0  0  0
  2 16  1  0  0  0
 16 17  2  0  0  0
 17 18  1  0  0  0
 18 19  1  0  0  0
 19 20  2  0  0  0
 19 21  1  0  0  0
 21 22  2  0  0  0
 22 23  1  0  0  0
 23 24  2  0  0  0
 24 25  1  0  0  0
 25 26  1  0  0  0
 26 27  1  0  0  0
 27 28  1  0  0  0
 28 29  2  0  0  0
  9  5  1  0  0  0
 20 16  1  0  0  0
 29 21  1  0  0  0
 28 24  1  0  0  0
  7 10  1  0  0  0
  1  4  1  0  0  0
M  END
> <minimizedAffinity>
-6.93597

> <CNNscore>
0.0909155086

> <CNNaffinity>
5.7263445854

> <CNN_VS>
0.5206135511

> <CNNaffinity_variance>
0.0628220886

$$$$
[H]c1sc(-c2c([H])c([H])c3c(c2[H])C([H])([H])C([H])([H])O3)nc1C(=O)N([H])c1nc(SC([H])([H])C([H])([H])C([H])([H])[H])nn1[H]


 28 31  0  0  0  0  0  0  0  0999 V2000
  -82.6279   30.6019    1.1183 N   0  0  0  0  0  0  0  0  0  0  0  0
  -83.1429   29.4720    1.6268 C   0  0  0  0  0  0  0  0  0  0  0  0
  -82.2840   28.7329    2.3272 O   0  0  0  0  0  0  0  0  0  0  0  0
  -81.5458   30.7614    1.3225 H   0  0  0  0  0  0  0  0  0  0  0  0
  -84.7478   33.0582   -0.3769 C   0  0  0  0  0  0  0  0  0  0  0  0
  -83.5366   33.5724   -0.6506 N   0  0  0  0  0  0  0  0  0  0  0  0
  -82.6178   32.7452   -0.1115 N   0  0  0  0  0  0  0  0  0  0  0  0
  -83.1890   31.7215    0.4988 C   0  0  0  0  0  0  0  0  0  0  0  0
  -84.5354   31.9418    0.3162 N   0  0  0  0  0  0  0  0  0  0  0  0
  -81.6099   32.9909   -0.2629 H   0  0  0  0  0  0  0  0  0  0  0  0
  -86.2467   33.8493   -0.8504 S   0  0  0  0  0  0  0  0  0  0  0  0
  -87.0992   33.1601   -2.2365 C   0  0  0  0  0  0  0  0  0  0  0  0
  -89.1392   32.6097   -0.8997 C   0  0  0  0  0  0  0  0  0  0  0  0
  -88.0944   32.1255   -1.8645 C   0  0  0  0  0  0  0  0  0  0  0  0
  -84.4900   28.8602    1.5686 C   0  0  0  0  0  0  0  0  0  0  0  0
  -84.9591   28.0243    2.5537 C   0  0  0  0  0  0  0  0  0  0  0  0
  -86.5028   27.6089    1.9667 S   0  0  0  0  0  0  0  0  0  0  0  0
  -86.4688   28.5130    0.5130 C   0  0  0  0  0  0  0  0  0  0  0  0
  -85.2884   29.0767    0.5586 N   0  0  0  0  0  0  0  0  0  0  0  0
  -87.5226   28.6206   -0.5281 C   0  0  0  0  0  0  0  0  0  0  0  0
  -87.1513   28.5182   -1.8474 C   0  0  0  0  0  0  0  0  0  0  0  0
  -88.1285   28.6184   -2.8420 C   0  0  0  0  0  0  0  0  0  0  0  0
  -89.4584   28.8177   -2.5424 C   0  0  0  0  0  0  0  0  0  0  0  0
  -90.6133   28.9504   -3.3403 O   0  0  0  0  0  0  0  0  0  0  0  0
  -91.7409   28.5804   -2.5313 C   0  0  0  0  0  0  0  0  0  0  0  0
  -91.2906   29.1301   -1.1950 C   0  0  0  0  0  0  0  0  0  0  0  0
  -89.8201   28.9193   -1.2160 C   0  0  0  0  0  0  0  0  0  0  0  0
  -88.8425   28.8188   -0.2190 C   0  0  0  0  0  0  0  0  0  0  0  0
 13 14  1  0  0  0
 14 12  1  0  0  0
 12 11  1  0  0  0
 11  5  1  0  0  0
  5  6  2  0  0  0
  6  7  1  0  0  0
  7  8  1  0  0  0
  8  1  1  0  0  0
  1  2  1  0  0  0
  2  3  2  0  0  0
  2 15  1  0  0  0
 15 16  2  0  0  0
 16 17  1  0  0  0
 17 18  1  0  0  0
 18 19  2  0  0  0
 18 20  1  0  0  0
 20 21  2  0  0  0
 21 22  1  0  0  0
 22 23  2  0  0  0
 23 24  1  0  0  0
 24 25  1  0  0  0
 25 26  1  0  0  0
 26 27  1  0  0  0
 27 28  2  0  0  0
  8  9  2  0  0  0
  9  5  1  0  0  0
 19 15  1  0  0  0
 28 20  1  0  0  0
 27 23  1  0  0  0
  7 10  1  0  0  0
  1  4  1  0  0  0
M  END
> <minimizedAffinity>
-7.79567

> <CNNscore>
0.8910525441

> <CNNaffinity>
7.2148995399

> <CNN_VS>
6.4288544655

> <CNNaffinity_variance>
0.1119250432

$$$$
[H]c1sc(-c2c([H])c([H])c3c(c2[H])C([H])([H])C([H])([H])O3)nc1C(=O)N([H])c1nc(SC([H])([H])C([H])([H])C([H])([H])[H])nn1[H]


 28 31  0  0  0  0  0  0  0  0999 V2000
  -84.0484   31.9980    0.6229 N   0  0  0  0  0  0  0  0  0  0  0  0
  -84.6063   32.7370   -0.3481 C   0  0  0  0  0  0  0  0  0  0  0  0
  -83.7677   33.5620   -0.9733 O   0  0  0  0  0  0  0  0  0  0  0  0
  -82.9666   32.1893    0.7995 H   0  0  0  0  0  0  0  0  0  0  0  0
  -85.2151   28.8548    1.8568 C   0  0  0  0  0  0  0  0  0  0  0  0
  -85.3171   29.6117    2.9627 N   0  0  0  0  0  0  0  0  0  0  0  0
  -84.8765   30.8465    2.6465 N   0  0  0  0  0  0  0  0  0  0  0  0
  -84.4939   30.9137    1.3832 C   0  0  0  0  0  0  0  0  0  0  0  0
  -84.7186   29.6426    0.9055 N   0  0  0  0  0  0  0  0  0  0  0  0
  -84.9185   31.5738    3.4004 H   0  0  0  0  0  0  0  0  0  0  0  0
  -85.6342   27.1459    1.8311 S   0  0  0  0  0  0  0  0  0  0  0  0
  -87.0626   26.6975    0.8922 C   0  0  0  0  0  0  0  0  0  0  0  0
  -88.7487   27.3873    2.6047 C   0  0  0  0  0  0  0  0  0  0  0  0
  -88.2166   26.2887    1.7291 C   0  0  0  0  0  0  0  0  0  0  0  0
  -85.9854   32.8332   -0.8783 C   0  0  0  0  0  0  0  0  0  0  0  0
  -87.0004   32.0198   -0.4341 C   0  0  0  0  0  0  0  0  0  0  0  0
  -88.3165   32.5375   -1.3829 S   0  0  0  0  0  0  0  0  0  0  0  0
  -87.5119   33.7501   -2.2853 C   0  0  0  0  0  0  0  0  0  0  0  0
  -86.2924   33.6907   -1.8136 N   0  0  0  0  0  0  0  0  0  0  0  0
  -88.0715   34.6384   -3.3359 C   0  0  0  0  0  0  0  0  0  0  0  0
  -89.3687   35.0722   -3.2026 C   0  0  0  0  0  0  0  0  0  0  0  0
  -89.9139   35.9075   -4.1819 C   0  0  0  0  0  0  0  0  0  0  0  0
  -89.1905   36.3126   -5.2822 C   0  0  0  0  0  0  0  0  0  0  0  0
  -89.5001   37.1329   -6.3865 O   0  0  0  0  0  0  0  0  0  0  0  0
  -88.2626   37.6527   -6.8977 C   0  0  0  0  0  0  0  0  0  0  0  0
  -87.3659   36.4552   -6.6681 C   0  0  0  0  0  0  0  0  0  0  0  0
  -87.8903   35.8716   -5.4064 C   0  0  0  0  0  0  0  0  0  0  0  0
  -87.3431   35.0352   -4.4263 C   0  0  0  0  0  0  0  0  0  0  0  0
 13 14  1  0  0  0
 14 12  1  0  0  0
 12 11  1  0  0  0
 11  5  1  0  0  0
  5  6  2  0  0  0
  6  7  1  0  0  0
  7  8  1  0  0  0
  8  1  1  0  0  0
  1  2  1  0  0  0
  2  3  2  0  0  0
  2 15  1  0  0  0
 15 16  2  0  0  0
 16 17  1  0  0  0
 17 18  1  0  0  0
 18 19  2  0  0  0
 18 20  1  0  0  0
 20 21  2  0  0  0
 21 22  1  0  0  0
 22 23  2  0  0  0
 23 24  1  0  0  0
 24 25  1  0  0  0
 25 26  1  0  0  0
 26 27  1  0  0  0
 27 28  2  0  0  0
  8  9  2  0  0  0
  9  5  1  0  0  0
 19 15  1  0  0  0
 28 20  1  0  0  0
 27 23  1  0  0  0
  7 10  1  0  0  0
  1  4  1  0  0  0
M  END
> <minimizedAffinity>
-7.31511

> <CNNscore>
0.7707748413

> <CNNaffinity>
6.6527495384

> <CNN_VS>
5.1277718544

> <CNNaffinity_variance>
0.0313370824

$$$$
[H]c1sc(-c2c([H])c([H])c3c(c2[H])C([H])([H])C([H])([H])O3)nc1C(=O)N([H])c1nc(SC([H])([H])C([H])([H])C([H])([H])[H])nn1[H]


 28 31  0  0  0  0  0  0  0  0999 V2000
  -85.4617   26.7889    2.3216 N   0  0  0  0  0  0  0  0  0  0  0  0
  -84.3986   27.6049    2.2570 C   0  0  0  0  0  0  0  0  0  0  0  0
  -83.2802   27.1074    2.7827 O   0  0  0  0  0  0  0  0  0  0  0  0
  -85.2800   25.8159    2.8300 H   0  0  0  0  0  0  0  0  0  0  0  0
  -88.8806   27.3847    1.4735 C   0  0  0  0  0  0  0  0  0  0  0  0
  -88.5796   26.3923    0.6187 N   0  0  0  0  0  0  0  0  0  0  0  0
  -87.2830   26.0753    0.8115 N   0  0  0  0  0  0  0  0  0  0  0  0
  -86.7379   26.8246    1.7541 C   0  0  0  0  0  0  0  0  0  0  0  0
  -87.7682   27.6434    2.1573 N   0  0  0  0  0  0  0  0  0  0  0  0
  -86.8951   25.2893    0.2364 H   0  0  0  0  0  0  0  0  0  0  0  0
  -90.4657   28.1472    1.5264 S   0  0  0  0  0  0  0  0  0  0  0  0
  -91.0877   28.5644    3.1271 C   0  0  0  0  0  0  0  0  0  0  0  0
  -90.8033   26.5288    4.5510 C   0  0  0  0  0  0  0  0  0  0  0  0
  -90.3419   27.9237    4.2373 C   0  0  0  0  0  0  0  0  0  0  0  0
  -84.2042   28.9700    1.7173 C   0  0  0  0  0  0  0  0  0  0  0  0
  -83.0353   29.6703    1.8974 C   0  0  0  0  0  0  0  0  0  0  0  0
  -83.3755   31.1437    1.1139 S   0  0  0  0  0  0  0  0  0  0  0  0
  -84.9719   30.7924    0.6038 C   0  0  0  0  0  0  0  0  0  0  0  0
  -85.1526   29.5782    1.0579 N   0  0  0  0  0  0  0  0  0  0  0  0
  -85.9044   31.6587   -0.1616 C   0  0  0  0  0  0  0  0  0  0  0  0
  -85.4220   32.8316   -0.6908 C   0  0  0  0  0  0  0  0  0  0  0  0
  -86.2847   33.6612   -1.4130 C   0  0  0  0  0  0  0  0  0  0  0  0
  -87.6095   33.3407   -1.6130 C   0  0  0  0  0  0  0  0  0  0  0  0
  -88.6636   33.9900   -2.2880 O   0  0  0  0  0  0  0  0  0  0  0  0
  -89.6252   32.9871   -2.6517 C   0  0  0  0  0  0  0  0  0  0  0  0
  -89.5210   32.0806   -1.4441 C   0  0  0  0  0  0  0  0  0  0  0  0
  -88.0835   32.1620   -1.0778 C   0  0  0  0  0  0  0  0  0  0  0  0
  -87.2204   31.3302   -0.3545 C   0  0  0  0  0  0  0  0  0  0  0  0
 13 14  1  0  0  0
 14 12  1  0  0  0
 12 11  1  0  0  0
 11  5  1  0  0  0
  5  6  2  0  0  0
  6  7  1  0  0  0
  7  8  1  0  0  0
  8  1  1  0  0  0
  1  2  1  0  0  0
  2  3  2  0  0  0
  2 15  1  0  0  0
 15 16  2  0  0  0
 16 17  1  0  0  0
 17 18  1  0  0  0
 18 19  2  0  0  0
 18 20  1  0  0  0
 20 21  2  0  0  0
 21 22  1  0  0  0
 22 23  2  0  0  0
 23 24  1  0  0  0
 24 25  1  0  0  0
 25 26  1  0  0  0
 26 27  1  0  0  0
 27 28  2  0  0  0
  8  9  2  0  0  0
  9  5  1  0  0  0
 19 15  1  0  0  0
 28 20  1  0  0  0
 27 23  1  0  0  0
  7 10  1  0  0  0
  1  4  1  0  0  0
M  END
> <minimizedAffinity>
-8.59405

> <CNNscore>
0.7508751154

> <CNNaffinity>
7.0834960938

> <CNN_VS>
5.3188209534

> <CNNaffinity_variance>
0.0221679956

$$$$
[H]c1sc(-c2c([H])c([H])c3c(c2[H])C([H])([H])C([H])([H])O3)nc1C(=O)N([H])c1nc(SC([H])([H])C([H])([H])C([H])([H])[H])nn1[H]


 28 31  0  0  0  0  0  0  0  0999 V2000
  -84.9656   28.2330    2.0326 N   0  0  0  0  0  0  0  0  0  0  0  0
  -84.0292   29.1451    1.7303 C   0  0  0  0  0  0  0  0  0  0  0  0
  -82.8175   28.8839    2.2184 O   0  0  0  0  0  0  0  0  0  0  0  0
  -84.6172   27.3931    2.6739 H   0  0  0  0  0  0  0  0  0  0  0  0
  -88.4300   27.4395    1.6695 C   0  0  0  0  0  0  0  0  0  0  0  0
  -88.0922   27.6783    0.3908 N   0  0  0  0  0  0  0  0  0  0  0  0
  -86.7883   28.0228    0.3772 N   0  0  0  0  0  0  0  0  0  0  0  0
  -86.2749   28.0169    1.5951 C   0  0  0  0  0  0  0  0  0  0  0  0
  -87.3320   27.6442    2.3938 N   0  0  0  0  0  0  0  0  0  0  0  0
  -86.3569   28.2146   -0.5588 H   0  0  0  0  0  0  0  0  0  0  0  0
  -90.0649   27.0086    2.1574 S   0  0  0  0  0  0  0  0  0  0  0  0
  -90.8164   28.0302    3.3881 C   0  0  0  0  0  0  0  0  0  0  0  0
  -90.0559   26.7001    5.3640 C   0  0  0  0  0  0  0  0  0  0  0  0
  -90.0858   28.0366    4.6787 C   0  0  0  0  0  0  0  0  0  0  0  0
  -84.0608   30.4073    0.9568 C   0  0  0  0  0  0  0  0  0  0  0  0
  -82.9506   31.2036    0.8068 C   0  0  0  0  0  0  0  0  0  0  0  0
  -83.5583   32.4952   -0.1220 S   0  0  0  0  0  0  0  0  0  0  0  0
  -85.1773   31.9574   -0.2684 C   0  0  0  0  0  0  0  0  0  0  0  0
  -85.1614   30.8297    0.3959 N   0  0  0  0  0  0  0  0  0  0  0  0
  -86.3051   32.6163   -0.9755 C   0  0  0  0  0  0  0  0  0  0  0  0
  -87.5870   32.2344   -0.6603 C   0  0  0  0  0  0  0  0  0  0  0  0
  -88.6618   32.8418   -1.3162 C   0  0  0  0  0  0  0  0  0  0  0  0
  -88.4778   33.8157   -2.2732 C   0  0  0  0  0  0  0  0  0  0  0  0
  -89.3719   34.5674   -3.0628 O   0  0  0  0  0  0  0  0  0  0  0  0
  -88.6969   35.7755   -3.4469 C   0  0  0  0  0  0  0  0  0  0  0  0
  -87.2934   35.2393   -3.6299 C   0  0  0  0  0  0  0  0  0  0  0  0
  -87.1878   34.1913   -2.5820 C   0  0  0  0  0  0  0  0  0  0  0  0
  -86.1108   33.5839   -1.9257 C   0  0  0  0  0  0  0  0  0  0  0  0
 13 14  1  0  0  0
 14 12  1  0  0  0
 12 11  1  0  0  0
 11  5  1  0  0  0
  5  6  2  0  0  0
  6  7  1  0  0  0
  7  8  1  0  0  0
  8  1  1  0  0  0
  1  2  1  0  0  0
  2  3  2  0  0  0
  2 15  1  0  0  0
 15 16  2  0  0  0
 16 17  1  0  0  0
 17 18  1  0  0  0
 18 19  2  0  0  0
 18 20  1  0  0  0
 20 21  2  0  0  0
 21 22  1  0  0  0
 22 23  2  0  0  0
 23 24  1  0  0  0
 24 25  1  0  0  0
 25 26  1  0  0  0
 26 27  1  0  0  0
 27 28  2  0  0  0
  8  9  2  0  0  0
  9  5  1  0  0  0
 19 15  1  0  0  0
 28 20  1  0  0  0
 27 23  1  0  0  0
  7 10  1  0  0  0
  1  4  1  0  0  0
M  END
> <minimizedAffinity>
-8.37561

> <CNNscore>
0.7487940788

> <CNNaffinity>
7.0535192490

> <CNN_VS>
5.2816333771

> <CNNaffinity_variance>
0.1449409872

$$$$
[H]c1sc(-c2c([H])c([H])c3c(c2[H])C([H])([H])C([H])([H])O3)nc1C(=O)N([H])c1nc(SC([H])([H])C([H])([H])C([H])([H])[H])nn1[H]


 28 31  0  0  0  0  0  0  0  0999 V2000
  -84.7270   33.5525   -1.4081 N   0  0  0  0  0  0  0  0  0  0  0  0
  -83.9477   32.8811   -0.5467 C   0  0  0  0  0  0  0  0  0  0  0  0
  -82.7632   33.4433   -0.3106 O   0  0  0  0  0  0  0  0  0  0  0  0
  -84.2737   34.4747   -1.8350 H   0  0  0  0  0  0  0  0  0  0  0  0
  -87.8796   33.5141   -3.0883 C   0  0  0  0  0  0  0  0  0  0  0  0
  -88.2644   33.2525   -1.8275 N   0  0  0  0  0  0  0  0  0  0  0  0
  -87.1506   33.2100   -1.0681 N   0  0  0  0  0  0  0  0  0  0  0  0
  -86.0657   33.4319   -1.7897 C   0  0  0  0  0  0  0  0  0  0  0  0
  -86.5530   33.6221   -3.0628 N   0  0  0  0  0  0  0  0  0  0  0  0
  -87.2812   33.0433   -0.0413 H   0  0  0  0  0  0  0  0  0  0  0  0
  -89.0144   33.6053   -4.4301 S   0  0  0  0  0  0  0  0  0  0  0  0
  -89.0482   35.1239   -5.3333 C   0  0  0  0  0  0  0  0  0  0  0  0
  -87.6574   36.5206   -6.8717 C   0  0  0  0  0  0  0  0  0  0  0  0
  -87.7000   35.6593   -5.6416 C   0  0  0  0  0  0  0  0  0  0  0  0
  -84.1292   31.6204    0.2083 C   0  0  0  0  0  0  0  0  0  0  0  0
  -83.1788   31.1439    1.0795 C   0  0  0  0  0  0  0  0  0  0  0  0
  -83.8858   29.6931    1.6233 S   0  0  0  0  0  0  0  0  0  0  0  0
  -85.3393   29.7703    0.7214 C   0  0  0  0  0  0  0  0  0  0  0  0
  -85.2025   30.8920    0.0610 N   0  0  0  0  0  0  0  0  0  0  0  0
  -86.4636   28.7999    0.7041 C   0  0  0  0  0  0  0  0  0  0  0  0
  -86.9211   28.3508   -0.5115 C   0  0  0  0  0  0  0  0  0  0  0  0
  -87.9795   27.4384   -0.5486 C   0  0  0  0  0  0  0  0  0  0  0  0
  -88.5828   26.9721    0.5988 C   0  0  0  0  0  0  0  0  0  0  0  0
  -89.6425   26.0707    0.8286 O   0  0  0  0  0  0  0  0  0  0  0  0
  -89.4784   25.5413    2.1536 C   0  0  0  0  0  0  0  0  0  0  0  0
  -88.9423   26.7694    2.8571 C   0  0  0  0  0  0  0  0  0  0  0  0
  -88.1165   27.4291    1.8130 C   0  0  0  0  0  0  0  0  0  0  0  0
  -87.0564   28.3426    1.8514 C   0  0  0  0  0  0  0  0  0  0  0  0
 13 14  1  0  0  0
 14 12  1  0  0  0
 12 11  1  0  0  0
 11  5  1  0  0  0
  5  6  2  0  0  0
  6  7  1  0  0  0
  7  8  1  0  0  0
  8  1  1  0  0  0
  1  2  1  0  0  0
  2  3  2  0  0  0
  2 15  1  0  0  0
 15 16  2  0  0  0
 16 17  1  0  0  0
 17 18  1  0  0  0
 18 19  2  0  0  0
 18 20  1  0  0  0
 20 21  2  0  0  0
 21 22  1  0  0  0
 22 23  2  0  0  0
 23 24  1  0  0  0
 24 25  1  0  0  0
 25 26  1  0  0  0
 26 27  1  0  0  0
 27 28  2  0  0  0
  8  9  2  0  0  0
  9  5  1  0  0  0
 19 15  1  0  0  0
 28 20  1  0  0  0
 27 23  1  0  0  0
  7 10  1  0  0  0
  1  4  1  0  0  0
M  END
> <minimizedAffinity>
-7.43187

> <CNNscore>
0.7011455894

> <CNNaffinity>
6.7882637978

> <CNN_VS>
4.7595610619

> <CNNaffinity_variance>
0.1078830510

$$$$
[H]c1sc(-c2c([H])c([H])c3c(c2[H])C([H])([H])C([H])([H])O3)nc1C(=O)N([H])c1nc(SC([H])([H])C([H])([H])C([H])([H])[H])nn1[H]


 28 31  0  0  0  0  0  0  0  0999 V2000
  -83.3584   30.3521    1.7148 N   0  0  0  0  0  0  0  0  0  0  0  0
  -83.6789   31.4356    0.9912 C   0  0  0  0  0  0  0  0  0  0  0  0
  -82.7253   32.3633    0.9229 O   0  0  0  0  0  0  0  0  0  0  0  0
  -82.3511   30.3804    2.1868 H   0  0  0  0  0  0  0  0  0  0  0  0
  -85.5382   27.5259    1.8703 C   0  0  0  0  0  0  0  0  0  0  0  0
  -84.4742   27.0593    2.5459 N   0  0  0  0  0  0  0  0  0  0  0  0
  -83.5399   28.0318    2.5455 N   0  0  0  0  0  0  0  0  0  0  0  0
  -83.9592   29.1037    1.8958 C   0  0  0  0  0  0  0  0  0  0  0  0
  -85.2251   28.7593    1.4794 N   0  0  0  0  0  0  0  0  0  0  0  0
  -82.6493   27.8359    3.0629 H   0  0  0  0  0  0  0  0  0  0  0  0
  -86.9792   26.5589    1.5785 S   0  0  0  0  0  0  0  0  0  0  0  0
  -88.4269   27.0055    2.4883 C   0  0  0  0  0  0  0  0  0  0  0  0
  -90.5524   28.1874    1.9078 C   0  0  0  0  0  0  0  0  0  0  0  0
  -89.6647   26.9987    1.6715 C   0  0  0  0  0  0  0  0  0  0  0  0
  -84.8945   31.8263    0.2415 C   0  0  0  0  0  0  0  0  0  0  0  0
  -85.0869   33.1030   -0.2298 C   0  0  0  0  0  0  0  0  0  0  0  0
  -86.6189   32.9872   -0.9644 S   0  0  0  0  0  0  0  0  0  0  0  0
  -86.9293   31.3357   -0.6356 C   0  0  0  0  0  0  0  0  0  0  0  0
  -85.8525   30.9696    0.0121 N   0  0  0  0  0  0  0  0  0  0  0  0
  -88.1252   30.5341   -1.0007 C   0  0  0  0  0  0  0  0  0  0  0  0
  -89.3513   31.1549   -1.0074 C   0  0  0  0  0  0  0  0  0  0  0  0
  -90.4890   30.4168   -1.3469 C   0  0  0  0  0  0  0  0  0  0  0  0
  -90.4218   29.0808   -1.6766 C   0  0  0  0  0  0  0  0  0  0  0  0
  -91.3974   28.1329   -2.0478 O   0  0  0  0  0  0  0  0  0  0  0  0
  -90.7341   27.1023   -2.7966 C   0  0  0  0  0  0  0  0  0  0  0  0
  -89.4163   27.0519   -2.0539 C   0  0  0  0  0  0  0  0  0  0  0  0
  -89.1871   28.4678   -1.6666 C   0  0  0  0  0  0  0  0  0  0  0  0
  -88.0471   29.2058   -1.3270 C   0  0  0  0  0  0  0  0  0  0  0  0
 13 14  1  0  0  0
 14 12  1  0  0  0
 12 11  1  0  0  0
 11  5  1  0  0  0
  5  6  2  0  0  0
  6  7  1  0  0  0
  7  8  1  0  0  0
  8  1  1  0  0  0
  1  2  1  0  0  0
  2  3  2  0  0  0
  2 15  1  0  0  0
 15 16  2  0  0  0
 16 17  1  0  0  0
 17 18  1  0  0  0
 18 19  2  0  0  0
 18 20  1  0  0  0
 20 21  2  0  0  0
 21 22  1  0  0  0
 22 23  2  0  0  0
 23 24  1  0  0  0
 24 25  1  0  0  0
 25 26  1  0  0  0
 26 27  1  0  0  0
 27 28  2  0  0  0
  8  9  2  0  0  0
  9  5  1  0  0  0
 19 15  1  0  0  0
 28 20  1  0  0  0
 27 23  1  0  0  0
  7 10  1  0  0  0
  1  4  1  0  0  0
M  END
> <minimizedAffinity>
-7.33072

> <CNNscore>
0.6141532063

> <CNNaffinity>
7.0077056885

> <CNN_VS>
4.3038048744

> <CNNaffinity_variance>
0.0907747597

$$$$
[H]c1sc(-c2c([H])c([H])c3c(c2[H])C([H])([H])C([H])([H])O3)nc1C(=O)N([H])c1nc(SC([H])([H])C([H])([H])C([H])([H])[H])nn1[H]


 28 31  0  0  0  0  0  0  0  0999 V2000
  -84.5893   33.5264   -1.2317 N   0  0  0  0  0  0  0  0  0  0  0  0
  -83.7201   32.8589   -0.4576 C   0  0  0  0  0  0  0  0  0  0  0  0
  -82.5247   33.4342   -0.3363 O   0  0  0  0  0  0  0  0  0  0  0  0
  -84.1917   34.4570   -1.6943 H   0  0  0  0  0  0  0  0  0  0  0  0
  -87.9044   33.5264   -2.5636 C   0  0  0  0  0  0  0  0  0  0  0  0
  -88.1418   33.1342   -1.3002 N   0  0  0  0  0  0  0  0  0  0  0  0
  -86.9510   33.0630   -0.6711 N   0  0  0  0  0  0  0  0  0  0  0  0
  -85.9579   33.3917   -1.4789 C   0  0  0  0  0  0  0  0  0  0  0  0
  -86.5864   33.6812   -2.6687 N   0  0  0  0  0  0  0  0  0  0  0  0
  -86.9642   32.7966    0.3428 H   0  0  0  0  0  0  0  0  0  0  0  0
  -89.1810   33.6996   -3.7622 S   0  0  0  0  0  0  0  0  0  0  0  0
  -89.6370   32.2389   -4.6464 C   0  0  0  0  0  0  0  0  0  0  0  0
  -88.1537   30.3823   -3.8688 C   0  0  0  0  0  0  0  0  0  0  0  0
  -88.4883   31.3559   -4.9629 C   0  0  0  0  0  0  0  0  0  0  0  0
  -83.8106   31.5909    0.3017 C   0  0  0  0  0  0  0  0  0  0  0  0
  -82.8666   31.2232    1.2305 C   0  0  0  0  0  0  0  0  0  0  0  0
  -83.4467   29.7094    1.7519 S   0  0  0  0  0  0  0  0  0  0  0  0
  -84.8466   29.6266    0.7693 C   0  0  0  0  0  0  0  0  0  0  0  0
  -84.7913   30.7523    0.1037 N   0  0  0  0  0  0  0  0  0  0  0  0
  -85.8598   28.5428    0.7012 C   0  0  0  0  0  0  0  0  0  0  0  0
  -85.9395   27.6555    1.7477 C   0  0  0  0  0  0  0  0  0  0  0  0
  -86.8857   26.6275    1.7014 C   0  0  0  0  0  0  0  0  0  0  0  0
  -87.7455   26.4731    0.6360 C   0  0  0  0  0  0  0  0  0  0  0  0
  -88.7662   25.5426    0.3525 O   0  0  0  0  0  0  0  0  0  0  0  0
  -89.6716   26.1645   -0.5728 C   0  0  0  0  0  0  0  0  0  0  0  0
  -88.6868   26.9627   -1.3997 C   0  0  0  0  0  0  0  0  0  0  0  0
  -87.6570   27.3684   -0.4086 C   0  0  0  0  0  0  0  0  0  0  0  0
  -86.7101   28.3984   -0.3633 C   0  0  0  0  0  0  0  0  0  0  0  0
 13 14  1  0  0  0
 14 12  1  0  0  0
 12 11  1  0  0  0
 11  5  1  0  0  0
  5  6  2  0  0  0
  6  7  1  0  0  0
  7  8  1  0  0  0
  8  1  1  0  0  0
  1  2  1  0  0  0
  2  3  2  0  0  0
  2 15  1  0  0  0
 15 16  2  0  0  0
 16 17  1  0  0  0
 17 18  1  0  0  0
 18 19  2  0  0  0
 18 20  1  0  0  0
 20 21  2  0  0  0
 21 22  1  0  0  0
 22 23  2  0  0  0
 23 24  1  0  0  0
 24 25  1  0  0  0
 25 26  1  0  0  0
 26 27  1  0  0  0
 27 28  2  0  0  0
  8  9  2  0  0  0
  9  5  1  0  0  0
 19 15  1  0  0  0
 28 20  1  0  0  0
 27 23  1  0  0  0
  7 10  1  0  0  0
  1  4  1  0  0  0
M  END
> <minimizedAffinity>
-7.75592

> <CNNscore>
0.5938902497

> <CNNaffinity>
6.7781195641

> <CNN_VS>
4.0254592896

> <CNNaffinity_variance>
0.1133024320

$$$$
[H]c1sc(-c2c([H])c([H])c3c(c2[H])C([H])([H])C([H])([H])O3)nc1C(=O)N([H])c1nc(SC([H])([H])C([H])([H])C([H])([H])[H])nn1[H]


 28 31  0  0  0  0  0  0  0  0999 V2000
  -85.1125   33.7237   -1.9060 N   0  0  0  0  0  0  0  0  0  0  0  0
  -84.4822   33.1593   -0.8647 C   0  0  0  0  0  0  0  0  0  0  0  0
  -83.2855   33.6761   -0.5898 O   0  0  0  0  0  0  0  0  0  0  0  0
  -84.5442   34.5291   -2.4221 H   0  0  0  0  0  0  0  0  0  0  0  0
  -88.1190   32.8860   -3.6447 C   0  0  0  0  0  0  0  0  0  0  0  0
  -88.5032   34.0028   -3.0033 N   0  0  0  0  0  0  0  0  0  0  0  0
  -87.4536   34.4263   -2.2699 N   0  0  0  0  0  0  0  0  0  0  0  0
  -86.4111   33.6264   -2.4124 C   0  0  0  0  0  0  0  0  0  0  0  0
  -86.8567   32.6613   -3.2867 N   0  0  0  0  0  0  0  0  0  0  0  0
  -87.5806   35.3137   -1.7262 H   0  0  0  0  0  0  0  0  0  0  0  0
  -89.2020   31.9625   -4.6795 S   0  0  0  0  0  0  0  0  0  0  0  0
  -90.9250   32.3328   -4.5489 C   0  0  0  0  0  0  0  0  0  0  0  0
  -91.4396   30.7467   -2.6858 C   0  0  0  0  0  0  0  0  0  0  0  0
  -91.7441   31.1848   -4.0901 C   0  0  0  0  0  0  0  0  0  0  0  0
  -84.8421   32.0590    0.0585 C   0  0  0  0  0  0  0  0  0  0  0  0
  -84.1266   31.7979    1.2026 C   0  0  0  0  0  0  0  0  0  0  0  0
  -84.9480   30.4487    1.8393 S   0  0  0  0  0  0  0  0  0  0  0  0
  -86.1467   30.2911    0.6269 C   0  0  0  0  0  0  0  0  0  0  0  0
  -85.8532   31.2712   -0.1895 N   0  0  0  0  0  0  0  0  0  0  0  0
  -87.2390   29.2887    0.5382 C   0  0  0  0  0  0  0  0  0  0  0  0
  -88.1780   29.4308   -0.4552 C   0  0  0  0  0  0  0  0  0  0  0  0
  -89.2147   28.4983   -0.5541 C   0  0  0  0  0  0  0  0  0  0  0  0
  -89.3274   27.4359    0.3158 C   0  0  0  0  0  0  0  0  0  0  0  0
  -90.2560   26.3808    0.4282 O   0  0  0  0  0  0  0  0  0  0  0  0
  -89.6009   25.3010    1.1120 C   0  0  0  0  0  0  0  0  0  0  0  0
  -88.7499   26.0900    2.0836 C   0  0  0  0  0  0  0  0  0  0  0  0
  -88.3804   27.3026    1.3088 C   0  0  0  0  0  0  0  0  0  0  0  0
  -87.3416   28.2357    1.4086 C   0  0  0  0  0  0  0  0  0  0  0  0
 13 14  1  0  0  0
 14 12  1  0  0  0
 12 11  1  0  0  0
 11  5  1  0  0  0
  5  6  2  0  0  0
  6  7  1  0  0  0
  7  8  1  0  0  0
  8  1  1  0  0  0
  1  2  1  0  0  0
  2  3  2  0  0  0
  2 15  1  0  0  0
 15 16  2  0  0  0
 16 17  1  0  0  0
 17 18  1  0  0  0
 18 19  2  0  0  0
 18 20  1  0  0  0
 20 21  2  0  0  0
 21 22  1  0  0  0
 22 23  2  0  0  0
 23 24  1  0  0  0
 24 25  1  0  0  0
 25 26  1  0  0  0
 26 27  1  0  0  0
 27 28  2  0  0  0
  8  9  2  0  0  0
  9  5  1  0  0  0
 19 15  1  0  0  0
 28 20  1  0  0  0
 27 23  1  0  0  0
  7 10  1  0  0  0
  1  4  1  0  0  0
M  END
> <minimizedAffinity>
-6.83215

> <CNNscore>
0.4991990328

> <CNNaffinity>
6.8437638283

> <CNN_VS>
3.4164001942

> <CNNaffinity_variance>
0.4496923089

$$$$
[H]c1sc(-c2c([H])c([H])c3c(c2[H])C([H])([H])C([H])([H])O3)nc1C(=O)N([H])c1nc(SC([H])([H])C([H])([H])C([H])([H])[H])nn1[H]


 28 31  0  0  0  0  0  0  0  0999 V2000
  -84.6199   28.3132    2.0720 N   0  0  0  0  0  0  0  0  0  0  0  0
  -83.7273   29.2537    1.7268 C   0  0  0  0  0  0  0  0  0  0  0  0
  -82.4906   29.0403    2.1735 O   0  0  0  0  0  0  0  0  0  0  0  0
  -84.2196   27.4934    2.7091 H   0  0  0  0  0  0  0  0  0  0  0  0
  -87.8608   26.9385    1.4636 C   0  0  0  0  0  0  0  0  0  0  0  0
  -87.9051   28.0368    0.6902 N   0  0  0  0  0  0  0  0  0  0  0  0
  -86.7315   28.6835    0.8430 N   0  0  0  0  0  0  0  0  0  0  0  0
  -85.9355   28.0467    1.6843 C   0  0  0  0  0  0  0  0  0  0  0  0
  -86.6717   26.9468    2.0619 N   0  0  0  0  0  0  0  0  0  0  0  0
  -86.5921   29.5555    0.2779 H   0  0  0  0  0  0  0  0  0  0  0  0
  -89.2139   25.8232    1.6112 S   0  0  0  0  0  0  0  0  0  0  0  0
  -89.7070   24.9813    0.1377 C   0  0  0  0  0  0  0  0  0  0  0  0
  -89.7520   22.5388   -0.3952 C   0  0  0  0  0  0  0  0  0  0  0  0
  -90.3500   23.6695    0.3927 C   0  0  0  0  0  0  0  0  0  0  0  0
  -83.8308   30.5049    0.9418 C   0  0  0  0  0  0  0  0  0  0  0  0
  -82.7573   31.3418    0.7509 C   0  0  0  0  0  0  0  0  0  0  0  0
  -83.4418   32.5984   -0.1725 S   0  0  0  0  0  0  0  0  0  0  0  0
  -85.0423   31.9968   -0.2653 C   0  0  0  0  0  0  0  0  0  0  0  0
  -84.9629   30.8781    0.4096 N   0  0  0  0  0  0  0  0  0  0  0  0
  -86.2150   32.6036   -0.9452 C   0  0  0  0  0  0  0  0  0  0  0  0
  -87.4720   32.1881   -0.5763 C   0  0  0  0  0  0  0  0  0  0  0  0
  -88.5883   32.7464   -1.2058 C   0  0  0  0  0  0  0  0  0  0  0  0
  -88.4700   33.7042   -2.1890 C   0  0  0  0  0  0  0  0  0  0  0  0
  -89.4153   34.4094   -2.9617 O   0  0  0  0  0  0  0  0  0  0  0  0
  -88.7939   35.6297   -3.3950 C   0  0  0  0  0  0  0  0  0  0  0  0
  -87.3810   35.1345   -3.6168 C   0  0  0  0  0  0  0  0  0  0  0  0
  -87.2046   34.1138   -2.5517 C   0  0  0  0  0  0  0  0  0  0  0  0
  -86.0859   33.5557   -1.9218 C   0  0  0  0  0  0  0  0  0  0  0  0
 13 14  1  0  0  0
 14 12  1  0  0  0
 12 11  1  0  0  0
 11  5  1  0  0  0
  5  6  2  0  0  0
  6  7  1  0  0  0
  7  8  1  0  0  0
  8  1  1  0  0  0
  1  2  1  0  0  0
  2  3  2  0  0  0
  2 15  1  0  0  0
 15 16  2  0  0  0
 16 17  1  0  0  0
 17 18  1  0  0  0
 18 19  2  0  0  0
 18 20  1  0  0  0
 20 21  2  0  0  0
 21 22  1  0  0  0
 22 23  2  0  0  0
 23 24  1  0  0  0
 24 25  1  0  0  0
 25 26  1  0  0  0
 26 27  1  0  0  0
 27 28  2  0  0  0
  8  9  2  0  0  0
  9  5  1  0  0  0
 19 15  1  0  0  0
 28 20  1  0  0  0
 27 23  1  0  0  0
  7 10  1  0  0  0
  1  4  1  0  0  0
M  END
> <minimizedAffinity>
-7.91803

> <CNNscore>
0.4818550348

> <CNNaffinity>
6.7711629868

> <CNN_VS>
3.2627189159

> <CNNaffinity_variance>
0.2488175631

$$$$
[H]c1nc(N([H])c2c([H])c([H])c(N3C([H])([H])C([H])([H])N(C([H])([H])[H])C([H])([H])C3([H])[H])c([H])c2OC([H])([H])[H])nc(-c2c([H])n(C([H])([H])[H])c3c(C([H])([H])[H])nc([H])c([H])c23)c1[H]


 34 38  0  0  0  0  0  0  0  0999 V2000
  -86.0281   33.7130   -3.0506 N   0  0  0  0  0  0  0  0  0  0  0  0
  -85.2698   33.9389   -3.7750 H   0  0  0  0  0  0  0  0  0  0  0  0
  -88.0467   33.1266   -4.2439 C   0  0  0  0  0  0  0  0  0  0  0  0
  -89.3078   33.4214   -4.6307 C   0  0  0  0  0  0  0  0  0  0  0  0
  -89.9817   34.5781   -4.2947 C   0  0  0  0  0  0  0  0  0  0  0  0
  -89.2844   35.4635   -3.5118 C   0  0  0  0  0  0  0  0  0  0  0  0
  -87.9951   35.2015   -3.0951 C   0  0  0  0  0  0  0  0  0  0  0  0
  -87.3409   34.0463   -3.4387 C   0  0  0  0  0  0  0  0  0  0  0  0
  -91.3050   34.8411   -4.7241 N   0  0  0  0  0  0  0  0  0  0  0  0
  -91.9151   36.0837   -4.3714 C   0  0  0  0  0  0  0  0  0  0  0  0
  -93.3923   36.1425   -4.6174 C   0  0  0  0  0  0  0  0  0  0  0  0
  -93.7644   35.5433   -5.8576 N   0  0  0  0  0  0  0  0  0  0  0  0
  -93.5216   36.3380   -7.0199 C   0  0  0  0  0  0  0  0  0  0  0  0
  -93.3225   34.2037   -6.0279 C   0  0  0  0  0  0  0  0  0  0  0  0
  -91.9876   33.8508   -5.4962 C   0  0  0  0  0  0  0  0  0  0  0  0
  -88.0011   30.7296   -4.1988 C   0  0  0  0  0  0  0  0  0  0  0  0
  -87.4040   31.9445   -4.6071 O   0  0  0  0  0  0  0  0  0  0  0  0
  -85.5793   33.1240   -1.8378 C   0  0  0  0  0  0  0  0  0  0  0  0
  -84.5494   33.5571   -1.1262 N   0  0  0  0  0  0  0  0  0  0  0  0
  -84.1626   32.9812    0.0037 C   0  0  0  0  0  0  0  0  0  0  0  0
  -84.8581   31.8717    0.4777 C   0  0  0  0  0  0  0  0  0  0  0  0
  -85.9184   31.4050   -0.2278 C   0  0  0  0  0  0  0  0  0  0  0  0
  -86.2608   32.0407   -1.3767 N   0  0  0  0  0  0  0  0  0  0  0  0
  -86.6856   30.2273    0.1460 C   0  0  0  0  0  0  0  0  0  0  0  0
  -88.0500   30.1057   -0.1383 C   0  0  0  0  0  0  0  0  0  0  0  0
  -88.5170   28.9421    0.3461 N   0  0  0  0  0  0  0  0  0  0  0  0
  -89.8927   28.4745    0.2364 C   0  0  0  0  0  0  0  0  0  0  0  0
  -87.5231   28.2699    0.9487 C   0  0  0  0  0  0  0  0  0  0  0  0
  -87.4846   27.0612    1.6011 C   0  0  0  0  0  0  0  0  0  0  0  0
  -88.6932   26.2249    1.7240 C   0  0  0  0  0  0  0  0  0  0  0  0
  -86.2912   26.6725    2.1262 N   0  0  0  0  0  0  0  0  0  0  0  0
  -85.1967   27.4196    2.0221 C   0  0  0  0  0  0  0  0  0  0  0  0
  -85.2181   28.6379    1.3687 C   0  0  0  0  0  0  0  0  0  0  0  0
  -86.3764   29.0862    0.8187 C   0  0  0  0  0  0  0  0  0  0  0  0
 16 17  1  0  0  0
 17  3  1  0  0  0
  3  4  2  0  0  0
  4  5  1  0  0  0
  5  6  2  0  0  0
  6  7  1  0  0  0
  7  8  2  0  0  0
  8  1  1  0  0  0
  1 18  1  0  0  0
 18 19  2  0  0  0
 19 20  1  0  0  0
 20 21  2  0  0  0
 21 22  1  0  0  0
 22 23  2  0  0  0
 22 24  1  0  0  0
 24 25  2  0  0  0
 25 26  1  0  0  0
 26 27  1  0  0  0
 26 28  1  0  0  0
 28 29  2  0  0  0
 29 30  1  0  0  0
 29 31  1  0  0  0
 31 32  2  0  0  0
 32 33  1  0  0  0
 33 34  2  0  0  0
  5  9  1  0  0  0
  9 10  1  0  0  0
 10 11  1  0  0  0
 11 12  1  0  0  0
 12 13  1  0  0  0
 12 14  1  0  0  0
 14 15  1  0  0  0
  8  3  1  0  0  0
 23 18  1  0  0  0
 34 24  1  0  0  0
 15  9  1  0  0  0
 34 28  1  0  0  0
  1  2  1  0  0  0
M  END
> <minimizedAffinity>
-8.34830

> <CNNscore>
0.5308604240

> <CNNaffinity>
7.0801353455

> <CNN_VS>
3.7585637569

> <CNNaffinity_variance>
0.0814548954

$$$$
[H]c1nc(N([H])c2c([H])c([H])c(N3C([H])([H])C([H])([H])N(C([H])([H])[H])C([H])([H])C3([H])[H])c([H])c2OC([H])([H])[H])nc(-c2c([H])n(C([H])([H])[H])c3c(C([H])([H])[H])nc([H])c([H])c23)c1[H]


 34 38  0  0  0  0  0  0  0  0999 V2000
  -90.5388   31.4930   -2.0005 N   0  0  0  0  0  0  0  0  0  0  0  0
  -91.4517   32.0201   -2.1994 H   0  0  0  0  0  0  0  0  0  0  0  0
  -90.8125   29.2997   -2.9787 C   0  0  0  0  0  0  0  0  0  0  0  0
  -90.9496   27.9624   -2.8392 C   0  0  0  0  0  0  0  0  0  0  0  0
  -90.9714   27.2975   -1.6298 C   0  0  0  0  0  0  0  0  0  0  0  0
  -90.8418   28.0892   -0.5164 C   0  0  0  0  0  0  0  0  0  0  0  0
  -90.6996   29.4584   -0.6144 C   0  0  0  0  0  0  0  0  0  0  0  0
  -90.6801   30.1022   -1.8250 C   0  0  0  0  0  0  0  0  0  0  0  0
  -91.1162   25.8922   -1.5353 N   0  0  0  0  0  0  0  0  0  0  0  0
  -92.3335   25.3533   -1.0173 C   0  0  0  0  0  0  0  0  0  0  0  0
  -92.2759   23.8922   -0.6886 C   0  0  0  0  0  0  0  0  0  0  0  0
  -91.5774   23.1365   -1.6769 N   0  0  0  0  0  0  0  0  0  0  0  0
  -92.3138   22.8571   -2.8689 C   0  0  0  0  0  0  0  0  0  0  0  0
  -90.2633   23.5968   -1.9596 C   0  0  0  0  0  0  0  0  0  0  0  0
  -90.0359   25.0589   -1.9610 C   0  0  0  0  0  0  0  0  0  0  0  0
  -92.0394   30.1325   -4.8631 C   0  0  0  0  0  0  0  0  0  0  0  0
  -90.7957   29.9298   -4.2217 O   0  0  0  0  0  0  0  0  0  0  0  0
  -89.3588   32.2830   -1.9480 C   0  0  0  0  0  0  0  0  0  0  0  0
  -89.2130   33.4592   -2.5395 N   0  0  0  0  0  0  0  0  0  0  0  0
  -88.0953   34.1685   -2.4647 C   0  0  0  0  0  0  0  0  0  0  0  0
  -87.0177   33.6703   -1.7366 C   0  0  0  0  0  0  0  0  0  0  0  0
  -87.1365   32.4691   -1.1181 C   0  0  0  0  0  0  0  0  0  0  0  0
  -88.3080   31.7943   -1.2356 N   0  0  0  0  0  0  0  0  0  0  0  0
  -86.0623   31.8310   -0.3736 C   0  0  0  0  0  0  0  0  0  0  0  0
  -84.8084   32.4302   -0.2135 C   0  0  0  0  0  0  0  0  0  0  0  0
  -83.9962   31.6149    0.4811 N   0  0  0  0  0  0  0  0  0  0  0  0
  -82.6146   31.9070    0.8402 C   0  0  0  0  0  0  0  0  0  0  0  0
  -84.6497   30.4856    0.7977 C   0  0  0  0  0  0  0  0  0  0  0  0
  -84.2677   29.3532    1.4758 C   0  0  0  0  0  0  0  0  0  0  0  0
  -82.9091   29.2239    2.0347 C   0  0  0  0  0  0  0  0  0  0  0  0
  -85.1911   28.3627    1.6076 N   0  0  0  0  0  0  0  0  0  0  0  0
  -86.4176   28.4689    1.1064 C   0  0  0  0  0  0  0  0  0  0  0  0
  -86.8181   29.6014    0.4217 C   0  0  0  0  0  0  0  0  0  0  0  0
  -85.9471   30.6304    0.2552 C   0  0  0  0  0  0  0  0  0  0  0  0
 16 17  1  0  0  0
 17  3  1  0  0  0
  3  4  2  0  0  0
  4  5  1  0  0  0
  5  6  2  0  0  0
  6  7  1  0  0  0
  7  8  2  0  0  0
  8  1  1  0  0  0
  1 18  1  0  0  0
 18 19  2  0  0  0
 19 20  1  0  0  0
 20 21  2  0  0  0
 21 22  1  0  0  0
 22 23  2  0  0  0
 22 24  1  0  0  0
 24 25  2  0  0  0
 25 26  1  0  0  0
 26 27  1  0  0  0
 26 28  1  0  0  0
 28 29  2  0  0  0
 29 30  1  0  0  0
 29 31  1  0  0  0
 31 32  2  0  0  0
 32 33  1  0  0  0
 33 34  2  0  0  0
  5  9  1  0  0  0
  9 10  1  0  0  0
 10 11  1  0  0  0
 11 12  1  0  0  0
 12 13  1  0  0  0
 12 14  1  0  0  0
 14 15  1  0  0  0
  8  3  1  0  0  0
 23 18  1  0  0  0
 34 24  1  0  0  0
 15  9  1  0  0  0
 34 28  1  0  0  0
  1  2  1  0  0  0
M  END
> <minimizedAffinity>
-9.04908

> <CNNscore>
0.1546344459

> <CNNaffinity>
6.8009567261

> <CNN_VS>
1.0516622066

> <CNNaffinity_variance>
0.1668394953

$$$$
[H]c1nc(N([H])c2c([H])c([H])c(N3C([H])([H])C([H])([H])N(C([H])([H])[H])C([H])([H])C3([H])[H])c([H])c2OC([H])([H])[H])nc(-c2c([H])n(C([H])([H])[H])c3c(C([H])([H])[H])nc([H])c([H])c23)c1[H]


 34 38  0  0  0  0  0  0  0  0999 V2000
  -87.1919   26.2245    1.9325 N   0  0  0  0  0  0  0  0  0  0  0  0
  -87.2157   25.5131    2.7351 H   0  0  0  0  0  0  0  0  0  0  0  0
  -89.4746   26.7926    1.3767 C   0  0  0  0  0  0  0  0  0  0  0  0
  -90.5258   26.7287    0.5295 C   0  0  0  0  0  0  0  0  0  0  0  0
  -90.5206   26.0619   -0.6789 C   0  0  0  0  0  0  0  0  0  0  0  0
  -89.3448   25.4331   -1.0033 C   0  0  0  0  0  0  0  0  0  0  0  0
  -88.2478   25.4735   -0.1669 C   0  0  0  0  0  0  0  0  0  0  0  0
  -88.2710   26.1413    1.0305 C   0  0  0  0  0  0  0  0  0  0  0  0
  -91.6488   26.0249   -1.5337 N   0  0  0  0  0  0  0  0  0  0  0  0
  -92.9032   25.5875   -1.0087 C   0  0  0  0  0  0  0  0  0  0  0  0
  -93.9479   25.3087   -2.0465 C   0  0  0  0  0  0  0  0  0  0  0  0
  -93.9624   26.2875   -3.0845 N   0  0  0  0  0  0  0  0  0  0  0  0
  -94.5971   27.5239   -2.7527 C   0  0  0  0  0  0  0  0  0  0  0  0
  -92.7133   26.4881   -3.7312 C   0  0  0  0  0  0  0  0  0  0  0  0
  -91.4930   26.4259   -2.8966 C   0  0  0  0  0  0  0  0  0  0  0  0
  -90.7803   27.9831    2.9976 C   0  0  0  0  0  0  0  0  0  0  0  0
  -89.5243   27.4786    2.5888 O   0  0  0  0  0  0  0  0  0  0  0  0
  -86.0858   27.1165    1.9197 C   0  0  0  0  0  0  0  0  0  0  0  0
  -84.9377   26.9017    2.5444 N   0  0  0  0  0  0  0  0  0  0  0  0
  -83.9265   27.7583    2.5061 C   0  0  0  0  0  0  0  0  0  0  0  0
  -84.0599   28.9405    1.7821 C   0  0  0  0  0  0  0  0  0  0  0  0
  -85.2230   29.1887    1.1301 C   0  0  0  0  0  0  0  0  0  0  0  0
  -86.2186   28.2702    1.2111 N   0  0  0  0  0  0  0  0  0  0  0  0
  -85.4905   30.4093    0.3858 C   0  0  0  0  0  0  0  0  0  0  0  0
  -84.5116   31.3878    0.1825 C   0  0  0  0  0  0  0  0  0  0  0  0
  -85.0319   32.4215   -0.5011 N   0  0  0  0  0  0  0  0  0  0  0  0
  -84.3065   33.6220   -0.8959 C   0  0  0  0  0  0  0  0  0  0  0  0
  -86.3258   32.1832   -0.7688 C   0  0  0  0  0  0  0  0  0  0  0  0
  -87.2884   32.9185   -1.4175 C   0  0  0  0  0  0  0  0  0  0  0  0
  -86.9747   34.2374   -1.9980 C   0  0  0  0  0  0  0  0  0  0  0  0
  -88.5354   32.3807   -1.4997 N   0  0  0  0  0  0  0  0  0  0  0  0
  -88.8287   31.1935   -0.9787 C   0  0  0  0  0  0  0  0  0  0  0  0
  -87.8719   30.4408   -0.3230 C   0  0  0  0  0  0  0  0  0  0  0  0
  -86.6050   30.9167   -0.2064 C   0  0  0  0  0  0  0  0  0  0  0  0
 16 17  1  0  0  0
 17  3  1  0  0  0
  3  4  2  0  0  0
  4  5  1  0  0  0
  5  6  2  0  0  0
  6  7  1  0  0  0
  7  8  2  0  0  0
  8  1  1  0  0  0
  1 18  1  0  0  0
 18 19  2  0  0  0
 19 20  1  0  0  0
 20 21  2  0  0  0
 21 22  1  0  0  0
 22 23  2  0  0  0
 22 24  1  0  0  0
 24 25  2  0  0  0
 25 26  1  0  0  0
 26 27  1  0  0  0
 26 28  1  0  0  0
 28 29  2  0  0  0
 29 30  1  0  0  0
 29 31  1  0  0  0
 31 32  2  0  0  0
 32 33  1  0  0  0
 33 34  2  0  0  0
  5  9  1  0  0  0
  9 10  1  0  0  0
 10 11  1  0  0  0
 11 12  1  0  0  0
 12 13  1  0  0  0
 12 14  1  0  0  0
 14 15  1  0  0  0
  8  3  1  0  0  0
 23 18  1  0  0  0
 34 24  1  0  0  0
 15  9  1  0  0  0
 34 28  1  0  0  0
  1  2  1  0  0  0
M  END
> <minimizedAffinity>
-8.68210

> <CNNscore>
0.1355164796

> <CNNaffinity>
6.8216805458

> <CNN_VS>
0.9244501591

> <CNNaffinity_variance>
0.0710347444

$$$$
[H]c1nc(N([H])c2c([H])c([H])c(N3C([H])([H])C([H])([H])N(C([H])([H])[H])C([H])([H])C3([H])[H])c([H])c2OC([H])([H])[H])nc(-c2c([H])n(C([H])([H])[H])c3c(C([H])([H])[H])nc([H])c([H])c23)c1[H]


 34 38  0  0  0  0  0  0  0  0999 V2000
  -88.5213   25.7185   -1.5994 N   0  0  0  0  0  0  0  0  0  0  0  0
  -87.7470   25.6234   -2.3357 H   0  0  0  0  0  0  0  0  0  0  0  0
  -90.6391   25.9771   -2.7353 C   0  0  0  0  0  0  0  0  0  0  0  0
  -91.8400   25.4789   -3.1050 C   0  0  0  0  0  0  0  0  0  0  0  0
  -92.2966   24.2153   -2.7888 C   0  0  0  0  0  0  0  0  0  0  0  0
  -91.4387   23.4445   -2.0452 C   0  0  0  0  0  0  0  0  0  0  0  0
  -90.2037   23.9146   -1.6470 C   0  0  0  0  0  0  0  0  0  0  0  0
  -89.7664   25.1734   -1.9706 C   0  0  0  0  0  0  0  0  0  0  0  0
  -93.5641   23.7378   -3.2011 N   0  0  0  0  0  0  0  0  0  0  0  0
  -94.1494   24.2633   -4.3935 C   0  0  0  0  0  0  0  0  0  0  0  0
  -95.5950   23.9157   -4.5815 C   0  0  0  0  0  0  0  0  0  0  0  0
  -95.8809   22.5609   -4.2376 N   0  0  0  0  0  0  0  0  0  0  0  0
  -95.5021   21.5876   -5.2126 C   0  0  0  0  0  0  0  0  0  0  0  0
  -95.4833   22.1828   -2.9269 C   0  0  0  0  0  0  0  0  0  0  0  0
  -94.2172   22.7449   -2.4071 C   0  0  0  0  0  0  0  0  0  0  0  0
  -91.1541   28.3107   -2.9316 C   0  0  0  0  0  0  0  0  0  0  0  0
  -90.2183   27.2608   -3.0776 O   0  0  0  0  0  0  0  0  0  0  0  0
  -88.1590   26.3727   -0.3911 C   0  0  0  0  0  0  0  0  0  0  0  0
  -88.4500   25.9285    0.8224 N   0  0  0  0  0  0  0  0  0  0  0  0
  -88.0913   26.5672    1.9275 C   0  0  0  0  0  0  0  0  0  0  0  0
  -87.3768   27.7584    1.8266 C   0  0  0  0  0  0  0  0  0  0  0  0
  -87.0622   28.2385    0.5977 C   0  0  0  0  0  0  0  0  0  0  0  0
  -87.4606   27.5357   -0.4926 N   0  0  0  0  0  0  0  0  0  0  0  0
  -86.3637   29.4942    0.3725 C   0  0  0  0  0  0  0  0  0  0  0  0
  -86.9362   30.5463   -0.3503 C   0  0  0  0  0  0  0  0  0  0  0  0
  -86.0672   31.5679   -0.4385 N   0  0  0  0  0  0  0  0  0  0  0  0
  -86.3187   32.8325   -1.1172 C   0  0  0  0  0  0  0  0  0  0  0  0
  -84.9272   31.2499    0.1953 C   0  0  0  0  0  0  0  0  0  0  0  0
  -83.7479   31.9310    0.3785 C   0  0  0  0  0  0  0  0  0  0  0  0
  -83.5659   33.2932   -0.1566 C   0  0  0  0  0  0  0  0  0  0  0  0
  -82.7617   31.2979    1.0696 N   0  0  0  0  0  0  0  0  0  0  0  0
  -82.9153   30.0699    1.5547 C   0  0  0  0  0  0  0  0  0  0  0  0
  -84.0953   29.3708    1.3795 C   0  0  0  0  0  0  0  0  0  0  0  0
  -85.1228   29.9442    0.7008 C   0  0  0  0  0  0  0  0  0  0  0  0
 16 17  1  0  0  0
 17  3  1  0  0  0
  3  4  2  0  0  0
  4  5  1  0  0  0
  5  6  2  0  0  0
  6  7  1  0  0  0
  7  8  2  0  0  0
  8  1  1  0  0  0
  1 18  1  0  0  0
 18 19  2  0  0  0
 19 20  1  0  0  0
 20 21  2  0  0  0
 21 22  1  0  0  0
 22 23  2  0  0  0
 22 24  1  0  0  0
 24 25  2  0  0  0
 25 26  1  0  0  0
 26 27  1  0  0  0
 26 28  1  0  0  0
 28 29  2  0  0  0
 29 30  1  0  0  0
 29 31  1  0  0  0
 31 32  2  0  0  0
 32 33  1  0  0  0
 33 34  2  0  0  0
  5  9  1  0  0  0
  9 10  1  0  0  0
 10 11  1  0  0  0
 11 12  1  0  0  0
 12 13  1  0  0  0
 12 14  1  0  0  0
 14 15  1  0  0  0
  8  3  1  0  0  0
 23 18  1  0  0  0
 34 24  1  0  0  0
 15  9  1  0  0  0
 34 28  1  0  0  0
  1  2  1  0  0  0
M  END
> <minimizedAffinity>
-8.73939

> <CNNscore>
0.1299028993

> <CNNaffinity>
5.9426698685

> <CNN_VS>
0.7719700336

> <CNNaffinity_variance>
0.4543338716

$$$$
[H]c1nc(N([H])c2c([H])c([H])c(N3C([H])([H])C([H])([H])N(C([H])([H])[H])C([H])([H])C3([H])[H])c([H])c2OC([H])([H])[H])nc(-c2c([H])n(C([H])([H])[H])c3c(C([H])([H])[H])nc([H])c([H])c23)c1[H]


 34 38  0  0  0  0  0  0  0  0999 V2000
  -88.5081   25.6357   -1.4118 N   0  0  0  0  0  0  0  0  0  0  0  0
  -87.6889   25.1809   -1.9343 H   0  0  0  0  0  0  0  0  0  0  0  0
  -90.2480   26.5101   -2.8438 C   0  0  0  0  0  0  0  0  0  0  0  0
  -91.4539   26.3766   -3.4393 C   0  0  0  0  0  0  0  0  0  0  0  0
  -92.2780   25.2774   -3.3055 C   0  0  0  0  0  0  0  0  0  0  0  0
  -91.7998   24.2731   -2.5018 C   0  0  0  0  0  0  0  0  0  0  0  0
  -90.5739   24.3692   -1.8752 C   0  0  0  0  0  0  0  0  0  0  0  0
  -89.7682   25.4693   -2.0197 C   0  0  0  0  0  0  0  0  0  0  0  0
  -93.5342   25.1836   -3.9519 N   0  0  0  0  0  0  0  0  0  0  0  0
  -94.1677   26.3776   -4.4141 C   0  0  0  0  0  0  0  0  0  0  0  0
  -95.6019   26.2055   -4.8133 C   0  0  0  0  0  0  0  0  0  0  0  0
  -95.8245   25.0032   -5.5484 N   0  0  0  0  0  0  0  0  0  0  0  0
  -95.4290   25.0414   -6.9208 C   0  0  0  0  0  0  0  0  0  0  0  0
  -95.3818   23.8186   -4.9005 C   0  0  0  0  0  0  0  0  0  0  0  0
  -94.1279   23.8943   -4.1186 C   0  0  0  0  0  0  0  0  0  0  0  0
  -89.9266   28.8567   -2.4703 C   0  0  0  0  0  0  0  0  0  0  0  0
  -89.4479   27.6395   -3.0072 O   0  0  0  0  0  0  0  0  0  0  0  0
  -88.1811   26.3208   -0.2106 C   0  0  0  0  0  0  0  0  0  0  0  0
  -88.6147   25.9789    0.9934 N   0  0  0  0  0  0  0  0  0  0  0  0
  -88.2844   26.6429    2.0925 C   0  0  0  0  0  0  0  0  0  0  0  0
  -87.4459   27.7505    1.9952 C   0  0  0  0  0  0  0  0  0  0  0  0
  -86.9839   28.1250    0.7762 C   0  0  0  0  0  0  0  0  0  0  0  0
  -87.3613   27.4020   -0.3084 N   0  0  0  0  0  0  0  0  0  0  0  0
  -86.1443   29.2910    0.5507 C   0  0  0  0  0  0  0  0  0  0  0  0
  -84.8010   29.3285    0.9395 C   0  0  0  0  0  0  0  0  0  0  0  0
  -84.2728   30.5294    0.6474 N   0  0  0  0  0  0  0  0  0  0  0  0
  -82.8965   30.9310    0.9077 C   0  0  0  0  0  0  0  0  0  0  0  0
  -85.2053   31.3086    0.0766 C   0  0  0  0  0  0  0  0  0  0  0  0
  -85.1756   32.6027   -0.3846 C   0  0  0  0  0  0  0  0  0  0  0  0
  -83.9400   33.4051   -0.3180 C   0  0  0  0  0  0  0  0  0  0  0  0
  -86.3283   33.1083   -0.9009 N   0  0  0  0  0  0  0  0  0  0  0  0
  -87.4474   32.3939   -0.9641 C   0  0  0  0  0  0  0  0  0  0  0  0
  -87.4943   31.0905   -0.5049 C   0  0  0  0  0  0  0  0  0  0  0  0
  -86.3784   30.5218    0.0212 C   0  0  0  0  0  0  0  0  0  0  0  0
 16 17  1  0  0  0
 17  3  1  0  0  0
  3  4  2  0  0  0
  4  5  1  0  0  0
  5  6  2  0  0  0
  6  7  1  0  0  0
  7  8  2  0  0  0
  8  1  1  0  0  0
  1 18  1  0  0  0
 18 19  2  0  0  0
 19 20  1  0  0  0
 20 21  2  0  0  0
 21 22  1  0  0  0
 22 23  2  0  0  0
 22 24  1  0  0  0
 24 25  2  0  0  0
 25 26  1  0  0  0
 26 27  1  0  0  0
 26 28  1  0  0  0
 28 29  2  0  0  0
 29 30  1  0  0  0
 29 31  1  0  0  0
 31 32  2  0  0  0
 32 33  1  0  0  0
 33 34  2  0  0  0
  5  9  1  0  0  0
  9 10  1  0  0  0
 10 11  1  0  0  0
 11 12  1  0  0  0
 12 13  1  0  0  0
 12 14  1  0  0  0
 14 15  1  0  0  0
  8  3  1  0  0  0
 23 18  1  0  0  0
 34 24  1  0  0  0
 15  9  1  0  0  0
 34 28  1  0  0  0
  1  2  1  0  0  0
M  END
> <minimizedAffinity>
-8.84443

> <CNNscore>
0.1159551889

> <CNNaffinity>
6.0416512489

> <CNN_VS>
0.7005608082

> <CNNaffinity_variance>
0.4223981500

$$$$
[H]c1nc(N([H])c2c([H])c([H])c(N3C([H])([H])C([H])([H])N(C([H])([H])[H])C([H])([H])C3([H])[H])c([H])c2OC([H])([H])[H])nc(-c2c([H])n(C([H])([H])[H])c3c(C([H])([H])[H])nc([H])c([H])c23)c1[H]


 34 38  0  0  0  0  0  0  0  0999 V2000
  -85.5276   31.3401    1.1264 N   0  0  0  0  0  0  0  0  0  0  0  0
  -85.1416   32.0611    1.8206 H   0  0  0  0  0  0  0  0  0  0  0  0
  -85.4743   32.8955   -0.7229 C   0  0  0  0  0  0  0  0  0  0  0  0
  -86.0542   33.4359   -1.8177 C   0  0  0  0  0  0  0  0  0  0  0  0
  -87.2908   33.0721   -2.3113 C   0  0  0  0  0  0  0  0  0  0  0  0
  -87.9425   32.0890   -1.6100 C   0  0  0  0  0  0  0  0  0  0  0  0
  -87.3862   31.5110   -0.4870 C   0  0  0  0  0  0  0  0  0  0  0  0
  -86.1559   31.8851   -0.0109 C   0  0  0  0  0  0  0  0  0  0  0  0
  -87.8561   33.6677   -3.4647 N   0  0  0  0  0  0  0  0  0  0  0  0
  -89.0947   33.1655   -3.9689 C   0  0  0  0  0  0  0  0  0  0  0  0
  -89.4544   33.6593   -5.3374 C   0  0  0  0  0  0  0  0  0  0  0  0
  -89.1774   35.0484   -5.5079 N   0  0  0  0  0  0  0  0  0  0  0  0
  -90.1255   35.9398   -4.9181 C   0  0  0  0  0  0  0  0  0  0  0  0
  -87.8392   35.4286   -5.2185 C   0  0  0  0  0  0  0  0  0  0  0  0
  -87.1654   34.7528   -4.0878 C   0  0  0  0  0  0  0  0  0  0  0  0
  -83.1309   32.4317   -0.5157 C   0  0  0  0  0  0  0  0  0  0  0  0
  -84.2218   33.2939   -0.2594 O   0  0  0  0  0  0  0  0  0  0  0  0
  -85.3405   29.9749    1.4734 C   0  0  0  0  0  0  0  0  0  0  0  0
  -84.2635   29.4912    2.0740 N   0  0  0  0  0  0  0  0  0  0  0  0
  -84.1273   28.2094    2.3843 C   0  0  0  0  0  0  0  0  0  0  0  0
  -85.1516   27.3187    2.0727 C   0  0  0  0  0  0  0  0  0  0  0  0
  -86.2681   27.7836    1.4588 C   0  0  0  0  0  0  0  0  0  0  0  0
  -86.3428   29.1071    1.1685 N   0  0  0  0  0  0  0  0  0  0  0  0
  -87.3765   26.9384    1.0437 C   0  0  0  0  0  0  0  0  0  0  0  0
  -87.6568   26.6851   -0.3032 C   0  0  0  0  0  0  0  0  0  0  0  0
  -88.7489   25.9082   -0.4058 N   0  0  0  0  0  0  0  0  0  0  0  0
  -89.3361   25.4397   -1.6543 C   0  0  0  0  0  0  0  0  0  0  0  0
  -89.2212   25.6253    0.8188 C   0  0  0  0  0  0  0  0  0  0  0  0
  -90.3026   24.8948    1.2488 C   0  0  0  0  0  0  0  0  0  0  0  0
  -91.1952   24.2208    0.2875 C   0  0  0  0  0  0  0  0  0  0  0  0
  -90.5132   24.8217    2.5909 N   0  0  0  0  0  0  0  0  0  0  0  0
  -89.7155   25.4266    3.4653 C   0  0  0  0  0  0  0  0  0  0  0  0
  -88.6231   26.1652    3.0495 C   0  0  0  0  0  0  0  0  0  0  0  0
  -88.3526   26.2782    1.7231 C   0  0  0  0  0  0  0  0  0  0  0  0
 16 17  1  0  0  0
 17  3  1  0  0  0
  3  4  2  0  0  0
  4  5  1  0  0  0
  5  6  2  0  0  0
  6  7  1  0  0  0
  7  8  2  0  0  0
  8  1  1  0  0  0
  1 18  1  0  0  0
 18 19  2  0  0  0
 19 20  1  0  0  0
 20 21  2  0  0  0
 21 22  1  0  0  0
 22 23  2  0  0  0
 22 24  1  0  0  0
 24 25  2  0  0  0
 25 26  1  0  0  0
 26 27  1  0  0  0
 26 28  1  0  0  0
 28 29  2  0  0  0
 29 30  1  0  0  0
 29 31  1  0  0  0
 31 32  2  0  0  0
 32 33  1  0  0  0
 33 34  2  0  0  0
  5  9  1  0  0  0
  9 10  1  0  0  0
 10 11  1  0  0  0
 11 12  1  0  0  0
 12 13  1  0  0  0
 12 14  1  0  0  0
 14 15  1  0  0  0
  8  3  1  0  0  0
 23 18  1  0  0  0
 34 24  1  0  0  0
 15  9  1  0  0  0
 34 28  1  0  0  0
  1  2  1  0  0  0
M  END
> <minimizedAffinity>
-8.95067

> <CNNscore>
0.1046642214

> <CNNaffinity>
6.7305550575

> <CNN_VS>
0.7044482827

> <CNNaffinity_variance>
0.3123884797

$$$$
[H]c1nc(N([H])c2c([H])c([H])c(N3C([H])([H])C([H])([H])N(C([H])([H])[H])C([H])([H])C3([H])[H])c([H])c2OC([H])([H])[H])nc(-c2c([H])n(C([H])([H])[H])c3c(C([H])([H])[H])nc([H])c([H])c23)c1[H]


 34 38  0  0  0  0  0  0  0  0999 V2000
  -89.7225   26.9633   -2.5794 N   0  0  0  0  0  0  0  0  0  0  0  0
  -88.8617   26.8904   -3.2155 H   0  0  0  0  0  0  0  0  0  0  0  0
  -91.7512   26.2916   -3.7089 C   0  0  0  0  0  0  0  0  0  0  0  0
  -92.7143   25.3724   -3.9417 C   0  0  0  0  0  0  0  0  0  0  0  0
  -92.7686   24.1258   -3.3517 C   0  0  0  0  0  0  0  0  0  0  0  0
  -91.7534   23.8417   -2.4732 C   0  0  0  0  0  0  0  0  0  0  0  0
  -90.7507   24.7518   -2.2070 C   0  0  0  0  0  0  0  0  0  0  0  0
  -90.7127   25.9862   -2.8029 C   0  0  0  0  0  0  0  0  0  0  0  0
  -93.7992   23.1955   -3.6296 N   0  0  0  0  0  0  0  0  0  0  0  0
  -95.0699   23.6781   -4.0686 C   0  0  0  0  0  0  0  0  0  0  0  0
  -96.1630   22.6529   -4.0532 C   0  0  0  0  0  0  0  0  0  0  0  0
  -95.7279   21.3823   -4.5346 N   0  0  0  0  0  0  0  0  0  0  0  0
  -95.6182   21.2692   -5.9547 C   0  0  0  0  0  0  0  0  0  0  0  0
  -94.5899   20.8516   -3.8697 C   0  0  0  0  0  0  0  0  0  0  0  0
  -93.5325   21.8017   -3.4591 C   0  0  0  0  0  0  0  0  0  0  0  0
  -92.9180   27.9535   -4.9842 C   0  0  0  0  0  0  0  0  0  0  0  0
  -91.7357   27.5401   -4.3281 O   0  0  0  0  0  0  0  0  0  0  0  0
  -89.7133   28.0233   -1.6332 C   0  0  0  0  0  0  0  0  0  0  0  0
  -90.7977   28.5737   -1.1081 N   0  0  0  0  0  0  0  0  0  0  0  0
  -90.7476   29.5609   -0.2244 C   0  0  0  0  0  0  0  0  0  0  0  0
  -89.5093   30.0528    0.1806 C   0  0  0  0  0  0  0  0  0  0  0  0
  -88.3801   29.5091   -0.3380 C   0  0  0  0  0  0  0  0  0  0  0  0
  -88.5023   28.5016   -1.2389 N   0  0  0  0  0  0  0  0  0  0  0  0
  -87.0384   29.9751   -0.0251 C   0  0  0  0  0  0  0  0  0  0  0  0
  -86.1472   29.2188    0.7435 C   0  0  0  0  0  0  0  0  0  0  0  0
  -84.9977   29.8952    0.9102 N   0  0  0  0  0  0  0  0  0  0  0  0
  -83.8392   29.4186    1.6545 C   0  0  0  0  0  0  0  0  0  0  0  0
  -85.0744   31.0812    0.2855 C   0  0  0  0  0  0  0  0  0  0  0  0
  -84.1894   32.1258    0.1689 C   0  0  0  0  0  0  0  0  0  0  0  0
  -82.8512   32.0608    0.7854 C   0  0  0  0  0  0  0  0  0  0  0  0
  -84.5990   33.2160   -0.5345 N   0  0  0  0  0  0  0  0  0  0  0  0
  -85.8034   33.2850   -1.0927 C   0  0  0  0  0  0  0  0  0  0  0  0
  -86.7057   32.2428   -0.9852 C   0  0  0  0  0  0  0  0  0  0  0  0
  -86.3611   31.1226   -0.2984 C   0  0  0  0  0  0  0  0  0  0  0  0
 16 17  1  0  0  0
 17  3  1  0  0  0
  3  4  2  0  0  0
  4  5  1  0  0  0
  5  6  2  0  0  0
  6  7  1  0  0  0
  7  8  2  0  0  0
  8  1  1  0  0  0
  1 18  1  0  0  0
 18 19  2  0  0  0
 19 20  1  0  0  0
 20 21  2  0  0  0
 21 22  1  0  0  0
 22 23  2  0  0  0
 22 24  1  0  0  0
 24 25  2  0  0  0
 25 26  1  0  0  0
 26 27  1  0  0  0
 26 28  1  0  0  0
 28 29  2  0  0  0
 29 30  1  0  0  0
 29 31  1  0  0  0
 31 32  2  0  0  0
 32 33  1  0  0  0
 33 34  2  0  0  0
  5  9  1  0  0  0
  9 10  1  0  0  0
 10 11  1  0  0  0
 11 12  1  0  0  0
 12 13  1  0  0  0
 12 14  1  0  0  0
 14 15  1  0  0  0
  8  3  1  0  0  0
 23 18  1  0  0  0
 34 24  1  0  0  0
 15  9  1  0  0  0
 34 28  1  0  0  0
  1  2  1  0  0  0
M  END
> <minimizedAffinity>
-7.88881

> <CNNscore>
0.0957959816

> <CNNaffinity>
6.0998396873

> <CNN_VS>
0.5843401551

> <CNNaffinity_variance>
0.0716830790

$$$$
[H]c1nc(N([H])c2c([H])c([H])c(N3C([H])([H])C([H])([H])N(C([H])([H])[H])C([H])([H])C3([H])[H])c([H])c2OC([H])([H])[H])nc(-c2c([H])n(C([H])([H])[H])c3c(C([H])([H])[H])nc([H])c([H])c23)c1[H]


 34 38  0  0  0  0  0  0  0  0999 V2000
  -90.9913   31.3666   -1.5445 N   0  0  0  0  0  0  0  0  0  0  0  0
  -91.5082   31.6618   -0.6520 H   0  0  0  0  0  0  0  0  0  0  0  0
  -91.9893   29.2573   -2.1747 C   0  0  0  0  0  0  0  0  0  0  0  0
  -92.7240   28.5185   -3.0356 C   0  0  0  0  0  0  0  0  0  0  0  0
  -93.2851   28.9990   -4.2016 C   0  0  0  0  0  0  0  0  0  0  0  0
  -93.0553   30.3258   -4.4663 C   0  0  0  0  0  0  0  0  0  0  0  0
  -92.3107   31.1155   -3.6140 C   0  0  0  0  0  0  0  0  0  0  0  0
  -91.7607   30.6208   -2.4594 C   0  0  0  0  0  0  0  0  0  0  0  0
  -94.0493   28.1844   -5.0717 N   0  0  0  0  0  0  0  0  0  0  0  0
  -93.7010   28.1300   -6.4560 C   0  0  0  0  0  0  0  0  0  0  0  0
  -94.7314   27.4829   -7.3309 C   0  0  0  0  0  0  0  0  0  0  0  0
  -95.2972   26.3152   -6.7377 N   0  0  0  0  0  0  0  0  0  0  0  0
  -94.4844   25.1417   -6.7973 C   0  0  0  0  0  0  0  0  0  0  0  0
  -95.8506   26.5132   -5.4441 C   0  0  0  0  0  0  0  0  0  0  0  0
  -95.1471   27.4437   -4.5340 C   0  0  0  0  0  0  0  0  0  0  0  0
  -91.6122   27.3452   -0.7779 C   0  0  0  0  0  0  0  0  0  0  0  0
  -91.4410   28.7299   -1.0070 O   0  0  0  0  0  0  0  0  0  0  0  0
  -89.6339   31.7746   -1.6455 C   0  0  0  0  0  0  0  0  0  0  0  0
  -89.2029   32.7785   -2.3944 N   0  0  0  0  0  0  0  0  0  0  0  0
  -87.9264   33.1309   -2.4600 C   0  0  0  0  0  0  0  0  0  0  0  0
  -86.9841   32.4257   -1.7155 C   0  0  0  0  0  0  0  0  0  0  0  0
  -87.3944   31.3932   -0.9375 C   0  0  0  0  0  0  0  0  0  0  0  0
  -88.7157   31.0844   -0.9166 N   0  0  0  0  0  0  0  0  0  0  0  0
  -86.4943   30.5582   -0.1578 C   0  0  0  0  0  0  0  0  0  0  0  0
  -86.8756   29.3032    0.3285 C   0  0  0  0  0  0  0  0  0  0  0  0
  -85.8724   28.7643    1.0426 N   0  0  0  0  0  0  0  0  0  0  0  0
  -85.9087   27.4642    1.6996 C   0  0  0  0  0  0  0  0  0  0  0  0
  -84.8257   29.6050    1.0606 C   0  0  0  0  0  0  0  0  0  0  0  0
  -83.5877   29.5305    1.6521 C   0  0  0  0  0  0  0  0  0  0  0  0
  -83.1897   28.3462    2.4358 C   0  0  0  0  0  0  0  0  0  0  0  0
  -82.7509   30.5902    1.4851 N   0  0  0  0  0  0  0  0  0  0  0  0
  -83.1005   31.6626    0.7820 C   0  0  0  0  0  0  0  0  0  0  0  0
  -84.3421   31.7535    0.1802 C   0  0  0  0  0  0  0  0  0  0  0  0
  -85.2266   30.7301    0.3045 C   0  0  0  0  0  0  0  0  0  0  0  0
 16 17  1  0  0  0
 17  3  1  0  0  0
  3  4  2  0  0  0
  4  5  1  0  0  0
  5  6  2  0  0  0
  6  7  1  0  0  0
  7  8  2  0  0  0
  8  1  1  0  0  0
  1 18  1  0  0  0
 18 19  2  0  0  0
 19 20  1  0  0  0
 20 21  2  0  0  0
 21 22  1  0  0  0
 22 23  2  0  0  0
 22 24  1  0  0  0
 24 25  2  0  0  0
 25 26  1  0  0  0
 26 27  1  0  0  0
 26 28  1  0  0  0
 28 29  2  0  0  0
 29 30  1  0  0  0
 29 31  1  0  0  0
 31 32  2  0  0  0
 32 33  1  0  0  0
 33 34  2  0  0  0
  5  9  1  0  0  0
  9 10  1  0  0  0
 10 11  1  0  0  0
 11 12  1  0  0  0
 12 13  1  0  0  0
 12 14  1  0  0  0
 14 15  1  0  0  0
  8  3  1  0  0  0
 23 18  1  0  0  0
 34 24  1  0  0  0
 15  9  1  0  0  0
 34 28  1  0  0  0
  1  2  1  0  0  0
M  END
> <minimizedAffinity>
-7.90378

> <CNNscore>
0.0922364220

> <CNNaffinity>
6.1827864647

> <CNN_VS>
0.5702781081

> <CNNaffinity_variance>
0.0847527981

$$$$
[H]c1nc(N([H])c2c([H])c([H])c(N3C([H])([H])C([H])([H])N(C([H])([H])[H])C([H])([H])C3([H])[H])c([H])c2OC([H])([H])[H])nc(-c2c([H])n(C([H])([H])[H])c3c(C([H])([H])[H])nc([H])c([H])c23)c1[H]


 34 38  0  0  0  0  0  0  0  0999 V2000
  -90.4017   31.9441   -2.0619 N   0  0  0  0  0  0  0  0  0  0  0  0
  -91.1308   32.6953   -1.8277 H   0  0  0  0  0  0  0  0  0  0  0  0
  -91.9772   30.8290   -3.5167 C   0  0  0  0  0  0  0  0  0  0  0  0
  -92.5010   29.6918   -4.0260 C   0  0  0  0  0  0  0  0  0  0  0  0
  -92.0844   28.4184   -3.6944 C   0  0  0  0  0  0  0  0  0  0  0  0
  -91.0643   28.3487   -2.7792 C   0  0  0  0  0  0  0  0  0  0  0  0
  -90.5015   29.4850   -2.2346 C   0  0  0  0  0  0  0  0  0  0  0  0
  -90.9283   30.7426   -2.5761 C   0  0  0  0  0  0  0  0  0  0  0  0
  -92.6647   27.2560   -4.2573 N   0  0  0  0  0  0  0  0  0  0  0  0
  -93.0356   26.1787   -3.3957 C   0  0  0  0  0  0  0  0  0  0  0  0
  -93.3633   24.9001   -4.1055 C   0  0  0  0  0  0  0  0  0  0  0  0
  -94.1402   25.1120   -5.2833 N   0  0  0  0  0  0  0  0  0  0  0  0
  -95.5289   25.3666   -5.0643 C   0  0  0  0  0  0  0  0  0  0  0  0
  -93.5732   26.0231   -6.2146 C   0  0  0  0  0  0  0  0  0  0  0  0
  -92.8584   27.1996   -5.6722 C   0  0  0  0  0  0  0  0  0  0  0  0
  -92.3043   32.4636   -5.2402 C   0  0  0  0  0  0  0  0  0  0  0  0
  -92.4296   32.0959   -3.8807 O   0  0  0  0  0  0  0  0  0  0  0  0
  -89.0458   32.2890   -1.8133 C   0  0  0  0  0  0  0  0  0  0  0  0
  -88.4523   33.3840   -2.2643 N   0  0  0  0  0  0  0  0  0  0  0  0
  -87.1839   33.6724   -2.0080 C   0  0  0  0  0  0  0  0  0  0  0  0
  -86.4277   32.7971   -1.2324 C   0  0  0  0  0  0  0  0  0  0  0  0
  -87.0074   31.6678   -0.7545 C   0  0  0  0  0  0  0  0  0  0  0  0
  -88.3097   31.4326   -1.0549 N   0  0  0  0  0  0  0  0  0  0  0  0
  -86.3019   30.6611    0.0228 C   0  0  0  0  0  0  0  0  0  0  0  0
  -86.9246   29.4885    0.4634 C   0  0  0  0  0  0  0  0  0  0  0  0
  -86.0608   28.7548    1.1861 N   0  0  0  0  0  0  0  0  0  0  0  0
  -86.3580   27.4693    1.8046 C   0  0  0  0  0  0  0  0  0  0  0  0
  -84.8768   29.3842    1.2540 C   0  0  0  0  0  0  0  0  0  0  0  0
  -83.6923   29.0655    1.8732 C   0  0  0  0  0  0  0  0  0  0  0  0
  -83.5452   27.8096    2.6322 C   0  0  0  0  0  0  0  0  0  0  0  0
  -82.6682   29.9536    1.7573 N   0  0  0  0  0  0  0  0  0  0  0  0
  -82.7910   31.0888    1.0767 C   0  0  0  0  0  0  0  0  0  0  0  0
  -83.9756   31.4244    0.4475 C   0  0  0  0  0  0  0  0  0  0  0  0
  -85.0386   30.5819    0.5207 C   0  0  0  0  0  0  0  0  0  0  0  0
 16 17  1  0  0  0
 17  3  1  0  0  0
  3  4  2  0  0  0
  4  5  1  0  0  0
  5  6  2  0  0  0
  6  7  1  0  0  0
  7  8  2  0  0  0
  8  1  1  0  0  0
  1 18  1  0  0  0
 18 19  2  0  0  0
 19 20  1  0  0  0
 20 21  2  0  0  0
 21 22  1  0  0  0
 22 23  2  0  0  0
 22 24  1  0  0  0
 24 25  2  0  0  0
 25 26  1  0  0  0
 26 27  1  0  0  0
 26 28  1  0  0  0
 28 29  2  0  0  0
 29 30  1  0  0  0
 29 31  1  0  0  0
 31 32  2  0  0  0
 32 33  1  0  0  0
 33 34  2  0  0  0
  5  9  1  0  0  0
  9 10  1  0  0  0
 10 11  1  0  0  0
 11 12  1  0  0  0
 12 13  1  0  0  0
 12 14  1  0  0  0
 14 15  1  0  0  0
  8  3  1  0  0  0
 23 18  1  0  0  0
 34 24  1  0  0  0
 15  9  1  0  0  0
 34 28  1  0  0  0
  1  2  1  0  0  0
M  END
> <minimizedAffinity>
-8.64751

> <CNNscore>
0.0902602300

> <CNNaffinity>
6.0355935097

> <CNN_VS>
0.5447740555

> <CNNaffinity_variance>
0.3107154965

$$$$
[H]c1nc(N([H])c2c([H])c([H])c(N3C([H])([H])C([H])([H])N(C(=O)C([H])([H])[H])C([H])([H])C3([H])[H])c([H])c2OC([H])([H])[H])nc(-c2c([H])n([H])c3c([H])nc([H])c([H])c23)c1[H]


 35 39  0  0  0  0  0  0  0  0999 V2000
  -86.3643   33.6885   -0.8433 N   0  0  0  0  0  0  0  0  0  0  0  0
  -86.4303   34.7153   -0.5440 H   0  0  0  0  0  0  0  0  0  0  0  0
  -87.6663   33.6227   -2.8966 C   0  0  0  0  0  0  0  0  0  0  0  0
  -88.7154   33.2151   -3.6658 C   0  0  0  0  0  0  0  0  0  0  0  0
  -89.6686   32.3619   -3.1604 C   0  0  0  0  0  0  0  0  0  0  0  0
  -89.5284   31.9361   -1.8597 C   0  0  0  0  0  0  0  0  0  0  0  0
  -88.4469   32.3658   -1.0905 C   0  0  0  0  0  0  0  0  0  0  0  0
  -87.4759   33.2160   -1.5585 C   0  0  0  0  0  0  0  0  0  0  0  0
  -90.7773   31.9198   -3.9323 N   0  0  0  0  0  0  0  0  0  0  0  0
  -91.3165   32.6580   -5.0527 C   0  0  0  0  0  0  0  0  0  0  0  0
  -92.8406   32.4824   -5.1383 C   0  0  0  0  0  0  0  0  0  0  0  0
  -93.0615   31.0866   -5.4209 N   0  0  0  0  0  0  0  0  0  0  0  0
  -92.1638   30.1215   -4.8738 C   0  0  0  0  0  0  0  0  0  0  0  0
  -91.4440   30.6694   -3.6339 C   0  0  0  0  0  0  0  0  0  0  0  0
  -94.1461   30.6748   -6.2247 C   0  0  0  0  0  0  0  0  0  0  0  0
  -95.0915   31.6616   -6.8031 C   0  0  0  0  0  0  0  0  0  0  0  0
  -94.3348   29.4583   -6.4685 O   0  0  0  0  0  0  0  0  0  0  0  0
  -87.1384   35.4978   -4.3406 C   0  0  0  0  0  0  0  0  0  0  0  0
  -86.7287   34.4834   -3.4472 O   0  0  0  0  0  0  0  0  0  0  0  0
  -85.1839   32.9830   -0.4755 C   0  0  0  0  0  0  0  0  0  0  0  0
  -83.9389   33.4377   -0.6426 N   0  0  0  0  0  0  0  0  0  0  0  0
  -82.8452   32.7668   -0.2987 C   0  0  0  0  0  0  0  0  0  0  0  0
  -83.0029   31.5105    0.2719 C   0  0  0  0  0  0  0  0  0  0  0  0
  -84.2603   31.0126    0.4566 C   0  0  0  0  0  0  0  0  0  0  0  0
  -85.3117   31.7566    0.0817 N   0  0  0  0  0  0  0  0  0  0  0  0
  -84.5272   29.7120    1.0946 C   0  0  0  0  0  0  0  0  0  0  0  0
  -83.7429   29.2301    2.1490 C   0  0  0  0  0  0  0  0  0  0  0  0
  -84.2389   28.0389    2.5662 N   0  0  0  0  0  0  0  0  0  0  0  0
  -85.3129   27.7281    1.8276 C   0  0  0  0  0  0  0  0  0  0  0  0
  -86.1560   26.6508    1.8761 C   0  0  0  0  0  0  0  0  0  0  0  0
  -87.2081   26.5857    1.0098 N   0  0  0  0  0  0  0  0  0  0  0  0
  -87.4098   27.5721    0.1205 C   0  0  0  0  0  0  0  0  0  0  0  0
  -86.5583   28.6597    0.0709 C   0  0  0  0  0  0  0  0  0  0  0  0
  -85.4889   28.7710    0.9154 C   0  0  0  0  0  0  0  0  0  0  0  0
  -83.8621   27.4344    3.3416 H   0  0  0  0  0  0  0  0  0  0  0  0
 18 19  1  0  0  0
 19  3  1  0  0  0
  3  4  2  0  0  0
  4  5  1  0  0  0
  5  6  2  0  0  0
  6  7  1  0  0  0
  7  8  2  0  0  0
  8  1  1  0  0  0
  1 20  1  0  0  0
 20 21  2  0  0  0
 21 22  1  0  0  0
 22 23  2  0  0  0
 23 24  1  0  0  0
 24 25  2  0  0  0
 24 26  1  0  0  0
 26 27  2  0  0  0
 27 28  1  0  0  0
 28 29  1  0  0  0
 29 30  2  0  0  0
 30 31  1  0  0  0
 31 32  2  0  0  0
 32 33  1  0  0  0
 33 34  2  0  0  0
  5  9  1  0  0  0
  9 10  1  0  0  0
 10 11  1  0  0  0
 11 12  1  0  0  0
 12 13  1  0  0  0
 13 14  1  0  0  0
 12 15  1  0  0  0
 15 16  1  0  0  0
 15 17  2  0  0  0
  8  3  1  0  0  0
 25 20  1  0  0  0
 34 26  1  0  0  0
 14  9  1  0  0  0
 34 29  1  0  0  0
  1  2  1  0  0  0
 28 35  1  0  0  0
M  END
> <minimizedAffinity>
-9.18889

> <CNNscore>
0.6323872805

> <CNNaffinity>
7.1933898926

> <CNN_VS>
4.5490083694

> <CNNaffinity_variance>
0.0141997542

$$$$
[H]c1nc(N([H])c2c([H])c([H])c(N3C([H])([H])C([H])([H])N(C(=O)C([H])([H])[H])C([H])([H])C3([H])[H])c([H])c2OC([H])([H])[H])nc(-c2c([H])n([H])c3c([H])nc([H])c([H])c23)c1[H]


 35 39  0  0  0  0  0  0  0  0999 V2000
  -86.3311   26.7961    2.0005 N   0  0  0  0  0  0  0  0  0  0  0  0
  -86.4895   26.0823    2.7839 H   0  0  0  0  0  0  0  0  0  0  0  0
  -88.6386   27.3518    1.4696 C   0  0  0  0  0  0  0  0  0  0  0  0
  -89.7067   27.4626    0.6296 C   0  0  0  0  0  0  0  0  0  0  0  0
  -89.6006   27.1053   -0.6943 C   0  0  0  0  0  0  0  0  0  0  0  0
  -88.3868   26.6349   -1.1401 C   0  0  0  0  0  0  0  0  0  0  0  0
  -87.3071   26.5296   -0.2632 C   0  0  0  0  0  0  0  0  0  0  0  0
  -87.3733   26.8758    1.0636 C   0  0  0  0  0  0  0  0  0  0  0  0
  -90.6940   27.2041   -1.5971 N   0  0  0  0  0  0  0  0  0  0  0  0
  -91.1681   26.1003   -2.4021 C   0  0  0  0  0  0  0  0  0  0  0  0
  -91.6749   26.5979   -3.7647 C   0  0  0  0  0  0  0  0  0  0  0  0
  -92.8222   27.4230   -3.4815 N   0  0  0  0  0  0  0  0  0  0  0  0
  -92.8382   28.1932   -2.2803 C   0  0  0  0  0  0  0  0  0  0  0  0
  -91.4161   28.4483   -1.7624 C   0  0  0  0  0  0  0  0  0  0  0  0
  -93.9146   27.4727   -4.3737 C   0  0  0  0  0  0  0  0  0  0  0  0
  -93.9181   26.6803   -5.6284 C   0  0  0  0  0  0  0  0  0  0  0  0
  -94.9116   28.1923   -4.1233 O   0  0  0  0  0  0  0  0  0  0  0  0
  -89.8844   27.2368    3.5468 C   0  0  0  0  0  0  0  0  0  0  0  0
  -88.7908   27.7235    2.7968 O   0  0  0  0  0  0  0  0  0  0  0  0
  -85.1143   27.5339    2.0351 C   0  0  0  0  0  0  0  0  0  0  0  0
  -83.9782   27.1078    2.5943 N   0  0  0  0  0  0  0  0  0  0  0  0
  -82.8502   27.8086    2.6235 C   0  0  0  0  0  0  0  0  0  0  0  0
  -82.8483   29.0667    2.0353 C   0  0  0  0  0  0  0  0  0  0  0  0
  -83.9915   29.5359    1.4555 C   0  0  0  0  0  0  0  0  0  0  0  0
  -85.0877   28.7627    1.4693 N   0  0  0  0  0  0  0  0  0  0  0  0
  -84.0725   30.8363    0.7684 C   0  0  0  0  0  0  0  0  0  0  0  0
  -82.9467   31.6475    0.5845 C   0  0  0  0  0  0  0  0  0  0  0  0
  -83.3039   32.7559   -0.1105 N   0  0  0  0  0  0  0  0  0  0  0  0
  -84.6139   32.6975   -0.3864 C   0  0  0  0  0  0  0  0  0  0  0  0
  -85.4273   33.5589   -1.0718 C   0  0  0  0  0  0  0  0  0  0  0  0
  -86.7459   33.2475   -1.2334 N   0  0  0  0  0  0  0  0  0  0  0  0
  -87.2352   32.1053   -0.7231 C   0  0  0  0  0  0  0  0  0  0  0  0
  -86.4141   31.2355   -0.0305 C   0  0  0  0  0  0  0  0  0  0  0  0
  -85.0869   31.5027    0.1607 C   0  0  0  0  0  0  0  0  0  0  0  0
  -82.6755   33.5496   -0.4001 H   0  0  0  0  0  0  0  0  0  0  0  0
 18 19  1  0  0  0
 19  3  1  0  0  0
  3  4  2  0  0  0
  4  5  1  0  0  0
  5  6  2  0  0  0
  6  7  1  0  0  0
  7  8  2  0  0  0
  8  1  1  0  0  0
  1 20  1  0  0  0
 20 21  2  0  0  0
 21 22  1  0  0  0
 22 23  2  0  0  0
 23 24  1  0  0  0
 24 25  2  0  0  0
 24 26  1  0  0  0
 26 27  2  0  0  0
 27 28  1  0  0  0
 28 29  1  0  0  0
 29 30  2  0  0  0
 30 31  1  0  0  0
 31 32  2  0  0  0
 32 33  1  0  0  0
 33 34  2  0  0  0
  5  9  1  0  0  0
  9 10  1  0  0  0
 10 11  1  0  0  0
 11 12  1  0  0  0
 12 13  1  0  0  0
 13 14  1  0  0  0
 12 15  1  0  0  0
 15 16  1  0  0  0
 15 17  2  0  0  0
  8  3  1  0  0  0
 25 20  1  0  0  0
 34 26  1  0  0  0
 14  9  1  0  0  0
 34 29  1  0  0  0
  1  2  1  0  0  0
 28 35  1  0  0  0
M  END
> <minimizedAffinity>
-9.75660

> <CNNscore>
0.5825198293

> <CNNaffinity>
7.3072714806

> <CNN_VS>
4.2566304207

> <CNNaffinity_variance>
0.0119361561

$$$$
[H]c1nc(N([H])c2c([H])c([H])c(N3C([H])([H])C([H])([H])N(C(=O)C([H])([H])[H])C([H])([H])C3([H])[H])c([H])c2OC([H])([H])[H])nc(-c2c([H])n([H])c3c([H])nc([H])c([H])c23)c1[H]


 35 39  0  0  0  0  0  0  0  0999 V2000
  -88.9781   32.0219   -0.5498 N   0  0  0  0  0  0  0  0  0  0  0  0
  -89.5049   32.3913    0.3071 H   0  0  0  0  0  0  0  0  0  0  0  0
  -90.2462   30.0182   -1.0911 C   0  0  0  0  0  0  0  0  0  0  0  0
  -91.0193   29.2438   -1.9042 C   0  0  0  0  0  0  0  0  0  0  0  0
  -91.3838   29.6830   -3.1556 C   0  0  0  0  0  0  0  0  0  0  0  0
  -90.9443   30.9235   -3.5570 C   0  0  0  0  0  0  0  0  0  0  0  0
  -90.1541   31.6993   -2.7088 C   0  0  0  0  0  0  0  0  0  0  0  0
  -89.7697   31.2963   -1.4539 C   0  0  0  0  0  0  0  0  0  0  0  0
  -92.1852   28.9008   -4.0309 N   0  0  0  0  0  0  0  0  0  0  0  0
  -92.6419   27.5651   -3.7171 C   0  0  0  0  0  0  0  0  0  0  0  0
  -92.6989   26.6970   -4.9837 C   0  0  0  0  0  0  0  0  0  0  0  0
  -93.7089   27.2903   -5.8233 N   0  0  0  0  0  0  0  0  0  0  0  0
  -93.8773   28.7073   -5.8035 C   0  0  0  0  0  0  0  0  0  0  0  0
  -92.6037   29.4135   -5.3189 C   0  0  0  0  0  0  0  0  0  0  0  0
  -94.5210   26.4885   -6.6537 C   0  0  0  0  0  0  0  0  0  0  0  0
  -94.3623   25.0135   -6.6898 C   0  0  0  0  0  0  0  0  0  0  0  0
  -95.3994   27.0091   -7.3831 O   0  0  0  0  0  0  0  0  0  0  0  0
  -90.8997   29.0179    1.0189 C   0  0  0  0  0  0  0  0  0  0  0  0
  -89.9026   29.5354    0.1626 O   0  0  0  0  0  0  0  0  0  0  0  0
  -87.5887   32.3202   -0.6322 C   0  0  0  0  0  0  0  0  0  0  0  0
  -87.0687   33.3618   -1.2876 N   0  0  0  0  0  0  0  0  0  0  0  0
  -85.7691   33.6265   -1.3603 C   0  0  0  0  0  0  0  0  0  0  0  0
  -84.8909   32.7663   -0.7140 C   0  0  0  0  0  0  0  0  0  0  0  0
  -85.3860   31.6903   -0.0355 C   0  0  0  0  0  0  0  0  0  0  0  0
  -86.7132   31.4964   -0.0112 N   0  0  0  0  0  0  0  0  0  0  0  0
  -84.5371   30.7509    0.7172 C   0  0  0  0  0  0  0  0  0  0  0  0
  -83.2405   31.0874    1.1229 C   0  0  0  0  0  0  0  0  0  0  0  0
  -82.7120   30.0570    1.8287 N   0  0  0  0  0  0  0  0  0  0  0  0
  -83.6117   29.0665    1.8991 C   0  0  0  0  0  0  0  0  0  0  0  0
  -83.5555   27.8429    2.5100 C   0  0  0  0  0  0  0  0  0  0  0  0
  -84.6384   27.0150    2.4493 N   0  0  0  0  0  0  0  0  0  0  0  0
  -85.7460   27.4024    1.7956 C   0  0  0  0  0  0  0  0  0  0  0  0
  -85.8029   28.6377    1.1782 C   0  0  0  0  0  0  0  0  0  0  0  0
  -84.7444   29.5025    1.2080 C   0  0  0  0  0  0  0  0  0  0  0  0
  -81.7535   30.0143    2.2625 H   0  0  0  0  0  0  0  0  0  0  0  0
 18 19  1  0  0  0
 19  3  1  0  0  0
  3  4  2  0  0  0
  4  5  1  0  0  0
  5  6  2  0  0  0
  6  7  1  0  0  0
  7  8  2  0  0  0
  8  1  1  0  0  0
  1 20  1  0  0  0
 20 21  2  0  0  0
 21 22  1  0  0  0
 22 23  2  0  0  0
 23 24  1  0  0  0
 24 25  2  0  0  0
 24 26  1  0  0  0
 26 27  2  0  0  0
 27 28  1  0  0  0
 28 29  1  0  0  0
 29 30  2  0  0  0
 30 31  1  0  0  0
 31 32  2  0  0  0
 32 33  1  0  0  0
 33 34  2  0  0  0
  5  9  1  0  0  0
  9 10  1  0  0  0
 10 11  1  0  0  0
 11 12  1  0  0  0
 12 13  1  0  0  0
 13 14  1  0  0  0
 12 15  1  0  0  0
 15 16  1  0  0  0
 15 17  2  0  0  0
  8  3  1  0  0  0
 25 20  1  0  0  0
 34 26  1  0  0  0
 14  9  1  0  0  0
 34 29  1  0  0  0
  1  2  1  0  0  0
 28 35  1  0  0  0
M  END
> <minimizedAffinity>
-9.13621

> <CNNscore>
0.4115493894

> <CNNaffinity>
6.7901735306

> <CNN_VS>
2.7944917679

> <CNNaffinity_variance>
0.0329796374

$$$$
[H]c1nc(N([H])c2c([H])c([H])c(N3C([H])([H])C([H])([H])N(C(=O)C([H])([H])[H])C([H])([H])C3([H])[H])c([H])c2OC([H])([H])[H])nc(-c2c([H])n([H])c3c([H])nc([H])c([H])c23)c1[H]


 35 39  0  0  0  0  0  0  0  0999 V2000
  -87.0343   27.2171    1.4871 N   0  0  0  0  0  0  0  0  0  0  0  0
  -87.4029   26.4175    2.0978 H   0  0  0  0  0  0  0  0  0  0  0  0
  -88.6074   26.7262   -0.3018 C   0  0  0  0  0  0  0  0  0  0  0  0
  -89.4964   27.0710   -1.2762 C   0  0  0  0  0  0  0  0  0  0  0  0
  -89.7893   28.3914   -1.5260 C   0  0  0  0  0  0  0  0  0  0  0  0
  -89.1586   29.3474   -0.7636 C   0  0  0  0  0  0  0  0  0  0  0  0
  -88.2524   28.9722    0.2283 C   0  0  0  0  0  0  0  0  0  0  0  0
  -87.9340   27.6663    0.5075 C   0  0  0  0  0  0  0  0  0  0  0  0
  -90.7077   28.7871   -2.5362 N   0  0  0  0  0  0  0  0  0  0  0  0
  -90.5303   29.9603   -3.3626 C   0  0  0  0  0  0  0  0  0  0  0  0
  -91.8858   30.6042   -3.6931 C   0  0  0  0  0  0  0  0  0  0  0  0
  -92.5956   29.6397   -4.4951 N   0  0  0  0  0  0  0  0  0  0  0  0
  -92.3998   28.2499   -4.2365 C   0  0  0  0  0  0  0  0  0  0  0  0
  -91.9025   28.0139   -2.8038 C   0  0  0  0  0  0  0  0  0  0  0  0
  -93.4711   30.0566   -5.5205 C   0  0  0  0  0  0  0  0  0  0  0  0
  -93.6894   31.4964   -5.8057 C   0  0  0  0  0  0  0  0  0  0  0  0
  -94.0870   29.2135   -6.2166 O   0  0  0  0  0  0  0  0  0  0  0  0
  -89.4067   24.4692    0.0819 C   0  0  0  0  0  0  0  0  0  0  0  0
  -88.3421   25.3826   -0.0843 O   0  0  0  0  0  0  0  0  0  0  0  0
  -85.7187   27.6862    1.7616 C   0  0  0  0  0  0  0  0  0  0  0  0
  -84.8041   27.0220    2.4737 N   0  0  0  0  0  0  0  0  0  0  0  0
  -83.5806   27.4734    2.7263 C   0  0  0  0  0  0  0  0  0  0  0  0
  -83.2260   28.7164    2.2185 C   0  0  0  0  0  0  0  0  0  0  0  0
  -84.1354   29.4247    1.4874 C   0  0  0  0  0  0  0  0  0  0  0  0
  -85.3500   28.8950    1.2782 N   0  0  0  0  0  0  0  0  0  0  0  0
  -83.8353   30.7285    0.8710 C   0  0  0  0  0  0  0  0  0  0  0  0
  -82.5430   31.2661    0.8691 C   0  0  0  0  0  0  0  0  0  0  0  0
  -82.5514   32.4463    0.2012 N   0  0  0  0  0  0  0  0  0  0  0  0
  -83.7948   32.6965   -0.2316 C   0  0  0  0  0  0  0  0  0  0  0  0
  -84.3005   33.7402   -0.9585 C   0  0  0  0  0  0  0  0  0  0  0  0
  -85.6232   33.7429   -1.2933 N   0  0  0  0  0  0  0  0  0  0  0  0
  -86.4163   32.7284   -0.9111 C   0  0  0  0  0  0  0  0  0  0  0  0
  -85.9060   31.6745   -0.1766 C   0  0  0  0  0  0  0  0  0  0  0  0
  -84.5887   31.6260    0.1861 C   0  0  0  0  0  0  0  0  0  0  0  0
  -81.7301   33.0836    0.0342 H   0  0  0  0  0  0  0  0  0  0  0  0
 18 19  1  0  0  0
 19  3  1  0  0  0
  3  4  2  0  0  0
  4  5  1  0  0  0
  5  6  2  0  0  0
  6  7  1  0  0  0
  7  8  2  0  0  0
  8  1  1  0  0  0
  1 20  1  0  0  0
 20 21  2  0  0  0
 21 22  1  0  0  0
 22 23  2  0  0  0
 23 24  1  0  0  0
 24 25  2  0  0  0
 24 26  1  0  0  0
 26 27  2  0  0  0
 27 28  1  0  0  0
 28 29  1  0  0  0
 29 30  2  0  0  0
 30 31  1  0  0  0
 31 32  2  0  0  0
 32 33  1  0  0  0
 33 34  2  0  0  0
  5  9  1  0  0  0
  9 10  1  0  0  0
 10 11  1  0  0  0
 11 12  1  0  0  0
 12 13  1  0  0  0
 13 14  1  0  0  0
 12 15  1  0  0  0
 15 16  1  0  0  0
 15 17  2  0  0  0
  8  3  1  0  0  0
 25 20  1  0  0  0
 34 26  1  0  0  0
 14  9  1  0  0  0
 34 29  1  0  0  0
  1  2  1  0  0  0
 28 35  1  0  0  0
M  END
> <minimizedAffinity>
-9.19645

> <CNNscore>
0.3754885495

> <CNNaffinity>
7.2495164871

> <CNN_VS>
2.7221105099

> <CNNaffinity_variance>
0.1083511487

$$$$
[H]c1nc(N([H])c2c([H])c([H])c(N3C([H])([H])C([H])([H])N(C(=O)C([H])([H])[H])C([H])([H])C3([H])[H])c([H])c2OC([H])([H])[H])nc(-c2c([H])n([H])c3c([H])nc([H])c([H])c23)c1[H]


 35 39  0  0  0  0  0  0  0  0999 V2000
  -87.9153   26.1305    1.2644 N   0  0  0  0  0  0  0  0  0  0  0  0
  -88.0460   25.2937    1.9208 H   0  0  0  0  0  0  0  0  0  0  0  0
  -90.1192   26.9194    0.6040 C   0  0  0  0  0  0  0  0  0  0  0  0
  -91.1392   27.0945   -0.2834 C   0  0  0  0  0  0  0  0  0  0  0  0
  -91.0378   26.6273   -1.5731 C   0  0  0  0  0  0  0  0  0  0  0  0
  -89.8785   25.9809   -1.9355 C   0  0  0  0  0  0  0  0  0  0  0  0
  -88.8474   25.8127   -1.0113 C   0  0  0  0  0  0  0  0  0  0  0  0
  -88.9107   26.2643    0.2836 C   0  0  0  0  0  0  0  0  0  0  0  0
  -92.0826   26.7887   -2.5231 N   0  0  0  0  0  0  0  0  0  0  0  0
  -92.3316   25.8598   -3.6030 C   0  0  0  0  0  0  0  0  0  0  0  0
  -92.8363   26.5988   -4.8521 C   0  0  0  0  0  0  0  0  0  0  0  0
  -94.1134   27.1597   -4.4894 N   0  0  0  0  0  0  0  0  0  0  0  0
  -94.3164   27.6027   -3.1481 C   0  0  0  0  0  0  0  0  0  0  0  0
  -92.9828   27.9211   -2.4582 C   0  0  0  0  0  0  0  0  0  0  0  0
  -95.1500   27.2717   -5.4406 C   0  0  0  0  0  0  0  0  0  0  0  0
  -94.9600   26.8176   -6.8406 C   0  0  0  0  0  0  0  0  0  0  0  0
  -96.2606   27.7604   -5.1206 O   0  0  0  0  0  0  0  0  0  0  0  0
  -91.1005   28.5185    2.1401 C   0  0  0  0  0  0  0  0  0  0  0  0
  -90.2647   27.4067    1.8940 O   0  0  0  0  0  0  0  0  0  0  0  0
  -86.7769   26.9553    1.4878 C   0  0  0  0  0  0  0  0  0  0  0  0
  -85.7069   26.6023    2.2056 N   0  0  0  0  0  0  0  0  0  0  0  0
  -84.6524   27.3838    2.4100 C   0  0  0  0  0  0  0  0  0  0  0  0
  -84.6597   28.6511    1.8419 C   0  0  0  0  0  0  0  0  0  0  0  0
  -85.7370   29.0470    1.1030 C   0  0  0  0  0  0  0  0  0  0  0  0
  -86.7608   28.1947    0.9451 N   0  0  0  0  0  0  0  0  0  0  0  0
  -85.8145   30.3524    0.4252 C   0  0  0  0  0  0  0  0  0  0  0  0
  -87.0244   30.8655   -0.0563 C   0  0  0  0  0  0  0  0  0  0  0  0
  -86.8075   32.0925   -0.5916 N   0  0  0  0  0  0  0  0  0  0  0  0
  -85.5078   32.3978   -0.4765 C   0  0  0  0  0  0  0  0  0  0  0  0
  -84.8111   33.5164   -0.8464 C   0  0  0  0  0  0  0  0  0  0  0  0
  -83.4727   33.5856   -0.5900 N   0  0  0  0  0  0  0  0  0  0  0  0
  -82.8505   32.5633    0.0201 C   0  0  0  0  0  0  0  0  0  0  0  0
  -83.5537   31.4335    0.3933 C   0  0  0  0  0  0  0  0  0  0  0  0
  -84.8951   31.3142    0.1568 C   0  0  0  0  0  0  0  0  0  0  0  0
  -87.5245   32.7250   -1.0328 H   0  0  0  0  0  0  0  0  0  0  0  0
 18 19  1  0  0  0
 19  3  1  0  0  0
  3  4  2  0  0  0
  4  5  1  0  0  0
  5  6  2  0  0  0
  6  7  1  0  0  0
  7  8  2  0  0  0
  8  1  1  0  0  0
  1 20  1  0  0  0
 20 21  2  0  0  0
 21 22  1  0  0  0
 22 23  2  0  0  0
 23 24  1  0  0  0
 24 25  2  0  0  0
 24 26  1  0  0  0
 26 27  2  0  0  0
 27 28  1  0  0  0
 28 29  1  0  0  0
 29 30  2  0  0  0
 30 31  1  0  0  0
 31 32  2  0  0  0
 32 33  1  0  0  0
 33 34  2  0  0  0
  5  9  1  0  0  0
  9 10  1  0  0  0
 10 11  1  0  0  0
 11 12  1  0  0  0
 12 13  1  0  0  0
 13 14  1  0  0  0
 12 15  1  0  0  0
 15 16  1  0  0  0
 15 17  2  0  0  0
  8  3  1  0  0  0
 25 20  1  0  0  0
 34 26  1  0  0  0
 14  9  1  0  0  0
 34 29  1  0  0  0
  1  2  1  0  0  0
 28 35  1  0  0  0
M  END
> <minimizedAffinity>
-8.92601

> <CNNscore>
0.3730595410

> <CNNaffinity>
6.8805251122

> <CNN_VS>
2.5668456554

> <CNNaffinity_variance>
0.0240658727

$$$$
[H]c1nc(N([H])c2c([H])c([H])c(N3C([H])([H])C([H])([H])N(C(=O)C([H])([H])[H])C([H])([H])C3([H])[H])c([H])c2OC([H])([H])[H])nc(-c2c([H])n([H])c3c([H])nc([H])c([H])c23)c1[H]


 35 39  0  0  0  0  0  0  0  0999 V2000
  -86.4113   28.0378    2.5068 N   0  0  0  0  0  0  0  0  0  0  0  0
  -86.6610   28.0466    3.5488 H   0  0  0  0  0  0  0  0  0  0  0  0
  -88.6105   27.0757    2.1151 C   0  0  0  0  0  0  0  0  0  0  0  0
  -89.5170   26.3488    1.4020 C   0  0  0  0  0  0  0  0  0  0  0  0
  -89.1632   25.7544    0.2132 C   0  0  0  0  0  0  0  0  0  0  0  0
  -87.8708   25.9172   -0.2297 C   0  0  0  0  0  0  0  0  0  0  0  0
  -86.9596   26.6652    0.5159 C   0  0  0  0  0  0  0  0  0  0  0  0
  -87.2742   27.2733    1.7059 C   0  0  0  0  0  0  0  0  0  0  0  0
  -90.0809   24.9866   -0.5541 N   0  0  0  0  0  0  0  0  0  0  0  0
  -90.3940   25.2643   -1.9382 C   0  0  0  0  0  0  0  0  0  0  0  0
  -91.8644   24.9362   -2.2408 C   0  0  0  0  0  0  0  0  0  0  0  0
  -91.9942   23.5113   -2.0676 N   0  0  0  0  0  0  0  0  0  0  0  0
  -91.2082   22.8635   -1.0681 C   0  0  0  0  0  0  0  0  0  0  0  0
  -90.7690   23.8503    0.0223 C   0  0  0  0  0  0  0  0  0  0  0  0
  -92.8824   22.7637   -2.8701 C   0  0  0  0  0  0  0  0  0  0  0  0
  -93.7092   23.4174   -3.9147 C   0  0  0  0  0  0  0  0  0  0  0  0
  -92.9923   21.5231   -2.7162 O   0  0  0  0  0  0  0  0  0  0  0  0
  -89.9933   27.0305    4.1065 C   0  0  0  0  0  0  0  0  0  0  0  0
  -89.0108   27.6574    3.3085 O   0  0  0  0  0  0  0  0  0  0  0  0
  -85.2683   28.7878    2.1100 C   0  0  0  0  0  0  0  0  0  0  0  0
  -84.0100   28.5035    2.4574 N   0  0  0  0  0  0  0  0  0  0  0  0
  -82.9522   29.2146    2.0836 C   0  0  0  0  0  0  0  0  0  0  0  0
  -83.1647   30.3266    1.2792 C   0  0  0  0  0  0  0  0  0  0  0  0
  -84.4374   30.6487    0.9055 C   0  0  0  0  0  0  0  0  0  0  0  0
  -85.4499   29.8760    1.3267 N   0  0  0  0  0  0  0  0  0  0  0  0
  -84.7556   31.7806    0.0182 C   0  0  0  0  0  0  0  0  0  0  0  0
  -83.7626   32.6312   -0.4813 C   0  0  0  0  0  0  0  0  0  0  0  0
  -84.3324   33.5511   -1.2987 N   0  0  0  0  0  0  0  0  0  0  0  0
  -85.6534   33.3322   -1.3518 C   0  0  0  0  0  0  0  0  0  0  0  0
  -86.6438   33.9747   -2.0446 C   0  0  0  0  0  0  0  0  0  0  0  0
  -87.9294   33.5299   -1.9400 N   0  0  0  0  0  0  0  0  0  0  0  0
  -88.2144   32.4713   -1.1637 C   0  0  0  0  0  0  0  0  0  0  0  0
  -87.2146   31.8228   -0.4636 C   0  0  0  0  0  0  0  0  0  0  0  0
  -85.9115   32.2307   -0.5329 C   0  0  0  0  0  0  0  0  0  0  0  0
  -83.8417   34.3231   -1.8201 H   0  0  0  0  0  0  0  0  0  0  0  0
 18 19  1  0  0  0
 19  3  1  0  0  0
  3  4  2  0  0  0
  4  5  1  0  0  0
  5  6  2  0  0  0
  6  7  1  0  0  0
  7  8  2  0  0  0
  8  1  1  0  0  0
  1 20  1  0  0  0
 20 21  2  0  0  0
 21 22  1  0  0  0
 22 23  2  0  0  0
 23 24  1  0  0  0
 24 25  2  0  0  0
 24 26  1  0  0  0
 26 27  2  0  0  0
 27 28  1  0  0  0
 28 29  1  0  0  0
 29 30  2  0  0  0
 30 31  1  0  0  0
 31 32  2  0  0  0
 32 33  1  0  0  0
 33 34  2  0  0  0
  5  9  1  0  0  0
  9 10  1  0  0  0
 10 11  1  0  0  0
 11 12  1  0  0  0
 12 13  1  0  0  0
 13 14  1  0  0  0
 12 15  1  0  0  0
 15 16  1  0  0  0
 15 17  2  0  0  0
  8  3  1  0  0  0
 25 20  1  0  0  0
 34 26  1  0  0  0
 14  9  1  0  0  0
 34 29  1  0  0  0
  1  2  1  0  0  0
 28 35  1  0  0  0
M  END
> <minimizedAffinity>
-9.45672

> <CNNscore>
0.2758382559

> <CNNaffinity>
6.9535765648

> <CNN_VS>
1.9180624485

> <CNNaffinity_variance>
0.0387932882

$$$$
[H]c1nc(N([H])c2c([H])c([H])c(N3C([H])([H])C([H])([H])N(C(=O)C([H])([H])[H])C([H])([H])C3([H])[H])c([H])c2OC([H])([H])[H])nc(-c2c([H])n([H])c3c([H])nc([H])c([H])c23)c1[H]


 35 39  0  0  0  0  0  0  0  0999 V2000
  -89.0624   31.8317   -0.7079 N   0  0  0  0  0  0  0  0  0  0  0  0
  -89.7781   32.5573   -0.3770 H   0  0  0  0  0  0  0  0  0  0  0  0
  -89.9980   30.3342   -2.3804 C   0  0  0  0  0  0  0  0  0  0  0  0
  -90.5375   29.1543   -2.7993 C   0  0  0  0  0  0  0  0  0  0  0  0
  -90.7358   28.1186   -1.9163 C   0  0  0  0  0  0  0  0  0  0  0  0
  -90.3732   28.3122   -0.6032 C   0  0  0  0  0  0  0  0  0  0  0  0
  -89.8229   29.5276   -0.1964 C   0  0  0  0  0  0  0  0  0  0  0  0
  -89.6095   30.5841   -1.0467 C   0  0  0  0  0  0  0  0  0  0  0  0
  -91.2992   26.8767   -2.3172 N   0  0  0  0  0  0  0  0  0  0  0  0
  -91.9870   26.6796   -3.5738 C   0  0  0  0  0  0  0  0  0  0  0  0
  -93.1371   25.6732   -3.4136 C   0  0  0  0  0  0  0  0  0  0  0  0
  -92.5170   24.4151   -3.0823 N   0  0  0  0  0  0  0  0  0  0  0  0
  -91.3274   24.4188   -2.2941 C   0  0  0  0  0  0  0  0  0  0  0  0
  -91.2097   25.7071   -1.4682 C   0  0  0  0  0  0  0  0  0  0  0  0
  -93.0725   23.1963   -3.5271 C   0  0  0  0  0  0  0  0  0  0  0  0
  -94.3089   23.1699   -4.3473 C   0  0  0  0  0  0  0  0  0  0  0  0
  -92.5293   22.1030   -3.2367 O   0  0  0  0  0  0  0  0  0  0  0  0
  -88.9059   31.1828   -4.3722 C   0  0  0  0  0  0  0  0  0  0  0  0
  -89.8160   31.3513   -3.3052 O   0  0  0  0  0  0  0  0  0  0  0  0
  -87.6997   32.2409   -0.7501 C   0  0  0  0  0  0  0  0  0  0  0  0
  -87.2498   33.3357   -1.3697 N   0  0  0  0  0  0  0  0  0  0  0  0
  -85.9740   33.7040   -1.4051 C   0  0  0  0  0  0  0  0  0  0  0  0
  -85.0448   32.9008   -0.7569 C   0  0  0  0  0  0  0  0  0  0  0  0
  -85.4677   31.7731   -0.1144 C   0  0  0  0  0  0  0  0  0  0  0  0
  -86.7754   31.4743   -0.1265 N   0  0  0  0  0  0  0  0  0  0  0  0
  -84.5636   30.8860    0.6375 C   0  0  0  0  0  0  0  0  0  0  0  0
  -83.2700   31.2810    0.9977 C   0  0  0  0  0  0  0  0  0  0  0  0
  -82.6839   30.2899    1.7143 N   0  0  0  0  0  0  0  0  0  0  0  0
  -83.5434   29.2690    1.8353 C   0  0  0  0  0  0  0  0  0  0  0  0
  -83.4243   28.0649    2.4754 C   0  0  0  0  0  0  0  0  0  0  0  0
  -84.4764   27.1962    2.4665 N   0  0  0  0  0  0  0  0  0  0  0  0
  -85.6154   27.5249    1.8348 C   0  0  0  0  0  0  0  0  0  0  0  0
  -85.7357   28.7404    1.1880 C   0  0  0  0  0  0  0  0  0  0  0  0
  -84.7102   29.6443    1.1658 C   0  0  0  0  0  0  0  0  0  0  0  0
  -81.7130   30.2943    2.1217 H   0  0  0  0  0  0  0  0  0  0  0  0
 18 19  1  0  0  0
 19  3  1  0  0  0
  3  4  2  0  0  0
  4  5  1  0  0  0
  5  6  2  0  0  0
  6  7  1  0  0  0
  7  8  2  0  0  0
  8  1  1  0  0  0
  1 20  1  0  0  0
 20 21  2  0  0  0
 21 22  1  0  0  0
 22 23  2  0  0  0
 23 24  1  0  0  0
 24 25  2  0  0  0
 24 26  1  0  0  0
 26 27  2  0  0  0
 27 28  1  0  0  0
 28 29  1  0  0  0
 29 30  2  0  0  0
 30 31  1  0  0  0
 31 32  2  0  0  0
 32 33  1  0  0  0
 33 34  2  0  0  0
  5  9  1  0  0  0
  9 10  1  0  0  0
 10 11  1  0  0  0
 11 12  1  0  0  0
 12 13  1  0  0  0
 13 14  1  0  0  0
 12 15  1  0  0  0
 15 16  1  0  0  0
 15 17  2  0  0  0
  8  3  1  0  0  0
 25 20  1  0  0  0
 34 26  1  0  0  0
 14  9  1  0  0  0
 34 29  1  0  0  0
  1  2  1  0  0  0
 28 35  1  0  0  0
M  END
> <minimizedAffinity>
-9.08544

> <CNNscore>
0.1934878528

> <CNNaffinity>
6.5543813705

> <CNN_VS>
1.2681931257

> <CNNaffinity_variance>
0.2559543252

$$$$
[H]c1nc(N([H])c2c([H])c([H])c(N3C([H])([H])C([H])([H])N(C(=O)C([H])([H])[H])C([H])([H])C3([H])[H])c([H])c2OC([H])([H])[H])nc(-c2c([H])n([H])c3c([H])nc([H])c([H])c23)c1[H]


 35 39  0  0  0  0  0  0  0  0999 V2000
  -85.4497   30.3307    1.1524 N   0  0  0  0  0  0  0  0  0  0  0  0
  -84.7729   30.2633    1.9804 H   0  0  0  0  0  0  0  0  0  0  0  0
  -86.2398   28.1644    1.9259 C   0  0  0  0  0  0  0  0  0  0  0  0
  -87.0824   27.0928    1.9066 C   0  0  0  0  0  0  0  0  0  0  0  0
  -88.1281   27.0360    1.0150 C   0  0  0  0  0  0  0  0  0  0  0  0
  -88.2944   28.0914    0.1481 C   0  0  0  0  0  0  0  0  0  0  0  0
  -87.4205   29.1779    0.1852 C   0  0  0  0  0  0  0  0  0  0  0  0
  -86.3662   29.2714    1.0595 C   0  0  0  0  0  0  0  0  0  0  0  0
  -89.0232   25.9330    0.9644 N   0  0  0  0  0  0  0  0  0  0  0  0
  -89.0606   24.9833   -0.1255 C   0  0  0  0  0  0  0  0  0  0  0  0
  -90.4968   24.4982   -0.3766 C   0  0  0  0  0  0  0  0  0  0  0  0
  -90.8829   23.7775    0.8104 N   0  0  0  0  0  0  0  0  0  0  0  0
  -90.3836   24.2126    2.0745 C   0  0  0  0  0  0  0  0  0  0  0  0
  -89.9706   25.6902    2.0323 C   0  0  0  0  0  0  0  0  0  0  0  0
  -91.7404   22.6595    0.7302 C   0  0  0  0  0  0  0  0  0  0  0  0
  -92.2711   22.1906   -0.5739 C   0  0  0  0  0  0  0  0  0  0  0  0
  -92.0740   22.0347    1.7661 O   0  0  0  0  0  0  0  0  0  0  0  0
  -83.9450   27.6277    2.4967 C   0  0  0  0  0  0  0  0  0  0  0  0
  -85.1987   28.1795    2.8418 O   0  0  0  0  0  0  0  0  0  0  0  0
  -85.3139   31.4605    0.2972 C   0  0  0  0  0  0  0  0  0  0  0  0
  -84.1754   32.1276    0.0879 N   0  0  0  0  0  0  0  0  0  0  0  0
  -84.0633   33.1837   -0.7099 C   0  0  0  0  0  0  0  0  0  0  0  0
  -85.2018   33.6258   -1.3710 C   0  0  0  0  0  0  0  0  0  0  0  0
  -86.3835   32.9697   -1.1803 C   0  0  0  0  0  0  0  0  0  0  0  0
  -86.4093   31.9105   -0.3574 N   0  0  0  0  0  0  0  0  0  0  0  0
  -87.6309   33.3367   -1.8724 C   0  0  0  0  0  0  0  0  0  0  0  0
  -88.8296   32.6485   -1.6519 C   0  0  0  0  0  0  0  0  0  0  0  0
  -89.8158   33.2239   -2.3836 N   0  0  0  0  0  0  0  0  0  0  0  0
  -89.3077   34.2574   -3.0688 C   0  0  0  0  0  0  0  0  0  0  0  0
  -89.9004   35.1483   -3.9223 C   0  0  0  0  0  0  0  0  0  0  0  0
  -89.1484   36.1403   -4.4810 N   0  0  0  0  0  0  0  0  0  0  0  0
  -87.8401   36.2370   -4.1923 C   0  0  0  0  0  0  0  0  0  0  0  0
  -87.2413   35.3371   -3.3309 C   0  0  0  0  0  0  0  0  0  0  0  0
  -87.9502   34.3243   -2.7471 C   0  0  0  0  0  0  0  0  0  0  0  0
  -90.8255   32.9281   -2.4262 H   0  0  0  0  0  0  0  0  0  0  0  0
 18 19  1  0  0  0
 19  3  1  0  0  0
  3  4  2  0  0  0
  4  5  1  0  0  0
  5  6  2  0  0  0
  6  7  1  0  0  0
  7  8  2  0  0  0
  8  1  1  0  0  0
  1 20  1  0  0  0
 20 21  2  0  0  0
 21 22  1  0  0  0
 22 23  2  0  0  0
 23 24  1  0  0  0
 24 25  2  0  0  0
 24 26  1  0  0  0
 26 27  2  0  0  0
 27 28  1  0  0  0
 28 29  1  0  0  0
 29 30  2  0  0  0
 30 31  1  0  0  0
 31 32  2  0  0  0
 32 33  1  0  0  0
 33 34  2  0  0  0
  5  9  1  0  0  0
  9 10  1  0  0  0
 10 11  1  0  0  0
 11 12  1  0  0  0
 12 13  1  0  0  0
 13 14  1  0  0  0
 12 15  1  0  0  0
 15 16  1  0  0  0
 15 17  2  0  0  0
  8  3  1  0  0  0
 25 20  1  0  0  0
 34 26  1  0  0  0
 14  9  1  0  0  0
 34 29  1  0  0  0
  1  2  1  0  0  0
 28 35  1  0  0  0
M  END
> <minimizedAffinity>
-8.81667

> <CNNscore>
0.1207078397

> <CNNaffinity>
6.7029886246

> <CNN_VS>
0.8091032505

> <CNNaffinity_variance>
0.1655949056

$$$$
[H]c1nc(N([H])c2c([H])c([H])c(N3C([H])([H])C([H])([H])N(C(=O)C([H])([H])[H])C([H])([H])C3([H])[H])c([H])c2OC([H])([H])[H])nc(-c2c([H])n([H])c3c([H])nc([H])c([H])c23)c1[H]


 35 39  0  0  0  0  0  0  0  0999 V2000
  -89.4893   28.9666    0.1006 N   0  0  0  0  0  0  0  0  0  0  0  0
  -90.4881   28.6711    0.3519 H   0  0  0  0  0  0  0  0  0  0  0  0
  -89.3572   29.6978   -2.2153 C   0  0  0  0  0  0  0  0  0  0  0  0
  -89.2762   30.6411   -3.1962 C   0  0  0  0  0  0  0  0  0  0  0  0
  -89.2375   31.9799   -2.8834 C   0  0  0  0  0  0  0  0  0  0  0  0
  -89.2831   32.3332   -1.5544 C   0  0  0  0  0  0  0  0  0  0  0  0
  -89.3659   31.3514   -0.5670 C   0  0  0  0  0  0  0  0  0  0  0  0
  -89.4067   30.0063   -0.8389 C   0  0  0  0  0  0  0  0  0  0  0  0
  -89.1492   32.9899   -3.8797 N   0  0  0  0  0  0  0  0  0  0  0  0
  -87.9198   33.3411   -4.5551 C   0  0  0  0  0  0  0  0  0  0  0  0
  -87.8799   34.8452   -4.8672 C   0  0  0  0  0  0  0  0  0  0  0  0
  -88.9473   35.0816   -5.8063 N   0  0  0  0  0  0  0  0  0  0  0  0
  -90.1411   34.3065   -5.7033 C   0  0  0  0  0  0  0  0  0  0  0  0
  -90.3182   33.7409   -4.2875 C   0  0  0  0  0  0  0  0  0  0  0  0
  -88.8198   36.0622   -6.8134 C   0  0  0  0  0  0  0  0  0  0  0  0
  -87.5874   36.8793   -6.9380 C   0  0  0  0  0  0  0  0  0  0  0  0
  -89.7515   36.2647   -7.6292 O   0  0  0  0  0  0  0  0  0  0  0  0
  -90.6340   27.7172   -2.7871 C   0  0  0  0  0  0  0  0  0  0  0  0
  -89.3937   28.3595   -2.5766 O   0  0  0  0  0  0  0  0  0  0  0  0
  -88.4281   28.2717    0.7466 C   0  0  0  0  0  0  0  0  0  0  0  0
  -88.5218   27.0425    1.2615 N   0  0  0  0  0  0  0  0  0  0  0  0
  -87.5243   26.4069    1.8659 C   0  0  0  0  0  0  0  0  0  0  0  0
  -86.3031   27.0599    1.9713 C   0  0  0  0  0  0  0  0  0  0  0  0
  -86.1706   28.3178    1.4581 C   0  0  0  0  0  0  0  0  0  0  0  0
  -87.2288   28.8875    0.8621 N   0  0  0  0  0  0  0  0  0  0  0  0
  -84.9040   29.0694    1.4818 C   0  0  0  0  0  0  0  0  0  0  0  0
  -83.7511   28.5575    2.0884 C   0  0  0  0  0  0  0  0  0  0  0  0
  -82.7319   29.4368    1.9234 N   0  0  0  0  0  0  0  0  0  0  0  0
  -83.1748   30.4973    1.2341 C   0  0  0  0  0  0  0  0  0  0  0  0
  -82.5286   31.6264    0.8086 C   0  0  0  0  0  0  0  0  0  0  0  0
  -83.2171   32.5604    0.0909 N   0  0  0  0  0  0  0  0  0  0  0  0
  -84.5159   32.3682   -0.1929 C   0  0  0  0  0  0  0  0  0  0  0  0
  -85.1688   31.2283    0.2371 C   0  0  0  0  0  0  0  0  0  0  0  0
  -84.5245   30.2640    0.9611 C   0  0  0  0  0  0  0  0  0  0  0  0
  -81.7433   29.3302    2.2696 H   0  0  0  0  0  0  0  0  0  0  0  0
 18 19  1  0  0  0
 19  3  1  0  0  0
  3  4  2  0  0  0
  4  5  1  0  0  0
  5  6  2  0  0  0
  6  7  1  0  0  0
  7  8  2  0  0  0
  8  1  1  0  0  0
  1 20  1  0  0  0
 20 21  2  0  0  0
 21 22  1  0  0  0
 22 23  2  0  0  0
 23 24  1  0  0  0
 24 25  2  0  0  0
 24 26  1  0  0  0
 26 27  2  0  0  0
 27 28  1  0  0  0
 28 29  1  0  0  0
 29 30  2  0  0  0
 30 31  1  0  0  0
 31 32  2  0  0  0
 32 33  1  0  0  0
 33 34  2  0  0  0
  5  9  1  0  0  0
  9 10  1  0  0  0
 10 11  1  0  0  0
 11 12  1  0  0  0
 12 13  1  0  0  0
 13 14  1  0  0  0
 12 15  1  0  0  0
 15 16  1  0  0  0
 15 17  2  0  0  0
  8  3  1  0  0  0
 25 20  1  0  0  0
 34 26  1  0  0  0
 14  9  1  0  0  0
 34 29  1  0  0  0
  1  2  1  0  0  0
 28 35  1  0  0  0
M  END
> <minimizedAffinity>
-9.29553

> <CNNscore>
0.1113539264

> <CNNaffinity>
6.7817239761

> <CNN_VS>
0.7551715970

> <CNNaffinity_variance>
0.0914006382

$$$$
[H]OC([H])([H])[C@@]([H])(N([H])c1nn2c(-c3c([H])c([H])c([H])c(SC([H])([H])[H])c3[H])c([H])nc2c([H])c1[H])C([H])([H])C([H])([H])[H]


 25 27  0  0  0  0  0  0  0  0999 V2000
  -87.9978   27.8804    0.7091 C   0  0  0  0  0  0  0  0  0  0  0  0
  -87.9248   26.6920    1.3937 C   0  0  0  0  0  0  0  0  0  0  0  0
  -86.7683   26.3543    2.0410 C   0  0  0  0  0  0  0  0  0  0  0  0
  -85.6975   27.2179    1.9911 C   0  0  0  0  0  0  0  0  0  0  0  0
  -84.4545   27.2041    2.4939 N   0  0  0  0  0  0  0  0  0  0  0  0
  -83.7992   28.3156    2.1414 C   0  0  0  0  0  0  0  0  0  0  0  0
  -84.6704   29.0930    1.3652 C   0  0  0  0  0  0  0  0  0  0  0  0
  -85.8140   28.3927    1.2960 N   0  0  0  0  0  0  0  0  0  0  0  0
  -86.9373   28.6861    0.6867 N   0  0  0  0  0  0  0  0  0  0  0  0
  -84.2983   30.3861    0.7996 C   0  0  0  0  0  0  0  0  0  0  0  0
  -82.9621   30.7726    0.7184 C   0  0  0  0  0  0  0  0  0  0  0  0
  -82.5557   31.9797    0.1947 C   0  0  0  0  0  0  0  0  0  0  0  0
  -83.4897   32.8715   -0.2809 C   0  0  0  0  0  0  0  0  0  0  0  0
  -84.8200   32.5244   -0.2174 C   0  0  0  0  0  0  0  0  0  0  0  0
  -85.2097   31.2903    0.3199 C   0  0  0  0  0  0  0  0  0  0  0  0
  -86.0118   33.6868   -0.8355 S   0  0  0  0  0  0  0  0  0  0  0  0
  -86.4308   33.4075   -2.5543 C   0  0  0  0  0  0  0  0  0  0  0  0
  -89.1795   28.2950    0.0284 N   0  0  0  0  0  0  0  0  0  0  0  0
  -89.0547   28.8027   -0.8981 H   0  0  0  0  0  0  0  0  0  0  0  0
  -90.5131   28.0989    0.4631 C   0  0  0  0  0  0  0  0  0  0  0  0
  -91.4852   28.1000   -0.7164 C   0  0  0  0  0  0  0  0  0  0  0  0
  -92.4427   29.0833   -0.5789 O   0  0  0  0  0  0  0  0  0  0  0  0
  -92.8223   29.1222    0.3346 H   0  0  0  0  0  0  0  0  0  0  0  0
  -91.0368   28.4875    2.8802 C   0  0  0  0  0  0  0  0  0  0  0  0
  -91.0443   29.0503    1.4742 C   0  0  0  0  0  0  0  0  0  0  0  0
 24 25  1  0  0  0
 25 20  1  0  0  0
 20 21  1  0  0  0
 21 22  1  0  0  0
 20 18  1  0  0  0
 18  1  1  0  0  0
  1  2  1  0  0  0
  2  3  2  0  0  0
  3  4  1  0  0  0
  4  5  2  0  0  0
  5  6  1  0  0  0
  6  7  2  0  0  0
  7 10  1  0  0  0
 10 11  2  0  0  0
 11 12  1  0  0  0
 12 13  2  0  0  0
 13 14  1  0  0  0
 14 16  1  0  0  0
 16 17  1  0  0  0
 14 15  2  0  0  0
  7  8  1  0  0  0
  8  9  1  0  0  0
  9  1  2  0  0  0
  8  4  1  0  0  0
 15 10  1  0  0  0
 22 23  1  0  0  0
 18 19  1  0  0  0
M  END
> <minimizedAffinity>
-7.91352

> <CNNscore>
0.8850759864

> <CNNaffinity>
6.7536559105

> <CNN_VS>
5.9774985313

> <CNNaffinity_variance>
0.1579236090

$$$$
[H]OC([H])([H])[C@@]([H])(N([H])c1nn2c(-c3c([H])c([H])c([H])c(SC([H])([H])[H])c3[H])c([H])nc2c([H])c1[H])C([H])([H])C([H])([H])[H]


 25 27  0  0  0  0  0  0  0  0999 V2000
  -87.4095   32.0498   -1.4560 C   0  0  0  0  0  0  0  0  0  0  0  0
  -87.1318   33.2939   -1.9671 C   0  0  0  0  0  0  0  0  0  0  0  0
  -85.9221   33.8770   -1.7082 C   0  0  0  0  0  0  0  0  0  0  0  0
  -85.0051   33.2000   -0.9363 C   0  0  0  0  0  0  0  0  0  0  0  0
  -83.7654   33.4654   -0.4998 N   0  0  0  0  0  0  0  0  0  0  0  0
  -83.3051   32.4479    0.2365 C   0  0  0  0  0  0  0  0  0  0  0  0
  -84.3067   31.4677    0.2779 C   0  0  0  0  0  0  0  0  0  0  0  0
  -85.3242   31.9610   -0.4462 N   0  0  0  0  0  0  0  0  0  0  0  0
  -86.4931   31.4305   -0.7136 N   0  0  0  0  0  0  0  0  0  0  0  0
  -84.1597   30.2052    0.9954 C   0  0  0  0  0  0  0  0  0  0  0  0
  -82.9558   29.8692    1.6112 C   0  0  0  0  0  0  0  0  0  0  0  0
  -82.7626   28.6927    2.3004 C   0  0  0  0  0  0  0  0  0  0  0  0
  -83.7888   27.7816    2.4052 C   0  0  0  0  0  0  0  0  0  0  0  0
  -84.9933   28.0789    1.8096 C   0  0  0  0  0  0  0  0  0  0  0  0
  -85.1664   29.2827    1.1135 C   0  0  0  0  0  0  0  0  0  0  0  0
  -86.3066   26.8923    1.9547 S   0  0  0  0  0  0  0  0  0  0  0  0
  -87.2245   26.6795    0.4316 C   0  0  0  0  0  0  0  0  0  0  0  0
  -88.6452   31.3839   -1.7036 N   0  0  0  0  0  0  0  0  0  0  0  0
  -89.4629   31.6224   -1.0662 H   0  0  0  0  0  0  0  0  0  0  0  0
  -88.8974   30.4294   -2.7192 C   0  0  0  0  0  0  0  0  0  0  0  0
  -88.8067   29.0045   -2.1739 C   0  0  0  0  0  0  0  0  0  0  0  0
  -88.3661   28.1231   -3.1390 O   0  0  0  0  0  0  0  0  0  0  0  0
  -88.8127   28.2576   -4.0121 H   0  0  0  0  0  0  0  0  0  0  0  0
  -88.5524   31.4811   -4.9646 C   0  0  0  0  0  0  0  0  0  0  0  0
  -88.0459   30.4919   -3.9359 C   0  0  0  0  0  0  0  0  0  0  0  0
 24 25  1  0  0  0
 25 20  1  0  0  0
 20 21  1  0  0  0
 21 22  1  0  0  0
 20 18  1  0  0  0
 18  1  1  0  0  0
  1  2  1  0  0  0
  2  3  2  0  0  0
  3  4  1  0  0  0
  4  5  2  0  0  0
  5  6  1  0  0  0
  6  7  2  0  0  0
  7 10  1  0  0  0
 10 11  2  0  0  0
 11 12  1  0  0  0
 12 13  2  0  0  0
 13 14  1  0  0  0
 14 16  1  0  0  0
 16 17  1  0  0  0
 14 15  2  0  0  0
  7  8  1  0  0  0
  8  9  1  0  0  0
  9  1  2  0  0  0
  8  4  1  0  0  0
 15 10  1  0  0  0
 22 23  1  0  0  0
 18 19  1  0  0  0
M  END
> <minimizedAffinity>
-8.36814

> <CNNscore>
0.8334685564

> <CNNaffinity>
6.5448732376

> <CNN_VS>
5.4549460411

> <CNNaffinity_variance>
0.1378220022

$$$$
[H]OC([H])([H])[C@@]([H])(N([H])c1nn2c(-c3c([H])c([H])c([H])c(SC([H])([H])[H])c3[H])c([H])nc2c([H])c1[H])C([H])([H])C([H])([H])[H]


 25 27  0  0  0  0  0  0  0  0999 V2000
  -87.6436   31.9908   -1.4106 C   0  0  0  0  0  0  0  0  0  0  0  0
  -87.4017   33.2211   -1.9709 C   0  0  0  0  0  0  0  0  0  0  0  0
  -86.1852   33.8194   -1.7898 C   0  0  0  0  0  0  0  0  0  0  0  0
  -85.2255   33.1712   -1.0456 C   0  0  0  0  0  0  0  0  0  0  0  0
  -83.9677   33.4574   -0.6797 N   0  0  0  0  0  0  0  0  0  0  0  0
  -83.4632   32.4649    0.0618 C   0  0  0  0  0  0  0  0  0  0  0  0
  -84.4536   31.4799    0.1816 C   0  0  0  0  0  0  0  0  0  0  0  0
  -85.5099   31.9452   -0.5044 N   0  0  0  0  0  0  0  0  0  0  0  0
  -86.6864   31.3995   -0.6975 N   0  0  0  0  0  0  0  0  0  0  0  0
  -84.2610   30.2399    0.9272 C   0  0  0  0  0  0  0  0  0  0  0  0
  -83.0483   29.9653    1.5560 C   0  0  0  0  0  0  0  0  0  0  0  0
  -82.8128   28.8125    2.2715 C   0  0  0  0  0  0  0  0  0  0  0  0
  -83.8027   27.8638    2.3911 C   0  0  0  0  0  0  0  0  0  0  0  0
  -85.0146   28.1002    1.7832 C   0  0  0  0  0  0  0  0  0  0  0  0
  -85.2311   29.2809    1.0603 C   0  0  0  0  0  0  0  0  0  0  0  0
  -86.2807   26.8659    1.9476 S   0  0  0  0  0  0  0  0  0  0  0  0
  -87.9224   27.5670    2.0922 C   0  0  0  0  0  0  0  0  0  0  0  0
  -88.8848   31.3099   -1.5766 N   0  0  0  0  0  0  0  0  0  0  0  0
  -89.6128   31.7701   -2.2010 H   0  0  0  0  0  0  0  0  0  0  0  0
  -89.2508   30.0737   -0.9902 C   0  0  0  0  0  0  0  0  0  0  0  0
  -89.8781   29.1364   -2.0217 C   0  0  0  0  0  0  0  0  0  0  0  0
  -89.1855   29.1641   -3.2142 O   0  0  0  0  0  0  0  0  0  0  0  0
  -88.9564   30.0832   -3.5019 H   0  0  0  0  0  0  0  0  0  0  0  0
  -91.0351   28.8865    0.3037 C   0  0  0  0  0  0  0  0  0  0  0  0
  -90.1682   30.1220    0.1783 C   0  0  0  0  0  0  0  0  0  0  0  0
 24 25  1  0  0  0
 25 20  1  0  0  0
 20 21  1  0  0  0
 21 22  1  0  0  0
 20 18  1  0  0  0
 18  1  1  0  0  0
  1  2  1  0  0  0
  2  3  2  0  0  0
  3  4  1  0  0  0
  4  5  2  0  0  0
  5  6  1  0  0  0
  6  7  2  0  0  0
  7 10  1  0  0  0
 10 11  2  0  0  0
 11 12  1  0  0  0
 12 13  2  0  0  0
 13 14  1  0  0  0
 14 16  1  0  0  0
 16 17  1  0  0  0
 14 15  2  0  0  0
  7  8  1  0  0  0
  8  9  1  0  0  0
  9  1  2  0  0  0
  8  4  1  0  0  0
 15 10  1  0  0  0
 22 23  1  0  0  0
 18 19  1  0  0  0
M  END
> <minimizedAffinity>
-7.89565

> <CNNscore>
0.8279927969

> <CNNaffinity>
6.5868425369

> <CNN_VS>
5.4538583755

> <CNNaffinity_variance>
0.1429196447

$$$$
[H]OC([H])([H])[C@@]([H])(N([H])c1nn2c(-c3c([H])c([H])c([H])c(SC([H])([H])[H])c3[H])c([H])nc2c([H])c1[H])C([H])([H])C([H])([H])[H]


 25 27  0  0  0  0  0  0  0  0999 V2000
  -85.0549   29.0868    1.5777 C   0  0  0  0  0  0  0  0  0  0  0  0
  -83.7431   29.0277    1.9799 C   0  0  0  0  0  0  0  0  0  0  0  0
  -82.8777   30.0212    1.6131 C   0  0  0  0  0  0  0  0  0  0  0  0
  -83.3437   31.0636    0.8443 C   0  0  0  0  0  0  0  0  0  0  0  0
  -82.7899   32.1677    0.3224 N   0  0  0  0  0  0  0  0  0  0  0  0
  -83.7033   32.8662   -0.3609 C   0  0  0  0  0  0  0  0  0  0  0  0
  -84.9186   32.1723   -0.2753 C   0  0  0  0  0  0  0  0  0  0  0  0
  -84.6601   31.0822    0.4649 N   0  0  0  0  0  0  0  0  0  0  0  0
  -85.4632   30.1138    0.8341 N   0  0  0  0  0  0  0  0  0  0  0  0
  -86.1504   32.6379   -0.9049 C   0  0  0  0  0  0  0  0  0  0  0  0
  -87.3928   32.1867   -0.4642 C   0  0  0  0  0  0  0  0  0  0  0  0
  -88.5848   32.5929   -1.0215 C   0  0  0  0  0  0  0  0  0  0  0  0
  -88.5846   33.4878   -2.0670 C   0  0  0  0  0  0  0  0  0  0  0  0
  -87.3759   33.9558   -2.5297 C   0  0  0  0  0  0  0  0  0  0  0  0
  -86.1756   33.5282   -1.9466 C   0  0  0  0  0  0  0  0  0  0  0  0
  -87.3939   35.1100   -3.8792 S   0  0  0  0  0  0  0  0  0  0  0  0
  -88.0058   36.7254   -3.4061 C   0  0  0  0  0  0  0  0  0  0  0  0
  -86.0077   28.0908    1.9407 N   0  0  0  0  0  0  0  0  0  0  0  0
  -85.7521   27.4427    2.7447 H   0  0  0  0  0  0  0  0  0  0  0  0
  -87.2697   27.8739    1.3354 C   0  0  0  0  0  0  0  0  0  0  0  0
  -88.2585   27.2564    2.3239 C   0  0  0  0  0  0  0  0  0  0  0  0
  -88.0142   25.9112    2.5065 O   0  0  0  0  0  0  0  0  0  0  0  0
  -87.8505   25.4334    1.6551 H   0  0  0  0  0  0  0  0  0  0  0  0
  -87.4147   27.8615   -1.1638 C   0  0  0  0  0  0  0  0  0  0  0  0
  -87.2979   27.0417    0.1042 C   0  0  0  0  0  0  0  0  0  0  0  0
 24 25  1  0  0  0
 25 20  1  0  0  0
 20 21  1  0  0  0
 21 22  1  0  0  0
 20 18  1  0  0  0
 18  1  1  0  0  0
  1  2  1  0  0  0
  2  3  2  0  0  0
  3  4  1  0  0  0
  4  5  2  0  0  0
  5  6  1  0  0  0
  6  7  2  0  0  0
  7 10  1  0  0  0
 10 11  2  0  0  0
 11 12  1  0  0  0
 12 13  2  0  0  0
 13 14  1  0  0  0
 14 16  1  0  0  0
 16 17  1  0  0  0
 14 15  2  0  0  0
  7  8  1  0  0  0
  8  9  1  0  0  0
  9  1  2  0  0  0
  8  4  1  0  0  0
 15 10  1  0  0  0
 22 23  1  0  0  0
 18 19  1  0  0  0
M  END
> <minimizedAffinity>
-7.98036

> <CNNscore>
0.7820472717

> <CNNaffinity>
6.6645646095

> <CNN_VS>
5.2120046616

> <CNNaffinity_variance>
0.2119204253

$$$$
[H]OC([H])([H])[C@@]([H])(N([H])c1nn2c(-c3c([H])c([H])c([H])c(SC([H])([H])[H])c3[H])c([H])nc2c([H])c1[H])C([H])([H])C([H])([H])[H]


 25 27  0  0  0  0  0  0  0  0999 V2000
  -87.6962   32.2867   -0.9834 C   0  0  0  0  0  0  0  0  0  0  0  0
  -87.4171   33.4794   -1.6043 C   0  0  0  0  0  0  0  0  0  0  0  0
  -86.1359   33.9580   -1.6052 C   0  0  0  0  0  0  0  0  0  0  0  0
  -85.1496   33.2293   -0.9796 C   0  0  0  0  0  0  0  0  0  0  0  0
  -83.8320   33.3958   -0.7944 N   0  0  0  0  0  0  0  0  0  0  0  0
  -83.3278   32.3692   -0.1009 C   0  0  0  0  0  0  0  0  0  0  0  0
  -84.3818   31.4878    0.1780 C   0  0  0  0  0  0  0  0  0  0  0  0
  -85.4728   32.0447   -0.3720 N   0  0  0  0  0  0  0  0  0  0  0  0
  -86.7112   31.6144   -0.3899 N   0  0  0  0  0  0  0  0  0  0  0  0
  -84.2080   30.2454    0.9242 C   0  0  0  0  0  0  0  0  0  0  0  0
  -83.0059   29.9612    1.5688 C   0  0  0  0  0  0  0  0  0  0  0  0
  -82.7882   28.8057    2.2857 C   0  0  0  0  0  0  0  0  0  0  0  0
  -83.7864   27.8641    2.3906 C   0  0  0  0  0  0  0  0  0  0  0  0
  -84.9883   28.1100    1.7670 C   0  0  0  0  0  0  0  0  0  0  0  0
  -85.1867   29.2932    1.0430 C   0  0  0  0  0  0  0  0  0  0  0  0
  -86.2654   26.8846    1.9126 S   0  0  0  0  0  0  0  0  0  0  0  0
  -87.9004   27.5981    2.0722 C   0  0  0  0  0  0  0  0  0  0  0  0
  -89.0076   31.7285   -0.9621 N   0  0  0  0  0  0  0  0  0  0  0  0
  -89.7207   32.1855   -0.3184 H   0  0  0  0  0  0  0  0  0  0  0  0
  -89.4616   30.6187   -1.7159 C   0  0  0  0  0  0  0  0  0  0  0  0
  -89.5850   29.3703   -0.8429 C   0  0  0  0  0  0  0  0  0  0  0  0
  -90.8782   29.1933   -0.3973 O   0  0  0  0  0  0  0  0  0  0  0  0
  -91.2869   30.0322   -0.0668 H   0  0  0  0  0  0  0  0  0  0  0  0
  -87.8779   28.9642   -2.7269 C   0  0  0  0  0  0  0  0  0  0  0  0
  -88.6680   30.2424   -2.9151 C   0  0  0  0  0  0  0  0  0  0  0  0
 24 25  1  0  0  0
 25 20  1  0  0  0
 20 21  1  0  0  0
 21 22  1  0  0  0
 20 18  1  0  0  0
 18  1  1  0  0  0
  1  2  1  0  0  0
  2  3  2  0  0  0
  3  4  1  0  0  0
  4  5  2  0  0  0
  5  6  1  0  0  0
  6  7  2  0  0  0
  7 10  1  0  0  0
 10 11  2  0  0  0
 11 12  1  0  0  0
 12 13  2  0  0  0
 13 14  1  0  0  0
 14 16  1  0  0  0
 16 17  1  0  0  0
 14 15  2  0  0  0
  7  8  1  0  0  0
  8  9  1  0  0  0
  9  1  2  0  0  0
  8  4  1  0  0  0
 15 10  1  0  0  0
 22 23  1  0  0  0
 18 19  1  0  0  0
M  END
> <minimizedAffinity>
-8.13288

> <CNNscore>
0.7729553580

> <CNNaffinity>
6.3980536461

> <CNN_VS>
4.9454097748

> <CNNaffinity_variance>
0.2144443095

$$$$
[H]OC([H])([H])[C@@]([H])(N([H])c1nn2c(-c3c([H])c([H])c([H])c(SC([H])([H])[H])c3[H])c([H])nc2c([H])c1[H])C([H])([H])C([H])([H])[H]


 25 27  0  0  0  0  0  0  0  0999 V2000
  -88.2229   27.9576    0.6311 C   0  0  0  0  0  0  0  0  0  0  0  0
  -88.2150   26.7435    1.2729 C   0  0  0  0  0  0  0  0  0  0  0  0
  -87.0834   26.3271    1.9186 C   0  0  0  0  0  0  0  0  0  0  0  0
  -85.9717   27.1389    1.9100 C   0  0  0  0  0  0  0  0  0  0  0  0
  -84.7366   27.0469    2.4237 N   0  0  0  0  0  0  0  0  0  0  0  0
  -84.0245   28.1371    2.1177 C   0  0  0  0  0  0  0  0  0  0  0  0
  -84.8485   28.9830    1.3619 C   0  0  0  0  0  0  0  0  0  0  0  0
  -86.0237   28.3420    1.2567 N   0  0  0  0  0  0  0  0  0  0  0  0
  -87.1246   28.7112    0.6477 N   0  0  0  0  0  0  0  0  0  0  0  0
  -84.4081   30.2758    0.8469 C   0  0  0  0  0  0  0  0  0  0  0  0
  -83.0573   30.6171    0.8334 C   0  0  0  0  0  0  0  0  0  0  0  0
  -82.5874   31.8216    0.3595 C   0  0  0  0  0  0  0  0  0  0  0  0
  -83.4688   32.7572   -0.1323 C   0  0  0  0  0  0  0  0  0  0  0  0
  -84.8116   32.4556   -0.1352 C   0  0  0  0  0  0  0  0  0  0  0  0
  -85.2663   31.2231    0.3523 C   0  0  0  0  0  0  0  0  0  0  0  0
  -85.9350   33.6741   -0.7733 S   0  0  0  0  0  0  0  0  0  0  0  0
  -86.2765   33.4605   -2.5184 C   0  0  0  0  0  0  0  0  0  0  0  0
  -89.3756   28.4532   -0.0454 N   0  0  0  0  0  0  0  0  0  0  0  0
  -90.2511   28.6125    0.5375 H   0  0  0  0  0  0  0  0  0  0  0  0
  -89.4751   28.7571   -1.4252 C   0  0  0  0  0  0  0  0  0  0  0  0
  -88.7136   27.7380   -2.2723 C   0  0  0  0  0  0  0  0  0  0  0  0
  -89.5640   27.0364   -3.1012 O   0  0  0  0  0  0  0  0  0  0  0  0
  -90.3850   26.7333   -2.6385 H   0  0  0  0  0  0  0  0  0  0  0  0
  -87.8592   30.0719   -2.8134 C   0  0  0  0  0  0  0  0  0  0  0  0
  -89.0321   30.1089   -1.8561 C   0  0  0  0  0  0  0  0  0  0  0  0
 24 25  1  0  0  0
 25 20  1  0  0  0
 20 21  1  0  0  0
 21 22  1  0  0  0
 20 18  1  0  0  0
 18  1  1  0  0  0
  1  2  1  0  0  0
  2  3  2  0  0  0
  3  4  1  0  0  0
  4  5  2  0  0  0
  5  6  1  0  0  0
  6  7  2  0  0  0
  7 10  1  0  0  0
 10 11  2  0  0  0
 11 12  1  0  0  0
 12 13  2  0  0  0
 13 14  1  0  0  0
 14 16  1  0  0  0
 16 17  1  0  0  0
 14 15  2  0  0  0
  7  8  1  0  0  0
  8  9  1  0  0  0
  9  1  2  0  0  0
  8  4  1  0  0  0
 15 10  1  0  0  0
 22 23  1  0  0  0
 18 19  1  0  0  0
M  END
> <minimizedAffinity>
-7.84192

> <CNNscore>
0.7619256973

> <CNNaffinity>
6.5463838577

> <CNN_VS>
4.9878582954

> <CNNaffinity_variance>
0.2541679144

$$$$
[H]OC([H])([H])[C@@]([H])(N([H])c1nn2c(-c3c([H])c([H])c([H])c(SC([H])([H])[H])c3[H])c([H])nc2c([H])c1[H])C([H])([H])C([H])([H])[H]


 25 27  0  0  0  0  0  0  0  0999 V2000
  -85.2524   32.6995   -0.8232 C   0  0  0  0  0  0  0  0  0  0  0  0
  -84.0089   33.2566   -0.6517 C   0  0  0  0  0  0  0  0  0  0  0  0
  -83.0689   32.5971    0.0913 C   0  0  0  0  0  0  0  0  0  0  0  0
  -83.3925   31.3832    0.6540 C   0  0  0  0  0  0  0  0  0  0  0  0
  -82.7368   30.4954    1.4155 N   0  0  0  0  0  0  0  0  0  0  0  0
  -83.5269   29.4536    1.6978 C   0  0  0  0  0  0  0  0  0  0  0  0
  -84.7657   29.6821    1.0824 C   0  0  0  0  0  0  0  0  0  0  0  0
  -84.6453   30.8646    0.4577 N   0  0  0  0  0  0  0  0  0  0  0  0
  -85.5229   31.5228   -0.2604 N   0  0  0  0  0  0  0  0  0  0  0  0
  -85.8862   28.7511    1.1722 C   0  0  0  0  0  0  0  0  0  0  0  0
  -85.7500   27.5304    1.8301 C   0  0  0  0  0  0  0  0  0  0  0  0
  -86.7732   26.6159    1.9444 C   0  0  0  0  0  0  0  0  0  0  0  0
  -88.0041   26.8898    1.3930 C   0  0  0  0  0  0  0  0  0  0  0  0
  -88.1766   28.0862    0.7352 C   0  0  0  0  0  0  0  0  0  0  0  0
  -87.1205   29.0014    0.6316 C   0  0  0  0  0  0  0  0  0  0  0  0
  -89.7711   28.4236    0.0298 S   0  0  0  0  0  0  0  0  0  0  0  0
  -90.9815   28.9236    1.2514 C   0  0  0  0  0  0  0  0  0  0  0  0
  -86.2684   33.3303   -1.5988 N   0  0  0  0  0  0  0  0  0  0  0  0
  -86.1626   34.3724   -1.7843 H   0  0  0  0  0  0  0  0  0  0  0  0
  -87.4134   32.7064   -2.1518 C   0  0  0  0  0  0  0  0  0  0  0  0
  -87.4266   32.8256   -3.6755 C   0  0  0  0  0  0  0  0  0  0  0  0
  -88.4082   33.6947   -4.1041 O   0  0  0  0  0  0  0  0  0  0  0  0
  -89.2725   33.5527   -3.6428 H   0  0  0  0  0  0  0  0  0  0  0  0
  -89.3539   32.2244   -0.6454 C   0  0  0  0  0  0  0  0  0  0  0  0
  -88.7396   33.1646   -1.6613 C   0  0  0  0  0  0  0  0  0  0  0  0
 24 25  1  0  0  0
 25 20  1  0  0  0
 20 21  1  0  0  0
 21 22  1  0  0  0
 20 18  1  0  0  0
 18  1  1  0  0  0
  1  2  1  0  0  0
  2  3  2  0  0  0
  3  4  1  0  0  0
  4  5  2  0  0  0
  5  6  1  0  0  0
  6  7  2  0  0  0
  7 10  1  0  0  0
 10 11  2  0  0  0
 11 12  1  0  0  0
 12 13  2  0  0  0
 13 14  1  0  0  0
 14 16  1  0  0  0
 16 17  1  0  0  0
 14 15  2  0  0  0
  7  8  1  0  0  0
  8  9  1  0  0  0
  9  1  2  0  0  0
  8  4  1  0  0  0
 15 10  1  0  0  0
 22 23  1  0  0  0
 18 19  1  0  0  0
M  END
> <minimizedAffinity>
-7.48164

> <CNNscore>
0.5443015099

> <CNNaffinity>
6.3693075180

> <CNN_VS>
3.4668238163

> <CNNaffinity_variance>
0.1375802606

$$$$
[H]OC([H])([H])[C@@]([H])(N([H])c1nn2c(-c3c([H])c([H])c([H])c(SC([H])([H])[H])c3[H])c([H])nc2c([H])c1[H])C([H])([H])C([H])([H])[H]


 25 27  0  0  0  0  0  0  0  0999 V2000
  -88.1790   31.7339   -2.1837 C   0  0  0  0  0  0  0  0  0  0  0  0
  -87.9509   33.0217   -2.6026 C   0  0  0  0  0  0  0  0  0  0  0  0
  -86.8861   33.7178   -2.1004 C   0  0  0  0  0  0  0  0  0  0  0  0
  -86.0627   33.1083   -1.1808 C   0  0  0  0  0  0  0  0  0  0  0  0
  -84.9666   33.4841   -0.5060 N   0  0  0  0  0  0  0  0  0  0  0  0
  -84.5435   32.4897    0.2822 C   0  0  0  0  0  0  0  0  0  0  0  0
  -85.4178   31.4079    0.1058 C   0  0  0  0  0  0  0  0  0  0  0  0
  -86.3278   31.8221   -0.7905 N   0  0  0  0  0  0  0  0  0  0  0  0
  -87.3570   31.1830   -1.2919 N   0  0  0  0  0  0  0  0  0  0  0  0
  -85.2690   30.1376    0.8091 C   0  0  0  0  0  0  0  0  0  0  0  0
  -84.2351   29.9435    1.7228 C   0  0  0  0  0  0  0  0  0  0  0  0
  -84.0485   28.7667    2.4132 C   0  0  0  0  0  0  0  0  0  0  0  0
  -84.9077   27.7101    2.2146 C   0  0  0  0  0  0  0  0  0  0  0  0
  -85.9415   27.8646    1.3193 C   0  0  0  0  0  0  0  0  0  0  0  0
  -86.1114   29.0717    0.6282 C   0  0  0  0  0  0  0  0  0  0  0  0
  -87.0406   26.4913    1.0750 S   0  0  0  0  0  0  0  0  0  0  0  0
  -88.4601   26.5326    2.1665 C   0  0  0  0  0  0  0  0  0  0  0  0
  -89.2620   30.9523   -2.6817 N   0  0  0  0  0  0  0  0  0  0  0  0
  -89.2877   30.7675   -3.7291 H   0  0  0  0  0  0  0  0  0  0  0  0
  -90.3158   30.3925   -1.9186 C   0  0  0  0  0  0  0  0  0  0  0  0
  -90.2128   28.8684   -1.8680 C   0  0  0  0  0  0  0  0  0  0  0  0
  -88.9381   28.4606   -1.5348 O   0  0  0  0  0  0  0  0  0  0  0  0
  -88.2370   28.9563   -2.0275 H   0  0  0  0  0  0  0  0  0  0  0  0
  -92.4433   29.5541   -2.9375 C   0  0  0  0  0  0  0  0  0  0  0  0
  -91.7041   30.7281   -2.3300 C   0  0  0  0  0  0  0  0  0  0  0  0
 24 25  1  0  0  0
 25 20  1  0  0  0
 20 21  1  0  0  0
 21 22  1  0  0  0
 20 18  1  0  0  0
 18  1  1  0  0  0
  1  2  1  0  0  0
  2  3  2  0  0  0
  3  4  1  0  0  0
  4  5  2  0  0  0
  5  6  1  0  0  0
  6  7  2  0  0  0
  7 10  1  0  0  0
 10 11  2  0  0  0
 11 12  1  0  0  0
 12 13  2  0  0  0
 13 14  1  0  0  0
 14 16  1  0  0  0
 16 17  1  0  0  0
 14 15  2  0  0  0
  7  8  1  0  0  0
  8  9  1  0  0  0
  9  1  2  0  0  0
  8  4  1  0  0  0
 15 10  1  0  0  0
 22 23  1  0  0  0
 18 19  1  0  0  0
M  END
> <minimizedAffinity>
-6.52166

> <CNNscore>
0.4687497020

> <CNNaffinity>
6.1709470749

> <CNN_VS>
2.8926296234

> <CNNaffinity_variance>
0.3737352490

$$$$
[H]OC([H])([H])[C@@]([H])(N([H])c1nn2c(-c3c([H])c([H])c([H])c(SC([H])([H])[H])c3[H])c([H])nc2c([H])c1[H])C([H])([H])C([H])([H])[H]


 25 27  0  0  0  0  0  0  0  0999 V2000
  -85.2442   29.3660    1.7162 C   0  0  0  0  0  0  0  0  0  0  0  0
  -83.9138   29.4556    2.0448 C   0  0  0  0  0  0  0  0  0  0  0  0
  -83.1351   30.4148    1.4581 C   0  0  0  0  0  0  0  0  0  0  0  0
  -83.7058   31.2733    0.5458 C   0  0  0  0  0  0  0  0  0  0  0  0
  -83.2525   32.2952   -0.1945 N   0  0  0  0  0  0  0  0  0  0  0  0
  -84.2420   32.8058   -0.9358 C   0  0  0  0  0  0  0  0  0  0  0  0
  -85.4027   32.0702   -0.6577 C   0  0  0  0  0  0  0  0  0  0  0  0
  -85.0370   31.1478    0.2470 N   0  0  0  0  0  0  0  0  0  0  0  0
  -85.7551   30.2172    0.8280 N   0  0  0  0  0  0  0  0  0  0  0  0
  -86.6914   32.3434   -1.2862 C   0  0  0  0  0  0  0  0  0  0  0  0
  -87.6512   33.1198   -0.6401 C   0  0  0  0  0  0  0  0  0  0  0  0
  -88.8818   33.4083   -1.1866 C   0  0  0  0  0  0  0  0  0  0  0  0
  -89.2122   32.9215   -2.4308 C   0  0  0  0  0  0  0  0  0  0  0  0
  -88.2891   32.1505   -3.0998 C   0  0  0  0  0  0  0  0  0  0  0  0
  -87.0430   31.8701   -2.5235 C   0  0  0  0  0  0  0  0  0  0  0  0
  -88.7316   31.5305   -4.7040 S   0  0  0  0  0  0  0  0  0  0  0  0
  -90.4434   31.0132   -4.8030 C   0  0  0  0  0  0  0  0  0  0  0  0
  -86.1100   28.3987    2.3048 N   0  0  0  0  0  0  0  0  0  0  0  0
  -86.1250   28.3412    3.3669 H   0  0  0  0  0  0  0  0  0  0  0  0
  -86.9586   27.4990    1.6145 C   0  0  0  0  0  0  0  0  0  0  0  0
  -88.2390   28.1924    1.1501 C   0  0  0  0  0  0  0  0  0  0  0  0
  -88.1271   28.6380   -0.1504 O   0  0  0  0  0  0  0  0  0  0  0  0
  -87.2647   29.0911   -0.3264 H   0  0  0  0  0  0  0  0  0  0  0  0
  -88.8205   26.2590    2.7382 C   0  0  0  0  0  0  0  0  0  0  0  0
  -87.3617   26.2609    2.3313 C   0  0  0  0  0  0  0  0  0  0  0  0
 24 25  1  0  0  0
 25 20  1  0  0  0
 20 21  1  0  0  0
 21 22  1  0  0  0
 20 18  1  0  0  0
 18  1  1  0  0  0
  1  2  1  0  0  0
  2  3  2  0  0  0
  3  4  1  0  0  0
  4  5  2  0  0  0
  5  6  1  0  0  0
  6  7  2  0  0  0
  7 10  1  0  0  0
 10 11  2  0  0  0
 11 12  1  0  0  0
 12 13  2  0  0  0
 13 14  1  0  0  0
 14 16  1  0  0  0
 16 17  1  0  0  0
 14 15  2  0  0  0
  7  8  1  0  0  0
  8  9  1  0  0  0
  9  1  2  0  0  0
  8  4  1  0  0  0
 15 10  1  0  0  0
 22 23  1  0  0  0
 18 19  1  0  0  0
M  END
> <minimizedAffinity>
-6.00022

> <CNNscore>
0.4188629985

> <CNNaffinity>
6.1144499779

> <CNN_VS>
2.5611169338

> <CNNaffinity_variance>
0.2610362470

$$$$
[H]c1sc(-c2c([H])c([H])c3c(c2[H])C([H])([H])C([H])([H])O3)nc1C(=O)N([H])c1nc([H])n([H])n1


 24 27  0  0  0  0  0  0  0  0999 V2000
  -87.6936   34.2124   -2.4965 C   0  0  0  0  0  0  0  0  0  0  0  0
  -88.8848   33.6422   -2.1047 C   0  0  0  0  0  0  0  0  0  0  0  0
  -88.3596   32.4483   -1.0089 S   0  0  0  0  0  0  0  0  0  0  0  0
  -86.6586   32.7386   -1.1085 C   0  0  0  0  0  0  0  0  0  0  0  0
  -86.6099   33.7318   -1.9759 N   0  0  0  0  0  0  0  0  0  0  0  0
  -85.5689   32.0586   -0.4121 C   0  0  0  0  0  0  0  0  0  0  0  0
  -84.3373   32.6364   -0.2740 C   0  0  0  0  0  0  0  0  0  0  0  0
  -83.3138   31.9534    0.4015 C   0  0  0  0  0  0  0  0  0  0  0  0
  -83.5329   30.6982    0.9325 C   0  0  0  0  0  0  0  0  0  0  0  0
  -82.7347   29.7919    1.6392 O   0  0  0  0  0  0  0  0  0  0  0  0
  -83.5966   28.9607    2.3935 C   0  0  0  0  0  0  0  0  0  0  0  0
  -84.7747   28.7946    1.4324 C   0  0  0  0  0  0  0  0  0  0  0  0
  -84.7778   30.1284    0.7863 C   0  0  0  0  0  0  0  0  0  0  0  0
  -85.7828   30.8119    0.1166 C   0  0  0  0  0  0  0  0  0  0  0  0
  -88.5118   36.2663   -3.4149 O   0  0  0  0  0  0  0  0  0  0  0  0
  -87.6794   35.3359   -3.4813 C   0  0  0  0  0  0  0  0  0  0  0  0
  -86.7155   35.3723   -4.5196 N   0  0  0  0  0  0  0  0  0  0  0  0
  -85.9932   34.6041   -4.6107 H   0  0  0  0  0  0  0  0  0  0  0  0
  -86.6824   36.4240   -5.4620 C   0  0  0  0  0  0  0  0  0  0  0  0
  -86.2793   37.6911   -5.3208 N   0  0  0  0  0  0  0  0  0  0  0  0
  -86.4311   38.3306   -6.4981 C   0  0  0  0  0  0  0  0  0  0  0  0
  -86.9322   37.4508   -7.3740 N   0  0  0  0  0  0  0  0  0  0  0  0
  -87.0790   36.3085   -6.7401 N   0  0  0  0  0  0  0  0  0  0  0  0
  -87.1672   37.6245   -8.3747 H   0  0  0  0  0  0  0  0  0  0  0  0
 15 16  2  0  0  0
 16 17  1  0  0  0
 17 19  1  0  0  0
 19 20  1  0  0  0
 20 21  2  0  0  0
 21 22  1  0  0  0
 22 23  1  0  0  0
 16  1  1  0  0  0
  1  2  2  0  0  0
  2  3  1  0  0  0
  3  4  1  0  0  0
  4  5  2  0  0  0
  4  6  1  0  0  0
  6  7  2  0  0  0
  7  8  1  0  0  0
  8  9  2  0  0  0
  9 10  1  0  0  0
 10 11  1  0  0  0
 11 12  1  0  0  0
 12 13  1  0  0  0
 13 14  2  0  0  0
 23 19  2  0  0  0
  5  1  1  0  0  0
 14  6  1  0  0  0
 13  9  1  0  0  0
 17 18  1  0  0  0
 22 24  1  0  0  0
M  END
> <minimizedAffinity>
-8.23959

> <CNNscore>
0.5301434994

> <CNNaffinity>
5.7740793228

> <CNN_VS>
3.0610907078

> <CNNaffinity_variance>
0.1112001538

$$$$
[H]c1sc(-c2c([H])c([H])c3c(c2[H])C([H])([H])C([H])([H])O3)nc1C(=O)N([H])c1nc([H])n([H])n1


 24 27  0  0  0  0  0  0  0  0999 V2000
  -86.0111   33.0422   -1.3699 C   0  0  0  0  0  0  0  0  0  0  0  0
  -84.7673   33.5292   -1.0329 C   0  0  0  0  0  0  0  0  0  0  0  0
  -84.1841   32.3138    0.0086 S   0  0  0  0  0  0  0  0  0  0  0  0
  -85.5499   31.2556   -0.0413 C   0  0  0  0  0  0  0  0  0  0  0  0
  -86.3602   31.9073   -0.8537 N   0  0  0  0  0  0  0  0  0  0  0  0
  -85.7467   29.9781    0.6399 C   0  0  0  0  0  0  0  0  0  0  0  0
  -84.7965   29.4588    1.4749 C   0  0  0  0  0  0  0  0  0  0  0  0
  -85.0199   28.2284    2.1126 C   0  0  0  0  0  0  0  0  0  0  0  0
  -86.1925   27.5294    1.9085 C   0  0  0  0  0  0  0  0  0  0  0  0
  -86.6920   26.3134    2.3876 O   0  0  0  0  0  0  0  0  0  0  0  0
  -88.1038   26.3695    2.3074 C   0  0  0  0  0  0  0  0  0  0  0  0
  -88.3024   27.1458    1.0047 C   0  0  0  0  0  0  0  0  0  0  0  0
  -87.1407   28.0641    1.0653 C   0  0  0  0  0  0  0  0  0  0  0  0
  -86.9101   29.2810    0.4396 C   0  0  0  0  0  0  0  0  0  0  0  0
  -88.1309   33.8911   -2.0892 O   0  0  0  0  0  0  0  0  0  0  0  0
  -86.9002   33.8095   -2.2935 C   0  0  0  0  0  0  0  0  0  0  0  0
  -86.3647   34.4665   -3.4293 N   0  0  0  0  0  0  0  0  0  0  0  0
  -85.3281   34.4221   -3.6379 H   0  0  0  0  0  0  0  0  0  0  0  0
  -87.1854   35.1978   -4.3165 C   0  0  0  0  0  0  0  0  0  0  0  0
  -87.8392   34.7947   -5.4110 N   0  0  0  0  0  0  0  0  0  0  0  0
  -88.4967   35.8472   -5.9384 C   0  0  0  0  0  0  0  0  0  0  0  0
  -88.2468   36.9094   -5.1628 N   0  0  0  0  0  0  0  0  0  0  0  0
  -87.4577   36.5071   -4.1913 N   0  0  0  0  0  0  0  0  0  0  0  0
  -88.6040   37.8802   -5.2924 H   0  0  0  0  0  0  0  0  0  0  0  0
 15 16  2  0  0  0
 16 17  1  0  0  0
 17 19  1  0  0  0
 19 20  1  0  0  0
 20 21  2  0  0  0
 21 22  1  0  0  0
 22 23  1  0  0  0
 16  1  1  0  0  0
  1  2  2  0  0  0
  2  3  1  0  0  0
  3  4  1  0  0  0
  4  5  2  0  0  0
  4  6  1  0  0  0
  6  7  2  0  0  0
  7  8  1  0  0  0
  8  9  2  0  0  0
  9 10  1  0  0  0
 10 11  1  0  0  0
 11 12  1  0  0  0
 12 13  1  0  0  0
 13 14  2  0  0  0
 23 19  2  0  0  0
  5  1  1  0  0  0
 14  6  1  0  0  0
 13  9  1  0  0  0
 17 18  1  0  0  0
 22 24  1  0  0  0
M  END
> <minimizedAffinity>
-7.41175

> <CNNscore>
0.3047546744

> <CNNaffinity>
5.6492567062

> <CNN_VS>
1.7216373682

> <CNNaffinity_variance>
0.1408794075

$$$$
[H]c1sc(-c2c([H])c([H])c3c(c2[H])C([H])([H])C([H])([H])O3)nc1C(=O)N([H])c1nc([H])n([H])n1


 24 27  0  0  0  0  0  0  0  0999 V2000
  -86.2432   30.8219    0.1476 C   0  0  0  0  0  0  0  0  0  0  0  0
  -85.0560   31.4529    0.4473 C   0  0  0  0  0  0  0  0  0  0  0  0
  -85.1815   32.8884   -0.4612 S   0  0  0  0  0  0  0  0  0  0  0  0
  -86.7328   32.6086   -1.1706 C   0  0  0  0  0  0  0  0  0  0  0  0
  -87.0482   31.4327   -0.6618 N   0  0  0  0  0  0  0  0  0  0  0  0
  -87.4880   33.4563   -2.0903 C   0  0  0  0  0  0  0  0  0  0  0  0
  -88.8539   33.4167   -2.1416 C   0  0  0  0  0  0  0  0  0  0  0  0
  -89.5465   34.2458   -3.0379 C   0  0  0  0  0  0  0  0  0  0  0  0
  -88.8652   35.1068   -3.8744 C   0  0  0  0  0  0  0  0  0  0  0  0
  -89.2631   36.0301   -4.8476 O   0  0  0  0  0  0  0  0  0  0  0  0
  -88.2339   36.9938   -4.9691 C   0  0  0  0  0  0  0  0  0  0  0  0
  -86.9858   36.1279   -4.7915 C   0  0  0  0  0  0  0  0  0  0  0  0
  -87.4900   35.1365   -3.8120 C   0  0  0  0  0  0  0  0  0  0  0  0
  -86.8148   34.3127   -2.9226 C   0  0  0  0  0  0  0  0  0  0  0  0
  -85.7028   28.8347    1.3686 O   0  0  0  0  0  0  0  0  0  0  0  0
  -86.5648   29.4902    0.7440 C   0  0  0  0  0  0  0  0  0  0  0  0
  -87.8630   28.9368    0.6141 N   0  0  0  0  0  0  0  0  0  0  0  0
  -88.6214   29.4596    0.0930 H   0  0  0  0  0  0  0  0  0  0  0  0
  -88.1905   27.6798    1.1694 C   0  0  0  0  0  0  0  0  0  0  0  0
  -88.5974   27.3663    2.4038 N   0  0  0  0  0  0  0  0  0  0  0  0
  -88.7907   26.0336    2.4738 C   0  0  0  0  0  0  0  0  0  0  0  0
  -88.5006   25.5198    1.2721 N   0  0  0  0  0  0  0  0  0  0  0  0
  -88.1412   26.5185    0.4964 N   0  0  0  0  0  0  0  0  0  0  0  0
  -88.5464   24.5174    0.9894 H   0  0  0  0  0  0  0  0  0  0  0  0
 15 16  2  0  0  0
 16 17  1  0  0  0
 17 19  1  0  0  0
 19 20  1  0  0  0
 20 21  2  0  0  0
 21 22  1  0  0  0
 22 23  1  0  0  0
 16  1  1  0  0  0
  1  2  2  0  0  0
  2  3  1  0  0  0
  3  4  1  0  0  0
  4  5  2  0  0  0
  4  6  1  0  0  0
  6  7  2  0  0  0
  7  8  1  0  0  0
  8  9  2  0  0  0
  9 10  1  0  0  0
 10 11  1  0  0  0
 11 12  1  0  0  0
 12 13  1  0  0  0
 13 14  2  0  0  0
 23 19  2  0  0  0
  5  1  1  0  0  0
 14  6  1  0  0  0
 13  9  1  0  0  0
 17 18  1  0  0  0
 22 24  1  0  0  0
M  END
> <minimizedAffinity>
-6.71783

> <CNNscore>
0.1505103111

> <CNNaffinity>
5.6264562607

> <CNN_VS>
0.8468396664

> <CNNaffinity_variance>
0.3471402228

$$$$
[H]c1sc(-c2c([H])c([H])c3c(c2[H])C([H])([H])C([H])([H])O3)nc1C(=O)N([H])c1nc([H])n([H])n1


 24 27  0  0  0  0  0  0  0  0999 V2000
  -87.7363   32.8138   -1.9068 C   0  0  0  0  0  0  0  0  0  0  0  0
  -88.0186   34.0329   -2.4828 C   0  0  0  0  0  0  0  0  0  0  0  0
  -89.3864   33.6662   -3.4297 S   0  0  0  0  0  0  0  0  0  0  0  0
  -89.5242   31.9872   -3.0425 C   0  0  0  0  0  0  0  0  0  0  0  0
  -88.5112   31.8229   -2.2130 N   0  0  0  0  0  0  0  0  0  0  0  0
  -90.5068   31.0141   -3.5140 C   0  0  0  0  0  0  0  0  0  0  0  0
  -91.3660   31.3036   -4.5376 C   0  0  0  0  0  0  0  0  0  0  0  0
  -92.2973   30.3439   -4.9645 C   0  0  0  0  0  0  0  0  0  0  0  0
  -92.3596   29.1033   -4.3625 C   0  0  0  0  0  0  0  0  0  0  0  0
  -93.1556   27.9694   -4.5591 O   0  0  0  0  0  0  0  0  0  0  0  0
  -92.4346   26.8516   -4.0760 C   0  0  0  0  0  0  0  0  0  0  0  0
  -91.7392   27.4466   -2.8505 C   0  0  0  0  0  0  0  0  0  0  0  0
  -91.4884   28.8252   -3.3332 C   0  0  0  0  0  0  0  0  0  0  0  0
  -90.5716   29.7809   -2.9186 C   0  0  0  0  0  0  0  0  0  0  0  0
  -85.9037   33.6574   -0.6177 O   0  0  0  0  0  0  0  0  0  0  0  0
  -86.5799   32.6674   -0.9720 C   0  0  0  0  0  0  0  0  0  0  0  0
  -86.2215   31.3944   -0.4627 N   0  0  0  0  0  0  0  0  0  0  0  0
  -86.7684   30.5310   -0.7378 H   0  0  0  0  0  0  0  0  0  0  0  0
  -85.1326   31.2312    0.4222 C   0  0  0  0  0  0  0  0  0  0  0  0
  -83.8345   31.0450    0.1611 N   0  0  0  0  0  0  0  0  0  0  0  0
  -83.1658   30.9409    1.3273 C   0  0  0  0  0  0  0  0  0  0  0  0
  -84.0587   31.0639    2.3173 N   0  0  0  0  0  0  0  0  0  0  0  0
  -85.2372   31.2380    1.7613 N   0  0  0  0  0  0  0  0  0  0  0  0
  -83.8697   31.0301    3.3419 H   0  0  0  0  0  0  0  0  0  0  0  0
 15 16  2  0  0  0
 16 17  1  0  0  0
 17 19  1  0  0  0
 19 20  1  0  0  0
 20 21  2  0  0  0
 21 22  1  0  0  0
 22 23  1  0  0  0
 16  1  1  0  0  0
  1  2  2  0  0  0
  2  3  1  0  0  0
  3  4  1  0  0  0
  4  5  2  0  0  0
  4  6  1  0  0  0
  6  7  2  0  0  0
  7  8  1  0  0  0
  8  9  2  0  0  0
  9 10  1  0  0  0
 10 11  1  0  0  0
 11 12  1  0  0  0
 12 13  1  0  0  0
 13 14  2  0  0  0
 23 19  2  0  0  0
  5  1  1  0  0  0
 14  6  1  0  0  0
 13  9  1  0  0  0
 17 18  1  0  0  0
 22 24  1  0  0  0
M  END
> <minimizedAffinity>
-5.84216

> <CNNscore>
0.1334216595

> <CNNaffinity>
5.2559003830

> <CNN_VS>
0.7012509704

> <CNNaffinity_variance>
0.3758486807

$$$$
[H]c1sc(-c2c([H])c([H])c3c(c2[H])C([H])([H])C([H])([H])O3)nc1C(=O)N([H])c1nc([H])n([H])n1


 24 27  0  0  0  0  0  0  0  0999 V2000
  -86.9545   33.4705   -1.9053 C   0  0  0  0  0  0  0  0  0  0  0  0
  -85.7614   33.6603   -1.2436 C   0  0  0  0  0  0  0  0  0  0  0  0
  -85.6736   32.2653   -0.2697 S   0  0  0  0  0  0  0  0  0  0  0  0
  -87.1549   31.5189   -0.7560 C   0  0  0  0  0  0  0  0  0  0  0  0
  -87.6156   32.3913   -1.6324 N   0  0  0  0  0  0  0  0  0  0  0  0
  -87.7359   30.2550   -0.3091 C   0  0  0  0  0  0  0  0  0  0  0  0
  -86.9588   29.1559   -0.0684 C   0  0  0  0  0  0  0  0  0  0  0  0
  -87.5516   27.9578    0.3601 C   0  0  0  0  0  0  0  0  0  0  0  0
  -88.9170   27.8714    0.5437 C   0  0  0  0  0  0  0  0  0  0  0  0
  -89.7771   26.8457    0.9511 O   0  0  0  0  0  0  0  0  0  0  0  0
  -90.9390   27.4497    1.4876 C   0  0  0  0  0  0  0  0  0  0  0  0
  -91.1078   28.6561    0.5628 C   0  0  0  0  0  0  0  0  0  0  0  0
  -89.6873   28.9858    0.2978 C   0  0  0  0  0  0  0  0  0  0  0  0
  -89.0915   30.1654   -0.1256 C   0  0  0  0  0  0  0  0  0  0  0  0
  -88.6040   34.9407   -2.8270 O   0  0  0  0  0  0  0  0  0  0  0  0
  -87.4430   34.4814   -2.8912 C   0  0  0  0  0  0  0  0  0  0  0  0
  -86.5954   34.9454   -3.9278 N   0  0  0  0  0  0  0  0  0  0  0  0
  -85.6055   34.5819   -4.0171 H   0  0  0  0  0  0  0  0  0  0  0  0
  -87.0349   35.9006   -4.8712 C   0  0  0  0  0  0  0  0  0  0  0  0
  -86.9415   37.2342   -4.8500 N   0  0  0  0  0  0  0  0  0  0  0  0
  -87.5036   37.7285   -5.9716 C   0  0  0  0  0  0  0  0  0  0  0  0
  -87.9480   36.6910   -6.6916 N   0  0  0  0  0  0  0  0  0  0  0  0
  -87.6608   35.5978   -6.0204 N   0  0  0  0  0  0  0  0  0  0  0  0
  -88.4330   36.7277   -7.6137 H   0  0  0  0  0  0  0  0  0  0  0  0
 15 16  2  0  0  0
 16 17  1  0  0  0
 17 19  1  0  0  0
 19 20  1  0  0  0
 20 21  2  0  0  0
 21 22  1  0  0  0
 22 23  1  0  0  0
 16  1  1  0  0  0
  1  2  2  0  0  0
  2  3  1  0  0  0
  3  4  1  0  0  0
  4  5  2  0  0  0
  4  6  1  0  0  0
  6  7  2  0  0  0
  7  8  1  0  0  0
  8  9  2  0  0  0
  9 10  1  0  0  0
 10 11  1  0  0  0
 11 12  1  0  0  0
 12 13  1  0  0  0
 13 14  2  0  0  0
 23 19  2  0  0  0
  5  1  1  0  0  0
 14  6  1  0  0  0
 13  9  1  0  0  0
 17 18  1  0  0  0
 22 24  1  0  0  0
M  END
> <minimizedAffinity>
-6.74349

> <CNNscore>
0.1259726733

> <CNNaffinity>
5.2704930305

> <CNN_VS>
0.6639381051

> <CNNaffinity_variance>
0.2736576200

$$$$
[H]c1sc(-c2c([H])c([H])c3c(c2[H])C([H])([H])C([H])([H])O3)nc1C(=O)N([H])c1nc([H])n([H])n1


 24 27  0  0  0  0  0  0  0  0999 V2000
  -87.3738   32.6750   -2.3604 C   0  0  0  0  0  0  0  0  0  0  0  0
  -86.7632   33.8456   -1.9675 C   0  0  0  0  0  0  0  0  0  0  0  0
  -85.8375   33.3291   -0.6340 S   0  0  0  0  0  0  0  0  0  0  0  0
  -86.2764   31.6573   -0.6488 C   0  0  0  0  0  0  0  0  0  0  0  0
  -87.1032   31.6098   -1.6760 N   0  0  0  0  0  0  0  0  0  0  0  0
  -85.8414   30.5861    0.2446 C   0  0  0  0  0  0  0  0  0  0  0  0
  -86.7055   29.6168    0.6731 C   0  0  0  0  0  0  0  0  0  0  0  0
  -86.2525   28.6026    1.5314 C   0  0  0  0  0  0  0  0  0  0  0  0
  -84.9384   28.5684    1.9527 C   0  0  0  0  0  0  0  0  0  0  0  0
  -84.2090   27.7106    2.7833 O   0  0  0  0  0  0  0  0  0  0  0  0
  -82.8462   27.8169    2.4168 C   0  0  0  0  0  0  0  0  0  0  0  0
  -82.7359   29.3069    2.0900 C   0  0  0  0  0  0  0  0  0  0  0  0
  -84.0792   29.5505    1.5133 C   0  0  0  0  0  0  0  0  0  0  0  0
  -84.5371   30.5487    0.6651 C   0  0  0  0  0  0  0  0  0  0  0  0
  -88.1449   31.8595   -4.4751 O   0  0  0  0  0  0  0  0  0  0  0  0
  -88.3043   32.6614   -3.5293 C   0  0  0  0  0  0  0  0  0  0  0  0
  -89.3958   33.5631   -3.5923 N   0  0  0  0  0  0  0  0  0  0  0  0
  -89.5659   34.2578   -2.8122 H   0  0  0  0  0  0  0  0  0  0  0  0
  -90.2886   33.5688   -4.6870 C   0  0  0  0  0  0  0  0  0  0  0  0
  -90.1213   34.0351   -5.9289 N   0  0  0  0  0  0  0  0  0  0  0  0
  -91.2525   33.8212   -6.6310 C   0  0  0  0  0  0  0  0  0  0  0  0
  -92.1259   33.2175   -5.8154 N   0  0  0  0  0  0  0  0  0  0  0  0
  -91.5356   33.0711   -4.6500 N   0  0  0  0  0  0  0  0  0  0  0  0
  -93.0961   32.9145   -6.0470 H   0  0  0  0  0  0  0  0  0  0  0  0
 15 16  2  0  0  0
 16 17  1  0  0  0
 17 19  1  0  0  0
 19 20  1  0  0  0
 20 21  2  0  0  0
 21 22  1  0  0  0
 22 23  1  0  0  0
 16  1  1  0  0  0
  1  2  2  0  0  0
  2  3  1  0  0  0
  3  4  1  0  0  0
  4  5  2  0  0  0
  4  6  1  0  0  0
  6  7  2  0  0  0
  7  8  1  0  0  0
  8  9  2  0  0  0
  9 10  1  0  0  0
 10 11  1  0  0  0
 11 12  1  0  0  0
 12 13  1  0  0  0
 13 14  2  0  0  0
 23 19  2  0  0  0
  5  1  1  0  0  0
 14  6  1  0  0  0
 13  9  1  0  0  0
 17 18  1  0  0  0
 22 24  1  0  0  0
M  END
> <minimizedAffinity>
-7.44714

> <CNNscore>
0.1258265078

> <CNNaffinity>
5.5553603172

> <CNN_VS>
0.6990115643

> <CNNaffinity_variance>
0.1293666363

$$$$
[H]c1sc(-c2c([H])c([H])c3c(c2[H])C([H])([H])C([H])([H])O3)nc1C(=O)N([H])c1nc([H])n([H])n1


 24 27  0  0  0  0  0  0  0  0999 V2000
  -89.5814   29.0293   -0.4114 C   0  0  0  0  0  0  0  0  0  0  0  0
  -90.5998   29.9500   -0.5239 C   0  0  0  0  0  0  0  0  0  0  0  0
  -89.7400   31.4190   -0.5925 S   0  0  0  0  0  0  0  0  0  0  0  0
  -88.1367   30.7840   -0.4746 C   0  0  0  0  0  0  0  0  0  0  0  0
  -88.3708   29.4881   -0.3907 N   0  0  0  0  0  0  0  0  0  0  0  0
  -86.8635   31.5008   -0.4700 C   0  0  0  0  0  0  0  0  0  0  0  0
  -86.7754   32.8050   -0.8711 C   0  0  0  0  0  0  0  0  0  0  0  0
  -85.5351   33.4622   -0.8534 C   0  0  0  0  0  0  0  0  0  0  0  0
  -84.3946   32.8073   -0.4342 C   0  0  0  0  0  0  0  0  0  0  0  0
  -83.0526   33.1826   -0.3078 O   0  0  0  0  0  0  0  0  0  0  0  0
  -82.4622   32.3390    0.6632 C   0  0  0  0  0  0  0  0  0  0  0  0
  -83.1572   31.0083    0.3709 C   0  0  0  0  0  0  0  0  0  0  0  0
  -84.4979   31.4943   -0.0329 C   0  0  0  0  0  0  0  0  0  0  0  0
  -85.7287   30.8537   -0.0543 C   0  0  0  0  0  0  0  0  0  0  0  0
  -90.8284   27.1481    0.3870 O   0  0  0  0  0  0  0  0  0  0  0  0
  -89.8866   27.5697   -0.3188 C   0  0  0  0  0  0  0  0  0  0  0  0
  -89.1101   26.6241   -1.0339 N   0  0  0  0  0  0  0  0  0  0  0  0
  -88.3041   26.9397   -1.6428 H   0  0  0  0  0  0  0  0  0  0  0  0
  -89.3797   25.2393   -0.9621 C   0  0  0  0  0  0  0  0  0  0  0  0
  -90.0086   24.4409   -1.8309 N   0  0  0  0  0  0  0  0  0  0  0  0
  -90.0287   23.1871   -1.3350 C   0  0  0  0  0  0  0  0  0  0  0  0
  -89.4067   23.2116   -0.1497 N   0  0  0  0  0  0  0  0  0  0  0  0
  -89.0210   24.4501    0.0638 N   0  0  0  0  0  0  0  0  0  0  0  0
  -89.2500   22.4071    0.4945 H   0  0  0  0  0  0  0  0  0  0  0  0
 15 16  2  0  0  0
 16 17  1  0  0  0
 17 19  1  0  0  0
 19 20  1  0  0  0
 20 21  2  0  0  0
 21 22  1  0  0  0
 22 23  1  0  0  0
 16  1  1  0  0  0
  1  2  2  0  0  0
  2  3  1  0  0  0
  3  4  1  0  0  0
  4  5  2  0  0  0
  4  6  1  0  0  0
  6  7  2  0  0  0
  7  8  1  0  0  0
  8  9  2  0  0  0
  9 10  1  0  0  0
 10 11  1  0  0  0
 11 12  1  0  0  0
 12 13  1  0  0  0
 13 14  2  0  0  0
 23 19  2  0  0  0
  5  1  1  0  0  0
 14  6  1  0  0  0
 13  9  1  0  0  0
 17 18  1  0  0  0
 22 24  1  0  0  0
M  END
> <minimizedAffinity>
-7.35181

> <CNNscore>
0.1052862182

> <CNNaffinity>
5.5562295914

> <CNN_VS>
0.5849943757

> <CNNaffinity_variance>
0.1210586801

$$$$
[H]c1sc(-c2c([H])c([H])c3c(c2[H])C([H])([H])C([H])([H])O3)nc1C(=O)N([H])c1nc([H])n([H])n1


 24 27  0  0  0  0  0  0  0  0999 V2000
  -90.5506   28.8718   -0.1924 C   0  0  0  0  0  0  0  0  0  0  0  0
  -91.6777   28.3937   -0.8239 C   0  0  0  0  0  0  0  0  0  0  0  0
  -91.7215   29.3472   -2.2348 S   0  0  0  0  0  0  0  0  0  0  0  0
  -90.3080   30.2992   -1.9455 C   0  0  0  0  0  0  0  0  0  0  0  0
  -89.8991   29.8202   -0.7859 N   0  0  0  0  0  0  0  0  0  0  0  0
  -89.7266   31.3541   -2.7725 C   0  0  0  0  0  0  0  0  0  0  0  0
  -90.2922   31.7249   -3.9610 C   0  0  0  0  0  0  0  0  0  0  0  0
  -89.7060   32.7428   -4.7295 C   0  0  0  0  0  0  0  0  0  0  0  0
  -88.5589   33.3799   -4.3010 C   0  0  0  0  0  0  0  0  0  0  0  0
  -87.7624   34.4015   -4.8300 O   0  0  0  0  0  0  0  0  0  0  0  0
  -87.0838   35.0168   -3.7512 C   0  0  0  0  0  0  0  0  0  0  0  0
  -86.7894   33.8143   -2.8533 C   0  0  0  0  0  0  0  0  0  0  0  0
  -88.0002   32.9966   -3.1024 C   0  0  0  0  0  0  0  0  0  0  0  0
  -88.5875   31.9892   -2.3502 C   0  0  0  0  0  0  0  0  0  0  0  0
  -88.9365   27.9488    1.3158 O   0  0  0  0  0  0  0  0  0  0  0  0
  -90.1193   28.3035    1.1204 C   0  0  0  0  0  0  0  0  0  0  0  0
  -91.0476   28.1529    2.1806 N   0  0  0  0  0  0  0  0  0  0  0  0
  -92.0584   28.4411    2.0561 H   0  0  0  0  0  0  0  0  0  0  0  0
  -90.6633   27.6184    3.4304 C   0  0  0  0  0  0  0  0  0  0  0  0
  -90.5714   26.3450    3.8279 N   0  0  0  0  0  0  0  0  0  0  0  0
  -90.1621   26.3178    5.1124 C   0  0  0  0  0  0  0  0  0  0  0  0
  -89.9997   27.5854    5.5115 N   0  0  0  0  0  0  0  0  0  0  0  0
  -90.3038   28.3580    4.4923 N   0  0  0  0  0  0  0  0  0  0  0  0
  -89.6905   27.9136    6.4514 H   0  0  0  0  0  0  0  0  0  0  0  0
 15 16  2  0  0  0
 16 17  1  0  0  0
 17 19  1  0  0  0
 19 20  1  0  0  0
 20 21  2  0  0  0
 21 22  1  0  0  0
 22 23  1  0  0  0
 16  1  1  0  0  0
  1  2  2  0  0  0
  2  3  1  0  0  0
  3  4  1  0  0  0
  4  5  2  0  0  0
  4  6  1  0  0  0
  6  7  2  0  0  0
  7  8  1  0  0  0
  8  9  2  0  0  0
  9 10  1  0  0  0
 10 11  1  0  0  0
 11 12  1  0  0  0
 12 13  1  0  0  0
 13 14  2  0  0  0
 23 19  2  0  0  0
  5  1  1  0  0  0
 14  6  1  0  0  0
 13  9  1  0  0  0
 17 18  1  0  0  0
 22 24  1  0  0  0
M  END
> <minimizedAffinity>
-6.09758

> <CNNscore>
0.0956456512

> <CNNaffinity>
4.8469099998

> <CNN_VS>
0.4635858536

> <CNNaffinity_variance>
0.0885204971

$$$$
[H]c1sc(-c2c([H])c([H])c3c(c2[H])C([H])([H])C([H])([H])O3)nc1C(=O)N([H])c1nc([H])n([H])n1


 24 27  0  0  0  0  0  0  0  0999 V2000
  -87.6700   27.3387    0.8080 C   0  0  0  0  0  0  0  0  0  0  0  0
  -88.0948   26.3406    1.6571 C   0  0  0  0  0  0  0  0  0  0  0  0
  -89.4829   25.7639    0.8554 S   0  0  0  0  0  0  0  0  0  0  0  0
  -89.4473   26.8206   -0.5121 C   0  0  0  0  0  0  0  0  0  0  0  0
  -88.3728   27.5438   -0.2599 N   0  0  0  0  0  0  0  0  0  0  0  0
  -90.3686   26.8882   -1.6441 C   0  0  0  0  0  0  0  0  0  0  0  0
  -90.9198   25.7603   -2.1861 C   0  0  0  0  0  0  0  0  0  0  0  0
  -91.8013   25.8633   -3.2737 C   0  0  0  0  0  0  0  0  0  0  0  0
  -92.1228   27.0946   -3.8084 C   0  0  0  0  0  0  0  0  0  0  0  0
  -92.9460   27.5090   -4.8612 O   0  0  0  0  0  0  0  0  0  0  0  0
  -93.3287   28.8469   -4.6037 C   0  0  0  0  0  0  0  0  0  0  0  0
  -92.0500   29.4139   -3.9850 C   0  0  0  0  0  0  0  0  0  0  0  0
  -91.5606   28.2220   -3.2527 C   0  0  0  0  0  0  0  0  0  0  0  0
  -90.6902   28.1093   -2.1778 C   0  0  0  0  0  0  0  0  0  0  0  0
  -85.5037   27.6412    1.7812 O   0  0  0  0  0  0  0  0  0  0  0  0
  -86.4477   28.1362    1.1280 C   0  0  0  0  0  0  0  0  0  0  0  0
  -86.3304   29.4806    0.6952 N   0  0  0  0  0  0  0  0  0  0  0  0
  -87.1070   29.9370    0.1397 H   0  0  0  0  0  0  0  0  0  0  0  0
  -85.1846   30.2541    0.9856 C   0  0  0  0  0  0  0  0  0  0  0  0
  -84.0275   30.3565    0.3235 N   0  0  0  0  0  0  0  0  0  0  0  0
  -83.2251   31.2195    0.9791 C   0  0  0  0  0  0  0  0  0  0  0  0
  -83.8926   31.6537    2.0553 N   0  0  0  0  0  0  0  0  0  0  0  0
  -85.0689   31.0668    2.0487 N   0  0  0  0  0  0  0  0  0  0  0  0
  -83.5556   32.3304    2.7731 H   0  0  0  0  0  0  0  0  0  0  0  0
 15 16  2  0  0  0
 16 17  1  0  0  0
 17 19  1  0  0  0
 19 20  1  0  0  0
 20 21  2  0  0  0
 21 22  1  0  0  0
 22 23  1  0  0  0
 16  1  1  0  0  0
  1  2  2  0  0  0
  2  3  1  0  0  0
  3  4  1  0  0  0
  4  5  2  0  0  0
  4  6  1  0  0  0
  6  7  2  0  0  0
  7  8  1  0  0  0
  8  9  2  0  0  0
  9 10  1  0  0  0
 10 11  1  0  0  0
 11 12  1  0  0  0
 12 13  1  0  0  0
 13 14  2  0  0  0
 23 19  2  0  0  0
  5  1  1  0  0  0
 14  6  1  0  0  0
 13  9  1  0  0  0
 17 18  1  0  0  0
 22 24  1  0  0  0
M  END
> <minimizedAffinity>
-5.83251

> <CNNscore>
0.0859979838

> <CNNaffinity>
5.3470163345

> <CNN_VS>
0.4598326385

> <CNNaffinity_variance>
0.6357949376

$$$$
[H]c1sc(-c2c([H])c([H])c3c(c2[H])C([H])([H])C([H])([H])O3)nc1C(=O)N([H])c1nc(C([H])([H])[H])nn1[H]


 25 28  0  0  0  0  0  0  0  0999 V2000
  -86.8401   33.0181   -1.3551 C   0  0  0  0  0  0  0  0  0  0  0  0
  -88.0691   32.4097   -1.2138 C   0  0  0  0  0  0  0  0  0  0  0  0
  -89.0442   33.3666   -2.2412 S   0  0  0  0  0  0  0  0  0  0  0  0
  -87.8587   34.4614   -2.7796 C   0  0  0  0  0  0  0  0  0  0  0  0
  -86.7814   34.0421   -2.1494 N   0  0  0  0  0  0  0  0  0  0  0  0
  -88.0588   35.5775   -3.7184 C   0  0  0  0  0  0  0  0  0  0  0  0
  -87.9489   35.3337   -5.0709 C   0  0  0  0  0  0  0  0  0  0  0  0
  -88.1263   36.3412   -5.9948 C   0  0  0  0  0  0  0  0  0  0  0  0
  -88.4157   37.5968   -5.5344 C   0  0  0  0  0  0  0  0  0  0  0  0
  -88.6386   38.7760   -6.2555 O   0  0  0  0  0  0  0  0  0  0  0  0
  -89.2909   39.7208   -5.4314 C   0  0  0  0  0  0  0  0  0  0  0  0
  -88.8558   39.3438   -4.0274 C   0  0  0  0  0  0  0  0  0  0  0  0
  -88.5348   37.8849   -4.1915 C   0  0  0  0  0  0  0  0  0  0  0  0
  -88.3482   36.8427   -3.3091 C   0  0  0  0  0  0  0  0  0  0  0  0
  -85.7263   31.2420   -0.0199 N   0  0  0  0  0  0  0  0  0  0  0  0
  -85.6602   32.5080   -0.6247 C   0  0  0  0  0  0  0  0  0  0  0  0
  -84.6210   33.1845   -0.5431 O   0  0  0  0  0  0  0  0  0  0  0  0
  -86.6423   30.7105   -0.1244 H   0  0  0  0  0  0  0  0  0  0  0  0
  -83.3951   27.8897    2.7600 C   0  0  0  0  0  0  0  0  0  0  0  0
  -83.7299   29.0915    1.9385 C   0  0  0  0  0  0  0  0  0  0  0  0
  -82.8405   30.0576    1.6832 N   0  0  0  0  0  0  0  0  0  0  0  0
  -83.4383   30.9770    0.9353 N   0  0  0  0  0  0  0  0  0  0  0  0
  -84.6922   30.6058    0.7145 C   0  0  0  0  0  0  0  0  0  0  0  0
  -84.8743   29.4174    1.3474 N   0  0  0  0  0  0  0  0  0  0  0  0
  -82.9748   31.8418    0.5905 H   0  0  0  0  0  0  0  0  0  0  0  0
 19 20  1  0  0  0
 20 21  2  0  0  0
 21 22  1  0  0  0
 22 23  1  0  0  0
 23 15  1  0  0  0
 15 16  1  0  0  0
 16 17  2  0  0  0
 16  1  1  0  0  0
  1  2  2  0  0  0
  2  3  1  0  0  0
  3  4  1  0  0  0
  4  5  2  0  0  0
  4  6  1  0  0  0
  6  7  2  0  0  0
  7  8  1  0  0  0
  8  9  2  0  0  0
  9 10  1  0  0  0
 10 11  1  0  0  0
 11 12  1  0  0  0
 12 13  1  0  0  0
 13 14  2  0  0  0
 23 24  2  0  0  0
 24 20  1  0  0  0
  5  1  1  0  0  0
 14  6  1  0  0  0
 13  9  1  0  0  0
 22 25  1  0  0  0
 15 18  1  0  0  0
M  END
> <minimizedAffinity>
-7.27708

> <CNNscore>
0.5003489852

> <CNNaffinity>
5.8684878349

> <CNN_VS>
2.9362919331

> <CNNaffinity_variance>
0.1198720485

$$$$
[H]c1sc(-c2c([H])c([H])c3c(c2[H])C([H])([H])C([H])([H])O3)nc1C(=O)N([H])c1nc(C([H])([H])[H])nn1[H]


 25 28  0  0  0  0  0  0  0  0999 V2000
  -87.9494   33.3616   -2.0217 C   0  0  0  0  0  0  0  0  0  0  0  0
  -89.1027   32.6952   -1.6659 C   0  0  0  0  0  0  0  0  0  0  0  0
  -88.4911   31.4853   -0.6249 S   0  0  0  0  0  0  0  0  0  0  0  0
  -86.8398   31.8876   -0.7001 C   0  0  0  0  0  0  0  0  0  0  0  0
  -86.8392   32.9225   -1.5142 N   0  0  0  0  0  0  0  0  0  0  0  0
  -85.7389   31.2041   -0.0017 C   0  0  0  0  0  0  0  0  0  0  0  0
  -84.5101   31.8256    0.0665 C   0  0  0  0  0  0  0  0  0  0  0  0
  -83.4442   31.2318    0.7078 C   0  0  0  0  0  0  0  0  0  0  0  0
  -83.6363   30.0031    1.2785 C   0  0  0  0  0  0  0  0  0  0  0  0
  -82.7285   29.1988    1.9780 O   0  0  0  0  0  0  0  0  0  0  0  0
  -83.4323   28.2287    2.7269 C   0  0  0  0  0  0  0  0  0  0  0  0
  -84.7208   28.0309    1.9502 C   0  0  0  0  0  0  0  0  0  0  0  0
  -84.8474   29.3461    1.2341 C   0  0  0  0  0  0  0  0  0  0  0  0
  -85.8809   29.9826    0.5812 C   0  0  0  0  0  0  0  0  0  0  0  0
  -86.9067   34.7748   -3.7803 N   0  0  0  0  0  0  0  0  0  0  0  0
  -88.0026   34.5190   -2.9399 C   0  0  0  0  0  0  0  0  0  0  0  0
  -89.0000   35.2596   -2.9731 O   0  0  0  0  0  0  0  0  0  0  0  0
  -86.0824   34.1059   -3.7065 H   0  0  0  0  0  0  0  0  0  0  0  0
  -87.5207   37.3956   -7.9222 C   0  0  0  0  0  0  0  0  0  0  0  0
  -87.1062   36.9334   -6.5635 C   0  0  0  0  0  0  0  0  0  0  0  0
  -86.3234   37.6660   -5.7633 N   0  0  0  0  0  0  0  0  0  0  0  0
  -86.1389   36.9868   -4.6379 N   0  0  0  0  0  0  0  0  0  0  0  0
  -86.7936   35.8360   -4.7155 C   0  0  0  0  0  0  0  0  0  0  0  0
  -87.4026   35.8040   -5.9296 N   0  0  0  0  0  0  0  0  0  0  0  0
  -85.5674   37.3255   -3.8379 H   0  0  0  0  0  0  0  0  0  0  0  0
 19 20  1  0  0  0
 20 21  2  0  0  0
 21 22  1  0  0  0
 22 23  1  0  0  0
 23 15  1  0  0  0
 15 16  1  0  0  0
 16 17  2  0  0  0
 16  1  1  0  0  0
  1  2  2  0  0  0
  2  3  1  0  0  0
  3  4  1  0  0  0
  4  5  2  0  0  0
  4  6  1  0  0  0
  6  7  2  0  0  0
  7  8  1  0  0  0
  8  9  2  0  0  0
  9 10  1  0  0  0
 10 11  1  0  0  0
 11 12  1  0  0  0
 12 13  1  0  0  0
 13 14  2  0  0  0
 23 24  2  0  0  0
 24 20  1  0  0  0
  5  1  1  0  0  0
 14  6  1  0  0  0
 13  9  1  0  0  0
 22 25  1  0  0  0
 15 18  1  0  0  0
M  END
> <minimizedAffinity>
-8.57683

> <CNNscore>
0.3078114390

> <CNNaffinity>
5.6856570244

> <CNN_VS>
1.7501102686

> <CNNaffinity_variance>
0.1078024954

$$$$
[H]c1sc(-c2c([H])c([H])c3c(c2[H])C([H])([H])C([H])([H])O3)nc1C(=O)N([H])c1nc(C([H])([H])[H])nn1[H]


 25 28  0  0  0  0  0  0  0  0999 V2000
  -87.9276   34.5879   -2.7437 C   0  0  0  0  0  0  0  0  0  0  0  0
  -89.1944   34.0440   -2.7552 C   0  0  0  0  0  0  0  0  0  0  0  0
  -88.9784   32.6546   -1.7832 S   0  0  0  0  0  0  0  0  0  0  0  0
  -87.3257   32.8413   -1.4258 C   0  0  0  0  0  0  0  0  0  0  0  0
  -87.0233   33.9520   -2.0650 N   0  0  0  0  0  0  0  0  0  0  0  0
  -86.5014   31.9443   -0.5995 C   0  0  0  0  0  0  0  0  0  0  0  0
  -87.0202   30.7221   -0.2281 C   0  0  0  0  0  0  0  0  0  0  0  0
  -86.2927   29.8427    0.5450 C   0  0  0  0  0  0  0  0  0  0  0  0
  -85.0356   30.2144    0.9372 C   0  0  0  0  0  0  0  0  0  0  0  0
  -84.1058   29.5131    1.7144 O   0  0  0  0  0  0  0  0  0  0  0  0
  -82.8202   30.0726    1.5371 C   0  0  0  0  0  0  0  0  0  0  0  0
  -83.0978   31.5201    1.1757 C   0  0  0  0  0  0  0  0  0  0  0  0
  -84.4781   31.4261    0.5888 C   0  0  0  0  0  0  0  0  0  0  0  0
  -85.2465   32.2690   -0.1848 C   0  0  0  0  0  0  0  0  0  0  0  0
  -86.9321   35.7706   -4.6899 N   0  0  0  0  0  0  0  0  0  0  0  0
  -87.6395   35.8381   -3.4785 C   0  0  0  0  0  0  0  0  0  0  0  0
  -88.0152   36.9370   -3.0362 O   0  0  0  0  0  0  0  0  0  0  0  0
  -86.6373   34.8018   -5.0171 H   0  0  0  0  0  0  0  0  0  0  0  0
  -86.5587   38.6313   -8.6997 C   0  0  0  0  0  0  0  0  0  0  0  0
  -86.4493   38.0740   -7.3180 C   0  0  0  0  0  0  0  0  0  0  0  0
  -85.7988   38.7091   -6.3367 N   0  0  0  0  0  0  0  0  0  0  0  0
  -85.8809   37.9634   -5.2417 N   0  0  0  0  0  0  0  0  0  0  0  0
  -86.5739   36.8666   -5.5169 C   0  0  0  0  0  0  0  0  0  0  0  0
  -86.9312   36.9379   -6.8258 N   0  0  0  0  0  0  0  0  0  0  0  0
  -85.4602   38.2210   -4.3262 H   0  0  0  0  0  0  0  0  0  0  0  0
 19 20  1  0  0  0
 20 21  2  0  0  0
 21 22  1  0  0  0
 22 23  1  0  0  0
 23 15  1  0  0  0
 15 16  1  0  0  0
 16 17  2  0  0  0
 16  1  1  0  0  0
  1  2  2  0  0  0
  2  3  1  0  0  0
  3  4  1  0  0  0
  4  5  2  0  0  0
  4  6  1  0  0  0
  6  7  2  0  0  0
  7  8  1  0  0  0
  8  9  2  0  0  0
  9 10  1  0  0  0
 10 11  1  0  0  0
 11 12  1  0  0  0
 12 13  1  0  0  0
 13 14  2  0  0  0
 23 24  2  0  0  0
 24 20  1  0  0  0
  5  1  1  0  0  0
 14  6  1  0  0  0
 13  9  1  0  0  0
 22 25  1  0  0  0
 15 18  1  0  0  0
M  END
> <minimizedAffinity>
-8.10672

> <CNNscore>
0.2924080789

> <CNNaffinity>
5.6724939346

> <CNN_VS>
1.6586830616

> <CNNaffinity_variance>
0.0737387091

$$$$
[H]c1sc(-c2c([H])c([H])c3c(c2[H])C([H])([H])C([H])([H])O3)nc1C(=O)N([H])c1nc(C([H])([H])[H])nn1[H]


 25 28  0  0  0  0  0  0  0  0999 V2000
  -88.9265   27.6415   -1.0574 C   0  0  0  0  0  0  0  0  0  0  0  0
  -88.6781   26.3770   -1.5474 C   0  0  0  0  0  0  0  0  0  0  0  0
  -88.8007   25.4308   -0.1291 S   0  0  0  0  0  0  0  0  0  0  0  0
  -89.1531   26.6706    0.9813 C   0  0  0  0  0  0  0  0  0  0  0  0
  -89.1592   27.7413    0.2150 N   0  0  0  0  0  0  0  0  0  0  0  0
  -89.3824   26.5128    2.4268 C   0  0  0  0  0  0  0  0  0  0  0  0
  -89.5150   25.2408    2.9418 C   0  0  0  0  0  0  0  0  0  0  0  0
  -89.7311   25.0343    4.2875 C   0  0  0  0  0  0  0  0  0  0  0  0
  -89.8111   26.1288    5.1047 C   0  0  0  0  0  0  0  0  0  0  0  0
  -90.0217   26.1892    6.4876 O   0  0  0  0  0  0  0  0  0  0  0  0
  -89.6334   27.4587    6.9723 C   0  0  0  0  0  0  0  0  0  0  0  0
  -89.8204   28.3785    5.7799 C   0  0  0  0  0  0  0  0  0  0  0  0
  -89.6843   27.4177    4.6323 C   0  0  0  0  0  0  0  0  0  0  0  0
  -89.4694   27.5699    3.2795 C   0  0  0  0  0  0  0  0  0  0  0  0
  -89.6853   29.9406   -1.6192 N   0  0  0  0  0  0  0  0  0  0  0  0
  -88.9220   28.8121   -1.9605 C   0  0  0  0  0  0  0  0  0  0  0  0
  -88.2543   28.8045   -3.0086 O   0  0  0  0  0  0  0  0  0  0  0  0
  -90.2355   29.8875   -0.7099 H   0  0  0  0  0  0  0  0  0  0  0  0
  -89.9877   32.9744   -5.5059 C   0  0  0  0  0  0  0  0  0  0  0  0
  -89.9217   32.4156   -4.1220 C   0  0  0  0  0  0  0  0  0  0  0  0
  -89.9667   33.1897   -3.0319 N   0  0  0  0  0  0  0  0  0  0  0  0
  -89.8873   32.4016   -1.9668 N   0  0  0  0  0  0  0  0  0  0  0  0
  -89.7928   31.1411   -2.3682 C   0  0  0  0  0  0  0  0  0  0  0  0
  -89.8146   31.1517   -3.7266 N   0  0  0  0  0  0  0  0  0  0  0  0
  -89.8994   32.7433   -0.9847 H   0  0  0  0  0  0  0  0  0  0  0  0
 19 20  1  0  0  0
 20 21  2  0  0  0
 21 22  1  0  0  0
 22 23  1  0  0  0
 23 15  1  0  0  0
 15 16  1  0  0  0
 16 17  2  0  0  0
 16  1  1  0  0  0
  1  2  2  0  0  0
  2  3  1  0  0  0
  3  4  1  0  0  0
  4  5  2  0  0  0
  4  6  1  0  0  0
  6  7  2  0  0  0
  7  8  1  0  0  0
  8  9  2  0  0  0
  9 10  1  0  0  0
 10 11  1  0  0  0
 11 12  1  0  0  0
 12 13  1  0  0  0
 13 14  2  0  0  0
 23 24  2  0  0  0
 24 20  1  0  0  0
  5  1  1  0  0  0
 14  6  1  0  0  0
 13  9  1  0  0  0
 22 25  1  0  0  0
 15 18  1  0  0  0
M  END
> <minimizedAffinity>
-4.51732

> <CNNscore>
0.1836903244

> <CNNaffinity>
5.1486930847

> <CNN_VS>
0.9457650781

> <CNNaffinity_variance>
0.9214760661

$$$$
[H]c1sc(-c2c([H])c([H])c3c(c2[H])C([H])([H])C([H])([H])O3)nc1C(=O)N([H])c1nc(C([H])([H])[H])nn1[H]


 25 28  0  0  0  0  0  0  0  0999 V2000
  -87.6035   32.8558   -2.2845 C   0  0  0  0  0  0  0  0  0  0  0  0
  -86.7741   33.9360   -2.0708 C   0  0  0  0  0  0  0  0  0  0  0  0
  -85.6923   33.3107   -0.9043 S   0  0  0  0  0  0  0  0  0  0  0  0
  -86.3428   31.7455   -0.7587 C   0  0  0  0  0  0  0  0  0  0  0  0
  -87.3503   31.7796   -1.6058 N   0  0  0  0  0  0  0  0  0  0  0  0
  -85.8501   30.6701    0.1175 C   0  0  0  0  0  0  0  0  0  0  0  0
  -86.7211   29.6692    0.4922 C   0  0  0  0  0  0  0  0  0  0  0  0
  -86.3138   28.6378    1.3110 C   0  0  0  0  0  0  0  0  0  0  0  0
  -85.0164   28.6313    1.7456 C   0  0  0  0  0  0  0  0  0  0  0  0
  -84.3631   27.7099    2.5730 O   0  0  0  0  0  0  0  0  0  0  0  0
  -82.9642   27.8567    2.4359 C   0  0  0  0  0  0  0  0  0  0  0  0
  -82.7862   29.3094    2.0350 C   0  0  0  0  0  0  0  0  0  0  0  0
  -84.1122   29.6114    1.3955 C   0  0  0  0  0  0  0  0  0  0  0  0
  -84.5695   30.6202    0.5752 C   0  0  0  0  0  0  0  0  0  0  0  0
  -88.5644   33.7232   -4.4063 N   0  0  0  0  0  0  0  0  0  0  0  0
  -88.7219   32.9454   -3.2474 C   0  0  0  0  0  0  0  0  0  0  0  0
  -89.7892   32.3435   -3.0406 O   0  0  0  0  0  0  0  0  0  0  0  0
  -87.6283   34.2144   -4.5278 H   0  0  0  0  0  0  0  0  0  0  0  0
  -91.0989   35.8973   -8.0464 C   0  0  0  0  0  0  0  0  0  0  0  0
  -90.6011   34.9318   -7.0210 C   0  0  0  0  0  0  0  0  0  0  0  0
  -91.1512   33.7254   -6.8435 N   0  0  0  0  0  0  0  0  0  0  0  0
  -90.4903   33.1137   -5.8683 N   0  0  0  0  0  0  0  0  0  0  0  0
  -89.5307   33.9160   -5.4274 C   0  0  0  0  0  0  0  0  0  0  0  0
  -89.6020   35.0613   -6.1548 N   0  0  0  0  0  0  0  0  0  0  0  0
  -90.7099   32.1574   -5.5237 H   0  0  0  0  0  0  0  0  0  0  0  0
 19 20  1  0  0  0
 20 21  2  0  0  0
 21 22  1  0  0  0
 22 23  1  0  0  0
 23 15  1  0  0  0
 15 16  1  0  0  0
 16 17  2  0  0  0
 16  1  1  0  0  0
  1  2  2  0  0  0
  2  3  1  0  0  0
  3  4  1  0  0  0
  4  5  2  0  0  0
  4  6  1  0  0  0
  6  7  2  0  0  0
  7  8  1  0  0  0
  8  9  2  0  0  0
  9 10  1  0  0  0
 10 11  1  0  0  0
 11 12  1  0  0  0
 12 13  1  0  0  0
 13 14  2  0  0  0
 23 24  2  0  0  0
 24 20  1  0  0  0
  5  1  1  0  0  0
 14  6  1  0  0  0
 13  9  1  0  0  0
 22 25  1  0  0  0
 15 18  1  0  0  0
M  END
> <minimizedAffinity>
-7.82280

> <CNNscore>
0.1298663914

> <CNNaffinity>
5.6160340309

> <CNN_VS>
0.7293340564

> <CNNaffinity_variance>
0.1155629978

$$$$
[H]c1sc(-c2c([H])c([H])c3c(c2[H])C([H])([H])C([H])([H])O3)nc1C(=O)N([H])c1nc(C([H])([H])[H])nn1[H]


 25 28  0  0  0  0  0  0  0  0999 V2000
  -86.2188   31.2120   -0.0670 C   0  0  0  0  0  0  0  0  0  0  0  0
  -85.0887   31.9336    0.2538 C   0  0  0  0  0  0  0  0  0  0  0  0
  -85.2889   33.3295   -0.7123 S   0  0  0  0  0  0  0  0  0  0  0  0
  -86.7661   32.9241   -1.4524 C   0  0  0  0  0  0  0  0  0  0  0  0
  -87.0309   31.7467   -0.9259 N   0  0  0  0  0  0  0  0  0  0  0  0
  -87.5079   33.7366   -2.4305 C   0  0  0  0  0  0  0  0  0  0  0  0
  -88.8861   33.7229   -2.3941 C   0  0  0  0  0  0  0  0  0  0  0  0
  -89.6313   34.4643   -3.2857 C   0  0  0  0  0  0  0  0  0  0  0  0
  -88.9662   35.2188   -4.2134 C   0  0  0  0  0  0  0  0  0  0  0  0
  -89.4823   36.0488   -5.2160 O   0  0  0  0  0  0  0  0  0  0  0  0
  -88.4751   36.9315   -5.6672 C   0  0  0  0  0  0  0  0  0  0  0  0
  -87.1841   36.1781   -5.4054 C   0  0  0  0  0  0  0  0  0  0  0  0
  -87.5902   35.2620   -4.2854 C   0  0  0  0  0  0  0  0  0  0  0  0
  -86.8918   34.5027   -3.3715 C   0  0  0  0  0  0  0  0  0  0  0  0
  -87.6876   29.2408    0.2993 N   0  0  0  0  0  0  0  0  0  0  0  0
  -86.4701   29.8935    0.5528 C   0  0  0  0  0  0  0  0  0  0  0  0
  -85.6202   29.3641    1.2888 O   0  0  0  0  0  0  0  0  0  0  0  0
  -88.3750   29.7438   -0.3386 H   0  0  0  0  0  0  0  0  0  0  0  0
  -89.7405   24.7520    0.4948 C   0  0  0  0  0  0  0  0  0  0  0  0
  -89.0134   26.0143    0.8261 C   0  0  0  0  0  0  0  0  0  0  0  0
  -88.4497   26.2262    2.0206 N   0  0  0  0  0  0  0  0  0  0  0  0
  -87.8875   27.4284    2.0003 N   0  0  0  0  0  0  0  0  0  0  0  0
  -88.0878   27.9790    0.8104 C   0  0  0  0  0  0  0  0  0  0  0  0
  -88.7975   27.0865    0.0718 N   0  0  0  0  0  0  0  0  0  0  0  0
  -87.3769   27.8486    2.8030 H   0  0  0  0  0  0  0  0  0  0  0  0
 19 20  1  0  0  0
 20 21  2  0  0  0
 21 22  1  0  0  0
 22 23  1  0  0  0
 23 15  1  0  0  0
 15 16  1  0  0  0
 16 17  2  0  0  0
 16  1  1  0  0  0
  1  2  2  0  0  0
  2  3  1  0  0  0
  3  4  1  0  0  0
  4  5  2  0  0  0
  4  6  1  0  0  0
  6  7  2  0  0  0
  7  8  1  0  0  0
  8  9  2  0  0  0
  9 10  1  0  0  0
 10 11  1  0  0  0
 11 12  1  0  0  0
 12 13  1  0  0  0
 13 14  2  0  0  0
 23 24  2  0  0  0
 24 20  1  0  0  0
  5  1  1  0  0  0
 14  6  1  0  0  0
 13  9  1  0  0  0
 22 25  1  0  0  0
 15 18  1  0  0  0
M  END
> <minimizedAffinity>
-6.73682

> <CNNscore>
0.1179609895

> <CNNaffinity>
5.6271467209

> <CNN_VS>
0.6637837887

> <CNNaffinity_variance>
0.3537714183

$$$$
[H]c1sc(-c2c([H])c([H])c3c(c2[H])C([H])([H])C([H])([H])O3)nc1C(=O)N([H])c1nc(C([H])([H])[H])nn1[H]


 25 28  0  0  0  0  0  0  0  0999 V2000
  -87.1536   33.3589   -1.8918 C   0  0  0  0  0  0  0  0  0  0  0  0
  -85.9081   33.3981   -1.3021 C   0  0  0  0  0  0  0  0  0  0  0  0
  -85.9470   31.9942   -0.3277 S   0  0  0  0  0  0  0  0  0  0  0  0
  -87.5109   31.4500   -0.7177 C   0  0  0  0  0  0  0  0  0  0  0  0
  -87.9230   32.3652   -1.5699 N   0  0  0  0  0  0  0  0  0  0  0  0
  -88.1751   30.2451   -0.1942 C   0  0  0  0  0  0  0  0  0  0  0  0
  -89.5530   30.2090   -0.1619 C   0  0  0  0  0  0  0  0  0  0  0  0
  -90.2273   29.1067    0.3180 C   0  0  0  0  0  0  0  0  0  0  0  0
  -89.4918   28.0428    0.7643 C   0  0  0  0  0  0  0  0  0  0  0  0
  -89.9288   26.8218    1.2920 O   0  0  0  0  0  0  0  0  0  0  0  0
  -88.8772   25.8791    1.2424 C   0  0  0  0  0  0  0  0  0  0  0  0
  -87.6212   26.7285    1.3032 C   0  0  0  0  0  0  0  0  0  0  0  0
  -88.1132   28.0363    0.7501 C   0  0  0  0  0  0  0  0  0  0  0  0
  -87.4874   29.1625    0.2606 C   0  0  0  0  0  0  0  0  0  0  0  0
  -86.6492   34.8662   -3.8026 N   0  0  0  0  0  0  0  0  0  0  0  0
  -87.5687   34.4120   -2.8429 C   0  0  0  0  0  0  0  0  0  0  0  0
  -88.7136   34.8930   -2.7996 O   0  0  0  0  0  0  0  0  0  0  0  0
  -85.6849   34.4163   -3.7901 H   0  0  0  0  0  0  0  0  0  0  0  0
  -88.6099   37.1618   -7.7125 C   0  0  0  0  0  0  0  0  0  0  0  0
  -87.7890   36.8148   -6.5136 C   0  0  0  0  0  0  0  0  0  0  0  0
  -86.8565   37.6366   -6.0191 N   0  0  0  0  0  0  0  0  0  0  0  0
  -86.3090   37.0465   -4.9637 N   0  0  0  0  0  0  0  0  0  0  0  0
  -86.8820   35.8640   -4.7842 C   0  0  0  0  0  0  0  0  0  0  0  0
  -87.8144   35.7196   -5.7618 N   0  0  0  0  0  0  0  0  0  0  0  0
  -85.5526   37.4662   -4.3864 H   0  0  0  0  0  0  0  0  0  0  0  0
 19 20  1  0  0  0
 20 21  2  0  0  0
 21 22  1  0  0  0
 22 23  1  0  0  0
 23 15  1  0  0  0
 15 16  1  0  0  0
 16 17  2  0  0  0
 16  1  1  0  0  0
  1  2  2  0  0  0
  2  3  1  0  0  0
  3  4  1  0  0  0
  4  5  2  0  0  0
  4  6  1  0  0  0
  6  7  2  0  0  0
  7  8  1  0  0  0
  8  9  2  0  0  0
  9 10  1  0  0  0
 10 11  1  0  0  0
 11 12  1  0  0  0
 12 13  1  0  0  0
 13 14  2  0  0  0
 23 24  2  0  0  0
 24 20  1  0  0  0
  5  1  1  0  0  0
 14  6  1  0  0  0
 13  9  1  0  0  0
 22 25  1  0  0  0
 15 18  1  0  0  0
M  END
> <minimizedAffinity>
-7.05006

> <CNNscore>
0.1152763888

> <CNNaffinity>
5.2448010445

> <CNN_VS>
0.6046017408

> <CNNaffinity_variance>
0.1565557420

$$$$
[H]c1sc(-c2c([H])c([H])c3c(c2[H])C([H])([H])C([H])([H])O3)nc1C(=O)N([H])c1nc(C([H])([H])[H])nn1[H]


 25 28  0  0  0  0  0  0  0  0999 V2000
  -88.0060   31.6876   -1.9003 C   0  0  0  0  0  0  0  0  0  0  0  0
  -89.2944   31.3006   -1.5986 C   0  0  0  0  0  0  0  0  0  0  0  0
  -89.0221   30.1056   -0.4071 S   0  0  0  0  0  0  0  0  0  0  0  0
  -87.3226   30.1655   -0.3620 C   0  0  0  0  0  0  0  0  0  0  0  0
  -87.0498   31.0923   -1.2566 N   0  0  0  0  0  0  0  0  0  0  0  0
  -86.4397   29.3530    0.4909 C   0  0  0  0  0  0  0  0  0  0  0  0
  -86.9181   28.1626    0.9959 C   0  0  0  0  0  0  0  0  0  0  0  0
  -86.1352   27.3620    1.7997 C   0  0  0  0  0  0  0  0  0  0  0  0
  -84.8641   27.7798    2.0861 C   0  0  0  0  0  0  0  0  0  0  0  0
  -83.8817   27.1591    2.8671 O   0  0  0  0  0  0  0  0  0  0  0  0
  -82.6168   27.7144    2.5691 C   0  0  0  0  0  0  0  0  0  0  0  0
  -82.9364   29.1217    2.0998 C   0  0  0  0  0  0  0  0  0  0  0  0
  -84.3456   28.9622    1.6027 C   0  0  0  0  0  0  0  0  0  0  0  0
  -85.1689   29.7259    0.8037 C   0  0  0  0  0  0  0  0  0  0  0  0
  -87.7441   34.0811   -2.5165 N   0  0  0  0  0  0  0  0  0  0  0  0
  -87.7530   32.7340   -2.9137 C   0  0  0  0  0  0  0  0  0  0  0  0
  -87.5503   32.4329   -4.1021 O   0  0  0  0  0  0  0  0  0  0  0  0
  -87.9239   34.2760   -1.4859 H   0  0  0  0  0  0  0  0  0  0  0  0
  -88.2534   38.5876   -4.4746 C   0  0  0  0  0  0  0  0  0  0  0  0
  -87.7983   37.1982   -4.1678 C   0  0  0  0  0  0  0  0  0  0  0  0
  -86.8024   36.6047   -4.8352 N   0  0  0  0  0  0  0  0  0  0  0  0
  -86.6402   35.3875   -4.3310 N   0  0  0  0  0  0  0  0  0  0  0  0
  -87.5190   35.2036   -3.3549 C   0  0  0  0  0  0  0  0  0  0  0  0
  -88.2480   36.3456   -3.2534 N   0  0  0  0  0  0  0  0  0  0  0  0
  -85.9296   34.7060   -4.6660 H   0  0  0  0  0  0  0  0  0  0  0  0
 19 20  1  0  0  0
 20 21  2  0  0  0
 21 22  1  0  0  0
 22 23  1  0  0  0
 23 15  1  0  0  0
 15 16  1  0  0  0
 16 17  2  0  0  0
 16  1  1  0  0  0
  1  2  2  0  0  0
  2  3  1  0  0  0
  3  4  1  0  0  0
  4  5  2  0  0  0
  4  6  1  0  0  0
  6  7  2  0  0  0
  7  8  1  0  0  0
  8  9  2  0  0  0
  9 10  1  0  0  0
 10 11  1  0  0  0
 11 12  1  0  0  0
 12 13  1  0  0  0
 13 14  2  0  0  0
 23 24  2  0  0  0
 24 20  1  0  0  0
  5  1  1  0  0  0
 14  6  1  0  0  0
 13  9  1  0  0  0
 22 25  1  0  0  0
 15 18  1  0  0  0
M  END
> <minimizedAffinity>
-8.23462

> <CNNscore>
0.1019193977

> <CNNaffinity>
5.6078743935

> <CNN_VS>
0.5715512037

> <CNNaffinity_variance>
0.1489248723

$$$$
[H]c1sc(-c2c([H])c([H])c3c(c2[H])C([H])([H])C([H])([H])O3)nc1C(=O)N([H])c1nc(C([H])([H])[H])nn1[H]


 25 28  0  0  0  0  0  0  0  0999 V2000
  -88.5131   31.6709   -1.9822 C   0  0  0  0  0  0  0  0  0  0  0  0
  -89.3191   30.5609   -1.8452 C   0  0  0  0  0  0  0  0  0  0  0  0
  -90.4532   30.8050   -3.1006 S   0  0  0  0  0  0  0  0  0  0  0  0
  -89.8503   32.2727   -3.7142 C   0  0  0  0  0  0  0  0  0  0  0  0
  -88.8165   32.5014   -2.9315 N   0  0  0  0  0  0  0  0  0  0  0  0
  -90.3991   33.0414   -4.8433 C   0  0  0  0  0  0  0  0  0  0  0  0
  -91.6464   32.7088   -5.3275 C   0  0  0  0  0  0  0  0  0  0  0  0
  -92.2089   33.3946   -6.3827 C   0  0  0  0  0  0  0  0  0  0  0  0
  -91.4951   34.4197   -6.9413 C   0  0  0  0  0  0  0  0  0  0  0  0
  -91.8373   35.2605   -8.0073 O   0  0  0  0  0  0  0  0  0  0  0  0
  -91.0153   36.4099   -7.9886 C   0  0  0  0  0  0  0  0  0  0  0  0
  -89.7416   35.9379   -7.3118 C   0  0  0  0  0  0  0  0  0  0  0  0
  -90.2454   34.7857   -6.4889 C   0  0  0  0  0  0  0  0  0  0  0  0
  -89.7279   34.0685   -5.4318 C   0  0  0  0  0  0  0  0  0  0  0  0
  -86.6925   30.7642   -0.5536 N   0  0  0  0  0  0  0  0  0  0  0  0
  -87.3634   31.8817   -1.0768 C   0  0  0  0  0  0  0  0  0  0  0  0
  -86.9904   33.0290   -0.7787 O   0  0  0  0  0  0  0  0  0  0  0  0
  -87.0582   29.8083   -0.8453 H   0  0  0  0  0  0  0  0  0  0  0  0
  -82.7359   29.2136    1.9647 C   0  0  0  0  0  0  0  0  0  0  0  0
  -83.8461   30.0383    1.3999 C   0  0  0  0  0  0  0  0  0  0  0  0
  -84.0253   31.3228    1.7278 N   0  0  0  0  0  0  0  0  0  0  0  0
  -85.0848   31.7703    1.0653 N   0  0  0  0  0  0  0  0  0  0  0  0
  -85.5774   30.7874    0.3236 C   0  0  0  0  0  0  0  0  0  0  0  0
  -84.7956   29.6966    0.5357 N   0  0  0  0  0  0  0  0  0  0  0  0
  -85.4500   32.7416    1.1343 H   0  0  0  0  0  0  0  0  0  0  0  0
 19 20  1  0  0  0
 20 21  2  0  0  0
 21 22  1  0  0  0
 22 23  1  0  0  0
 23 15  1  0  0  0
 15 16  1  0  0  0
 16 17  2  0  0  0
 16  1  1  0  0  0
  1  2  2  0  0  0
  2  3  1  0  0  0
  3  4  1  0  0  0
  4  5  2  0  0  0
  4  6  1  0  0  0
  6  7  2  0  0  0
  7  8  1  0  0  0
  8  9  2  0  0  0
  9 10  1  0  0  0
 10 11  1  0  0  0
 11 12  1  0  0  0
 12 13  1  0  0  0
 13 14  2  0  0  0
 23 24  2  0  0  0
 24 20  1  0  0  0
  5  1  1  0  0  0
 14  6  1  0  0  0
 13  9  1  0  0  0
 22 25  1  0  0  0
 15 18  1  0  0  0
M  END
> <minimizedAffinity>
-6.49549

> <CNNscore>
0.0906624272

> <CNNaffinity>
4.9489374161

> <CNN_VS>
0.4486826658

> <CNNaffinity_variance>
0.2044992745

$$$$
[H]c1nc([H])c(N([H])C(=O)C2([H])C([H])([H])C2([H])[H])c([H])c1-c1sc([H])c(-c2c([H])nn(C([H])([H])C([H])([H])C([H])([H])[H])c2[H])c1[H]


 26 29  0  0  0  0  0  0  0  0999 V2000
  -86.8300   32.6455   -1.2291 C   0  0  0  0  0  0  0  0  0  0  0  0
  -87.2853   33.7358   -1.9204 C   0  0  0  0  0  0  0  0  0  0  0  0
  -88.9076   33.3365   -2.2423 S   0  0  0  0  0  0  0  0  0  0  0  0
  -88.9703   31.7960   -1.4925 C   0  0  0  0  0  0  0  0  0  0  0  0
  -87.6947   31.6488   -1.0088 C   0  0  0  0  0  0  0  0  0  0  0  0
  -90.0998   30.8697   -1.3936 C   0  0  0  0  0  0  0  0  0  0  0  0
  -91.0715   30.7484   -2.3347 C   0  0  0  0  0  0  0  0  0  0  0  0
  -92.0868   29.8527   -2.1477 N   0  0  0  0  0  0  0  0  0  0  0  0
  -92.1709   29.0831   -1.0732 C   0  0  0  0  0  0  0  0  0  0  0  0
  -91.1982   29.1660   -0.0719 C   0  0  0  0  0  0  0  0  0  0  0  0
  -90.1676   30.0727   -0.2591 C   0  0  0  0  0  0  0  0  0  0  0  0
  -91.3389   28.3095    1.0444 N   0  0  0  0  0  0  0  0  0  0  0  0
  -90.3251   27.6291    1.7319 C   0  0  0  0  0  0  0  0  0  0  0  0
  -89.1333   27.6878    1.4517 O   0  0  0  0  0  0  0  0  0  0  0  0
  -92.3672   28.1821    1.3779 H   0  0  0  0  0  0  0  0  0  0  0  0
  -90.7132   26.7638    2.8962 C   0  0  0  0  0  0  0  0  0  0  0  0
  -89.6584   26.3266    3.8449 C   0  0  0  0  0  0  0  0  0  0  0  0
  -90.5678   27.4698    4.2275 C   0  0  0  0  0  0  0  0  0  0  0  0
  -83.5448   31.9651    0.2852 N   0  0  0  0  0  0  0  0  0  0  0  0
  -84.8444   31.6762    0.0874 C   0  0  0  0  0  0  0  0  0  0  0  0
  -85.4157   32.6017   -0.7564 C   0  0  0  0  0  0  0  0  0  0  0  0
  -84.4010   33.4781   -1.0701 C   0  0  0  0  0  0  0  0  0  0  0  0
  -83.2863   33.0487   -0.4134 N   0  0  0  0  0  0  0  0  0  0  0  0
  -82.6311   31.1939    1.1251 C   0  0  0  0  0  0  0  0  0  0  0  0
  -82.5197   28.9379    2.0576 C   0  0  0  0  0  0  0  0  0  0  0  0
  -83.4227   30.1332    1.8821 C   0  0  0  0  0  0  0  0  0  0  0  0
 25 26  1  0  0  0
 26 24  1  0  0  0
 24 19  1  0  0  0
 19 20  1  0  0  0
 20 21  2  0  0  0
 21 22  1  0  0  0
 22 23  2  0  0  0
 21  1  1  0  0  0
  1  2  2  0  0  0
  2  3  1  0  0  0
  3  4  1  0  0  0
  4  5  2  0  0  0
  4  6  1  0  0  0
  6  7  2  0  0  0
  7  8  1  0  0  0
  8  9  2  0  0  0
  9 10  1  0  0  0
 10 12  1  0  0  0
 12 13  1  0  0  0
 13 14  2  0  0  0
 13 16  1  0  0  0
 16 17  1  0  0  0
 17 18  1  0  0  0
 10 11  2  0  0  0
 23 19  1  0  0  0
  5  1  1  0  0  0
 11  6  1  0  0  0
 18 16  1  0  0  0
 12 15  1  0  0  0
M  END
> <minimizedAffinity>
-7.77382

> <CNNscore>
0.7262676358

> <CNNaffinity>
7.0038833618

> <CNN_VS>
5.0866937637

> <CNNaffinity_variance>
0.2397554219

$$$$
[H]c1nc([H])c(N([H])C(=O)C2([H])C([H])([H])C2([H])[H])c([H])c1-c1sc([H])c(-c2c([H])nn(C([H])([H])C([H])([H])C([H])([H])[H])c2[H])c1[H]


 26 29  0  0  0  0  0  0  0  0999 V2000
  -86.0095   27.8455    1.3894 C   0  0  0  0  0  0  0  0  0  0  0  0
  -84.9718   27.5198    2.2206 C   0  0  0  0  0  0  0  0  0  0  0  0
  -83.9099   28.8374    2.0437 S   0  0  0  0  0  0  0  0  0  0  0  0
  -84.8071   29.7705    0.9195 C   0  0  0  0  0  0  0  0  0  0  0  0
  -85.9259   29.0012    0.7208 C   0  0  0  0  0  0  0  0  0  0  0  0
  -84.4658   31.0623    0.3210 C   0  0  0  0  0  0  0  0  0  0  0  0
  -83.2011   31.5474    0.2233 C   0  0  0  0  0  0  0  0  0  0  0  0
  -82.9870   32.7681   -0.3531 N   0  0  0  0  0  0  0  0  0  0  0  0
  -83.9714   33.5150   -0.8297 C   0  0  0  0  0  0  0  0  0  0  0  0
  -85.2935   33.0653   -0.7556 C   0  0  0  0  0  0  0  0  0  0  0  0
  -85.5133   31.8281   -0.1723 C   0  0  0  0  0  0  0  0  0  0  0  0
  -86.2971   33.9043   -1.2925 N   0  0  0  0  0  0  0  0  0  0  0  0
  -86.9012   33.8139   -2.5536 C   0  0  0  0  0  0  0  0  0  0  0  0
  -86.6351   32.9620   -3.3937 O   0  0  0  0  0  0  0  0  0  0  0  0
  -86.6084   34.7056   -0.6247 H   0  0  0  0  0  0  0  0  0  0  0  0
  -87.9504   34.8263   -2.9132 C   0  0  0  0  0  0  0  0  0  0  0  0
  -88.6358   34.7105   -4.2248 C   0  0  0  0  0  0  0  0  0  0  0  0
  -89.3417   34.2333   -2.9782 C   0  0  0  0  0  0  0  0  0  0  0  0
  -89.0015   25.7285    1.7285 N   0  0  0  0  0  0  0  0  0  0  0  0
  -88.0964   26.5937    2.2222 C   0  0  0  0  0  0  0  0  0  0  0  0
  -87.1733   26.9218    1.2551 C   0  0  0  0  0  0  0  0  0  0  0  0
  -87.5553   26.2141    0.1374 C   0  0  0  0  0  0  0  0  0  0  0  0
  -88.6695   25.5056    0.4758 N   0  0  0  0  0  0  0  0  0  0  0  0
  -90.1241   25.1685    2.4777 C   0  0  0  0  0  0  0  0  0  0  0  0
  -90.7830   26.1393    4.6212 C   0  0  0  0  0  0  0  0  0  0  0  0
  -89.7982   25.2029    3.9668 C   0  0  0  0  0  0  0  0  0  0  0  0
 25 26  1  0  0  0
 26 24  1  0  0  0
 24 19  1  0  0  0
 19 20  1  0  0  0
 20 21  2  0  0  0
 21 22  1  0  0  0
 22 23  2  0  0  0
 21  1  1  0  0  0
  1  2  2  0  0  0
  2  3  1  0  0  0
  3  4  1  0  0  0
  4  5  2  0  0  0
  4  6  1  0  0  0
  6  7  2  0  0  0
  7  8  1  0  0  0
  8  9  2  0  0  0
  9 10  1  0  0  0
 10 12  1  0  0  0
 12 13  1  0  0  0
 13 14  2  0  0  0
 13 16  1  0  0  0
 16 17  1  0  0  0
 17 18  1  0  0  0
 10 11  2  0  0  0
 23 19  1  0  0  0
  5  1  1  0  0  0
 11  6  1  0  0  0
 18 16  1  0  0  0
 12 15  1  0  0  0
M  END
> <minimizedAffinity>
-7.72034

> <CNNscore>
0.5048317313

> <CNNaffinity>
6.8037424088

> <CNN_VS>
3.4347450733

> <CNNaffinity_variance>
0.0273659881

$$$$
[H]c1nc([H])c(N([H])C(=O)C2([H])C([H])([H])C2([H])[H])c([H])c1-c1sc([H])c(-c2c([H])nn(C([H])([H])C([H])([H])C([H])([H])[H])c2[H])c1[H]


 26 29  0  0  0  0  0  0  0  0999 V2000
  -85.9003   32.7962   -0.9889 C   0  0  0  0  0  0  0  0  0  0  0  0
  -84.6842   33.4242   -0.9624 C   0  0  0  0  0  0  0  0  0  0  0  0
  -83.7201   32.3562   -0.0542 S   0  0  0  0  0  0  0  0  0  0  0  0
  -84.8821   31.1382    0.2707 C   0  0  0  0  0  0  0  0  0  0  0  0
  -86.0029   31.6221   -0.3559 C   0  0  0  0  0  0  0  0  0  0  0  0
  -84.7204   29.8951    1.0270 C   0  0  0  0  0  0  0  0  0  0  0  0
  -83.6404   29.6064    1.7982 C   0  0  0  0  0  0  0  0  0  0  0  0
  -83.5842   28.4148    2.4653 N   0  0  0  0  0  0  0  0  0  0  0  0
  -84.5497   27.5109    2.3948 C   0  0  0  0  0  0  0  0  0  0  0  0
  -85.6849   27.7551    1.6155 C   0  0  0  0  0  0  0  0  0  0  0  0
  -85.7447   28.9624    0.9386 C   0  0  0  0  0  0  0  0  0  0  0  0
  -86.6846   26.7554    1.5910 N   0  0  0  0  0  0  0  0  0  0  0  0
  -87.9666   26.8158    2.1533 C   0  0  0  0  0  0  0  0  0  0  0  0
  -88.4149   27.7800    2.7628 O   0  0  0  0  0  0  0  0  0  0  0  0
  -86.3880   25.8452    1.0727 H   0  0  0  0  0  0  0  0  0  0  0  0
  -88.8645   25.6212    2.0053 C   0  0  0  0  0  0  0  0  0  0  0  0
  -90.3307   25.8074    2.1440 C   0  0  0  0  0  0  0  0  0  0  0  0
  -89.7292   25.6859    0.7643 C   0  0  0  0  0  0  0  0  0  0  0  0
  -88.2384   34.7346   -3.0684 N   0  0  0  0  0  0  0  0  0  0  0  0
  -86.9970   34.4240   -2.6510 C   0  0  0  0  0  0  0  0  0  0  0  0
  -87.0480   33.4270   -1.7033 C   0  0  0  0  0  0  0  0  0  0  0  0
  -88.3862   33.1372   -1.5565 C   0  0  0  0  0  0  0  0  0  0  0  0
  -89.0670   33.9574   -2.4063 N   0  0  0  0  0  0  0  0  0  0  0  0
  -88.5588   35.7497   -4.0694 C   0  0  0  0  0  0  0  0  0  0  0  0
  -87.4680   36.2868   -6.1891 C   0  0  0  0  0  0  0  0  0  0  0  0
  -88.2249   35.2083   -5.4551 C   0  0  0  0  0  0  0  0  0  0  0  0
 25 26  1  0  0  0
 26 24  1  0  0  0
 24 19  1  0  0  0
 19 20  1  0  0  0
 20 21  2  0  0  0
 21 22  1  0  0  0
 22 23  2  0  0  0
 21  1  1  0  0  0
  1  2  2  0  0  0
  2  3  1  0  0  0
  3  4  1  0  0  0
  4  5  2  0  0  0
  4  6  1  0  0  0
  6  7  2  0  0  0
  7  8  1  0  0  0
  8  9  2  0  0  0
  9 10  1  0  0  0
 10 12  1  0  0  0
 12 13  1  0  0  0
 13 14  2  0  0  0
 13 16  1  0  0  0
 16 17  1  0  0  0
 17 18  1  0  0  0
 10 11  2  0  0  0
 23 19  1  0  0  0
  5  1  1  0  0  0
 11  6  1  0  0  0
 18 16  1  0  0  0
 12 15  1  0  0  0
M  END
> <minimizedAffinity>
-7.42304

> <CNNscore>
0.4969748557

> <CNNaffinity>
6.6934423447

> <CNN_VS>
3.3264725208

> <CNNaffinity_variance>
0.0447839424

$$$$
[H]c1nc([H])c(N([H])C(=O)C2([H])C([H])([H])C2([H])[H])c([H])c1-c1sc([H])c(-c2c([H])nn(C([H])([H])C([H])([H])C([H])([H])[H])c2[H])c1[H]


 26 29  0  0  0  0  0  0  0  0999 V2000
  -85.6806   30.9344    0.1575 C   0  0  0  0  0  0  0  0  0  0  0  0
  -84.6437   31.8142    0.3146 C   0  0  0  0  0  0  0  0  0  0  0  0
  -85.1041   33.1288   -0.6626 S   0  0  0  0  0  0  0  0  0  0  0  0
  -86.6010   32.5315   -1.2475 C   0  0  0  0  0  0  0  0  0  0  0  0
  -86.6863   31.3019   -0.6445 C   0  0  0  0  0  0  0  0  0  0  0  0
  -87.5494   33.1712   -2.1611 C   0  0  0  0  0  0  0  0  0  0  0  0
  -88.5017   32.5036   -2.8625 C   0  0  0  0  0  0  0  0  0  0  0  0
  -89.3400   33.1940   -3.6922 N   0  0  0  0  0  0  0  0  0  0  0  0
  -89.2674   34.5072   -3.8487 C   0  0  0  0  0  0  0  0  0  0  0  0
  -88.3059   35.2455   -3.1516 C   0  0  0  0  0  0  0  0  0  0  0  0
  -87.4551   34.5482   -2.3094 C   0  0  0  0  0  0  0  0  0  0  0  0
  -88.2877   36.6450   -3.3537 N   0  0  0  0  0  0  0  0  0  0  0  0
  -87.4384   37.3752   -4.1956 C   0  0  0  0  0  0  0  0  0  0  0  0
  -86.5651   36.8827   -4.9006 O   0  0  0  0  0  0  0  0  0  0  0  0
  -89.0279   37.1867   -2.7675 H   0  0  0  0  0  0  0  0  0  0  0  0
  -87.5996   38.8673   -4.2468 C   0  0  0  0  0  0  0  0  0  0  0  0
  -88.3451   39.5436   -3.1556 C   0  0  0  0  0  0  0  0  0  0  0  0
  -86.8355   39.5791   -3.1507 C   0  0  0  0  0  0  0  0  0  0  0  0
  -86.2835   27.6406    1.6860 N   0  0  0  0  0  0  0  0  0  0  0  0
  -86.6802   28.7072    0.9673 C   0  0  0  0  0  0  0  0  0  0  0  0
  -85.6565   29.6219    0.8663 C   0  0  0  0  0  0  0  0  0  0  0  0
  -84.6057   29.0648    1.5603 C   0  0  0  0  0  0  0  0  0  0  0  0
  -85.0363   27.8632    2.0385 N   0  0  0  0  0  0  0  0  0  0  0  0
  -87.1137   26.4779    1.9923 C   0  0  0  0  0  0  0  0  0  0  0  0
  -89.1390   27.0649    3.2273 C   0  0  0  0  0  0  0  0  0  0  0  0
  -88.5825   26.8585    1.8407 C   0  0  0  0  0  0  0  0  0  0  0  0
 25 26  1  0  0  0
 26 24  1  0  0  0
 24 19  1  0  0  0
 19 20  1  0  0  0
 20 21  2  0  0  0
 21 22  1  0  0  0
 22 23  2  0  0  0
 21  1  1  0  0  0
  1  2  2  0  0  0
  2  3  1  0  0  0
  3  4  1  0  0  0
  4  5  2  0  0  0
  4  6  1  0  0  0
  6  7  2  0  0  0
  7  8  1  0  0  0
  8  9  2  0  0  0
  9 10  1  0  0  0
 10 12  1  0  0  0
 12 13  1  0  0  0
 13 14  2  0  0  0
 13 16  1  0  0  0
 16 17  1  0  0  0
 17 18  1  0  0  0
 10 11  2  0  0  0
 23 19  1  0  0  0
  5  1  1  0  0  0
 11  6  1  0  0  0
 18 16  1  0  0  0
 12 15  1  0  0  0
M  END
> <minimizedAffinity>
-6.80380

> <CNNscore>
0.3670314252

> <CNNaffinity>
6.5709466934

> <CNN_VS>
2.4117438793

> <CNNaffinity_variance>
0.1402700841

$$$$
[H]c1nc([H])c(N([H])C(=O)C2([H])C([H])([H])C2([H])[H])c([H])c1-c1sc([H])c(-c2c([H])nn(C([H])([H])C([H])([H])C([H])([H])[H])c2[H])c1[H]


 26 29  0  0  0  0  0  0  0  0999 V2000
  -86.5190   32.3889   -1.0287 C   0  0  0  0  0  0  0  0  0  0  0  0
  -85.4707   33.0586   -0.4573 C   0  0  0  0  0  0  0  0  0  0  0  0
  -84.7933   31.8954    0.5834 S   0  0  0  0  0  0  0  0  0  0  0  0
  -85.8557   30.5869    0.2695 C   0  0  0  0  0  0  0  0  0  0  0  0
  -86.7175   31.1194   -0.6561 C   0  0  0  0  0  0  0  0  0  0  0  0
  -85.8469   29.2405    0.8444 C   0  0  0  0  0  0  0  0  0  0  0  0
  -85.1124   28.8785    1.9279 C   0  0  0  0  0  0  0  0  0  0  0  0
  -85.1728   27.5928    2.3877 N   0  0  0  0  0  0  0  0  0  0  0  0
  -85.9268   26.6653    1.8173 C   0  0  0  0  0  0  0  0  0  0  0  0
  -86.7038   26.9821    0.6985 C   0  0  0  0  0  0  0  0  0  0  0  0
  -86.6448   28.2847    0.2306 C   0  0  0  0  0  0  0  0  0  0  0  0
  -87.4954   25.9504    0.1430 N   0  0  0  0  0  0  0  0  0  0  0  0
  -88.8794   25.7730    0.2710 C   0  0  0  0  0  0  0  0  0  0  0  0
  -89.6213   26.5168    0.9024 O   0  0  0  0  0  0  0  0  0  0  0  0
  -86.9313   25.2248   -0.4402 H   0  0  0  0  0  0  0  0  0  0  0  0
  -89.5104   24.5920   -0.4089 C   0  0  0  0  0  0  0  0  0  0  0  0
  -90.9320   24.6831   -0.8267 C   0  0  0  0  0  0  0  0  0  0  0  0
  -89.8458   24.8596   -1.8607 C   0  0  0  0  0  0  0  0  0  0  0  0
  -89.0394   33.5006   -3.4701 N   0  0  0  0  0  0  0  0  0  0  0  0
  -88.5224   32.5851   -2.6297 C   0  0  0  0  0  0  0  0  0  0  0  0
  -87.3898   33.0798   -2.0236 C   0  0  0  0  0  0  0  0  0  0  0  0
  -87.2335   34.3495   -2.5333 C   0  0  0  0  0  0  0  0  0  0  0  0
  -88.2594   34.5574   -3.4064 N   0  0  0  0  0  0  0  0  0  0  0  0
  -90.2410   33.3137   -4.2801 C   0  0  0  0  0  0  0  0  0  0  0  0
  -92.2045   31.8618   -4.3690 C   0  0  0  0  0  0  0  0  0  0  0  0
  -90.7123   31.8695   -4.1495 C   0  0  0  0  0  0  0  0  0  0  0  0
 25 26  1  0  0  0
 26 24  1  0  0  0
 24 19  1  0  0  0
 19 20  1  0  0  0
 20 21  2  0  0  0
 21 22  1  0  0  0
 22 23  2  0  0  0
 21  1  1  0  0  0
  1  2  2  0  0  0
  2  3  1  0  0  0
  3  4  1  0  0  0
  4  5  2  0  0  0
  4  6  1  0  0  0
  6  7  2  0  0  0
  7  8  1  0  0  0
  8  9  2  0  0  0
  9 10  1  0  0  0
 10 12  1  0  0  0
 12 13  1  0  0  0
 13 14  2  0  0  0
 13 16  1  0  0  0
 16 17  1  0  0  0
 17 18  1  0  0  0
 10 11  2  0  0  0
 23 19  1  0  0  0
  5  1  1  0  0  0
 11  6  1  0  0  0
 18 16  1  0  0  0
 12 15  1  0  0  0
M  END
> <minimizedAffinity>
-6.55426

> <CNNscore>
0.2377657145

> <CNNaffinity>
6.4026060104

> <CNN_VS>
1.5223201513

> <CNNaffinity_variance>
0.1714123487

$$$$
[H]c1nc([H])c(N([H])C(=O)C2([H])C([H])([H])C2([H])[H])c([H])c1-c1sc([H])c(-c2c([H])nn(C([H])([H])C([H])([H])C([H])([H])[H])c2[H])c1[H]


 26 29  0  0  0  0  0  0  0  0999 V2000
  -86.4703   27.6042    1.0694 C   0  0  0  0  0  0  0  0  0  0  0  0
  -85.5799   27.2173    2.0345 C   0  0  0  0  0  0  0  0  0  0  0  0
  -84.4677   28.5045    2.0693 S   0  0  0  0  0  0  0  0  0  0  0  0
  -85.1582   29.5033    0.8588 C   0  0  0  0  0  0  0  0  0  0  0  0
  -86.2546   28.7781    0.4651 C   0  0  0  0  0  0  0  0  0  0  0  0
  -84.6947   30.8023    0.3677 C   0  0  0  0  0  0  0  0  0  0  0  0
  -83.3990   31.2086    0.3910 C   0  0  0  0  0  0  0  0  0  0  0  0
  -83.0682   32.4438   -0.0917 N   0  0  0  0  0  0  0  0  0  0  0  0
  -83.9666   33.2796   -0.5901 C   0  0  0  0  0  0  0  0  0  0  0  0
  -85.3155   32.9136   -0.6388 C   0  0  0  0  0  0  0  0  0  0  0  0
  -85.6535   31.6620   -0.1506 C   0  0  0  0  0  0  0  0  0  0  0  0
  -86.2229   33.8459   -1.1928 N   0  0  0  0  0  0  0  0  0  0  0  0
  -86.8111   33.8130   -2.4642 C   0  0  0  0  0  0  0  0  0  0  0  0
  -86.6152   32.9378   -3.2996 O   0  0  0  0  0  0  0  0  0  0  0  0
  -86.4657   34.6749   -0.5304 H   0  0  0  0  0  0  0  0  0  0  0  0
  -87.7500   34.9226   -2.8417 C   0  0  0  0  0  0  0  0  0  0  0  0
  -88.4366   34.8617   -4.1565 C   0  0  0  0  0  0  0  0  0  0  0  0
  -89.1941   34.4733   -2.9092 C   0  0  0  0  0  0  0  0  0  0  0  0
  -89.0725   25.4760   -0.4299 N   0  0  0  0  0  0  0  0  0  0  0  0
  -87.9654   26.2367   -0.5149 C   0  0  0  0  0  0  0  0  0  0  0  0
  -87.6251   26.7243    0.7267 C   0  0  0  0  0  0  0  0  0  0  0  0
  -88.5800   26.2250    1.5840 C   0  0  0  0  0  0  0  0  0  0  0  0
  -89.4354   25.4740    0.8341 N   0  0  0  0  0  0  0  0  0  0  0  0
  -89.7154   24.7995   -1.5541 C   0  0  0  0  0  0  0  0  0  0  0  0
  -91.7279   26.1362   -1.9205 C   0  0  0  0  0  0  0  0  0  0  0  0
  -90.3531   25.8417   -2.4664 C   0  0  0  0  0  0  0  0  0  0  0  0
 25 26  1  0  0  0
 26 24  1  0  0  0
 24 19  1  0  0  0
 19 20  1  0  0  0
 20 21  2  0  0  0
 21 22  1  0  0  0
 22 23  2  0  0  0
 21  1  1  0  0  0
  1  2  2  0  0  0
  2  3  1  0  0  0
  3  4  1  0  0  0
  4  5  2  0  0  0
  4  6  1  0  0  0
  6  7  2  0  0  0
  7  8  1  0  0  0
  8  9  2  0  0  0
  9 10  1  0  0  0
 10 12  1  0  0  0
 12 13  1  0  0  0
 13 14  2  0  0  0
 13 16  1  0  0  0
 16 17  1  0  0  0
 17 18  1  0  0  0
 10 11  2  0  0  0
 23 19  1  0  0  0
  5  1  1  0  0  0
 11  6  1  0  0  0
 18 16  1  0  0  0
 12 15  1  0  0  0
M  END
> <minimizedAffinity>
-7.31073

> <CNNscore>
0.2296694070

> <CNNaffinity>
6.5221405029

> <CNN_VS>
1.4979361296

> <CNNaffinity_variance>
0.0712504536

$$$$
[H]c1nc([H])c(N([H])C(=O)C2([H])C([H])([H])C2([H])[H])c([H])c1-c1sc([H])c(-c2c([H])nn(C([H])([H])C([H])([H])C([H])([H])[H])c2[H])c1[H]


 26 29  0  0  0  0  0  0  0  0999 V2000
  -86.8841   27.9623    1.2738 C   0  0  0  0  0  0  0  0  0  0  0  0
  -85.8728   27.3792    1.9886 C   0  0  0  0  0  0  0  0  0  0  0  0
  -84.5911   28.4841    1.8123 S   0  0  0  0  0  0  0  0  0  0  0  0
  -85.3680   29.6599    0.8358 C   0  0  0  0  0  0  0  0  0  0  0  0
  -86.6259   29.1337    0.6814 C   0  0  0  0  0  0  0  0  0  0  0  0
  -84.8262   30.9102    0.3004 C   0  0  0  0  0  0  0  0  0  0  0  0
  -83.5113   31.2484    0.3347 C   0  0  0  0  0  0  0  0  0  0  0  0
  -83.1055   32.4424   -0.1924 N   0  0  0  0  0  0  0  0  0  0  0  0
  -83.9481   33.3019   -0.7452 C   0  0  0  0  0  0  0  0  0  0  0  0
  -85.3133   33.0057   -0.8077 C   0  0  0  0  0  0  0  0  0  0  0  0
  -85.7274   31.7959   -0.2745 C   0  0  0  0  0  0  0  0  0  0  0  0
  -86.1586   33.9595   -1.4203 N   0  0  0  0  0  0  0  0  0  0  0  0
  -86.8747   33.8223   -2.6169 C   0  0  0  0  0  0  0  0  0  0  0  0
  -86.8690   32.8188   -3.3206 O   0  0  0  0  0  0  0  0  0  0  0  0
  -86.2338   34.8990   -0.8757 H   0  0  0  0  0  0  0  0  0  0  0  0
  -87.7122   34.9794   -3.0805 C   0  0  0  0  0  0  0  0  0  0  0  0
  -88.4176   34.8749   -4.3825 C   0  0  0  0  0  0  0  0  0  0  0  0
  -89.1922   34.6617   -3.1038 C   0  0  0  0  0  0  0  0  0  0  0  0
  -89.8769   25.8283    1.4692 N   0  0  0  0  0  0  0  0  0  0  0  0
  -88.6059   26.1250    1.7981 C   0  0  0  0  0  0  0  0  0  0  0  0
  -88.2114   27.2881    1.1766 C   0  0  0  0  0  0  0  0  0  0  0  0
  -89.3053   27.6953    0.4460 C   0  0  0  0  0  0  0  0  0  0  0  0
  -90.2898   26.7764    0.6568 N   0  0  0  0  0  0  0  0  0  0  0  0
  -90.6184   24.6636    1.9471 C   0  0  0  0  0  0  0  0  0  0  0  0
  -91.6501   22.5893    1.1695 C   0  0  0  0  0  0  0  0  0  0  0  0
  -90.5111   23.5451    0.9163 C   0  0  0  0  0  0  0  0  0  0  0  0
 25 26  1  0  0  0
 26 24  1  0  0  0
 24 19  1  0  0  0
 19 20  1  0  0  0
 20 21  2  0  0  0
 21 22  1  0  0  0
 22 23  2  0  0  0
 21  1  1  0  0  0
  1  2  2  0  0  0
  2  3  1  0  0  0
  3  4  1  0  0  0
  4  5  2  0  0  0
  4  6  1  0  0  0
  6  7  2  0  0  0
  7  8  1  0  0  0
  8  9  2  0  0  0
  9 10  1  0  0  0
 10 12  1  0  0  0
 12 13  1  0  0  0
 13 14  2  0  0  0
 13 16  1  0  0  0
 16 17  1  0  0  0
 17 18  1  0  0  0
 10 11  2  0  0  0
 23 19  1  0  0  0
  5  1  1  0  0  0
 11  6  1  0  0  0
 18 16  1  0  0  0
 12 15  1  0  0  0
M  END
> <minimizedAffinity>
-7.00338

> <CNNscore>
0.2080925703

> <CNNaffinity>
6.4332375526

> <CNN_VS>
1.3387089968

> <CNNaffinity_variance>
0.1274015009

$$$$
[H]c1nc([H])c(N([H])C(=O)C2([H])C([H])([H])C2([H])[H])c([H])c1-c1sc([H])c(-c2c([H])nn(C([H])([H])C([H])([H])C([H])([H])[H])c2[H])c1[H]


 26 29  0  0  0  0  0  0  0  0999 V2000
  -86.7328   32.4311   -0.9844 C   0  0  0  0  0  0  0  0  0  0  0  0
  -85.6236   32.8626   -0.3083 C   0  0  0  0  0  0  0  0  0  0  0  0
  -85.1146   31.4687    0.5241 S   0  0  0  0  0  0  0  0  0  0  0  0
  -86.3209   30.3712   -0.0051 C   0  0  0  0  0  0  0  0  0  0  0  0
  -87.0917   31.1517   -0.8294 C   0  0  0  0  0  0  0  0  0  0  0  0
  -86.4877   28.9574    0.3368 C   0  0  0  0  0  0  0  0  0  0  0  0
  -85.9712   28.3757    1.4501 C   0  0  0  0  0  0  0  0  0  0  0  0
  -86.1829   27.0449    1.6787 N   0  0  0  0  0  0  0  0  0  0  0  0
  -86.8803   26.2806    0.8518 C   0  0  0  0  0  0  0  0  0  0  0  0
  -87.4351   26.8266   -0.3100 C   0  0  0  0  0  0  0  0  0  0  0  0
  -87.2224   28.1754   -0.5440 C   0  0  0  0  0  0  0  0  0  0  0  0
  -88.1779   25.9607   -1.1454 N   0  0  0  0  0  0  0  0  0  0  0  0
  -89.4626   25.4493   -0.9184 C   0  0  0  0  0  0  0  0  0  0  0  0
  -90.1450   25.6943    0.0698 O   0  0  0  0  0  0  0  0  0  0  0  0
  -87.6593   25.6736   -2.0584 H   0  0  0  0  0  0  0  0  0  0  0  0
  -90.0565   24.5358   -1.9517 C   0  0  0  0  0  0  0  0  0  0  0  0
  -91.3534   23.8745   -1.6606 C   0  0  0  0  0  0  0  0  0  0  0  0
  -91.3282   25.0860   -2.5616 C   0  0  0  0  0  0  0  0  0  0  0  0
  -87.9774   35.0527   -3.2487 N   0  0  0  0  0  0  0  0  0  0  0  0
  -86.9849   34.4197   -2.5961 C   0  0  0  0  0  0  0  0  0  0  0  0
  -87.4918   33.3793   -1.8507 C   0  0  0  0  0  0  0  0  0  0  0  0
  -88.8500   33.4021   -2.0768 C   0  0  0  0  0  0  0  0  0  0  0  0
  -89.0944   34.4354   -2.9315 N   0  0  0  0  0  0  0  0  0  0  0  0
  -87.8020   36.2034   -4.1320 C   0  0  0  0  0  0  0  0  0  0  0  0
  -87.5263   36.3143   -6.5575 C   0  0  0  0  0  0  0  0  0  0  0  0
  -88.4876   35.9202   -5.4641 C   0  0  0  0  0  0  0  0  0  0  0  0
 25 26  1  0  0  0
 26 24  1  0  0  0
 24 19  1  0  0  0
 19 20  1  0  0  0
 20 21  2  0  0  0
 21 22  1  0  0  0
 22 23  2  0  0  0
 21  1  1  0  0  0
  1  2  2  0  0  0
  2  3  1  0  0  0
  3  4  1  0  0  0
  4  5  2  0  0  0
  4  6  1  0  0  0
  6  7  2  0  0  0
  7  8  1  0  0  0
  8  9  2  0  0  0
  9 10  1  0  0  0
 10 12  1  0  0  0
 12 13  1  0  0  0
 13 14  2  0  0  0
 13 16  1  0  0  0
 16 17  1  0  0  0
 17 18  1  0  0  0
 10 11  2  0  0  0
 23 19  1  0  0  0
  5  1  1  0  0  0
 11  6  1  0  0  0
 18 16  1  0  0  0
 12 15  1  0  0  0
M  END
> <minimizedAffinity>
-7.01364

> <CNNscore>
0.2018799931

> <CNNaffinity>
6.2594294548

> <CNN_VS>
1.2636535168

> <CNNaffinity_variance>
0.0954727530

$$$$
[H]c1nc([H])c(N([H])C(=O)C2([H])C([H])([H])C2([H])[H])c([H])c1-c1sc([H])c(-c2c([H])nn(C([H])([H])C([H])([H])C([H])([H])[H])c2[H])c1[H]


 26 29  0  0  0  0  0  0  0  0999 V2000
  -86.2294   32.3843   -0.9720 C   0  0  0  0  0  0  0  0  0  0  0  0
  -86.4173   33.6432   -1.4759 C   0  0  0  0  0  0  0  0  0  0  0  0
  -87.9805   33.5606   -2.1427 S   0  0  0  0  0  0  0  0  0  0  0  0
  -88.3590   31.9312   -1.7666 C   0  0  0  0  0  0  0  0  0  0  0  0
  -87.2260   31.5044   -1.1208 C   0  0  0  0  0  0  0  0  0  0  0  0
  -89.5823   31.1827   -2.0611 C   0  0  0  0  0  0  0  0  0  0  0  0
  -90.6503   31.6968   -2.7241 C   0  0  0  0  0  0  0  0  0  0  0  0
  -91.7483   30.9144   -2.9486 N   0  0  0  0  0  0  0  0  0  0  0  0
  -91.8230   29.6557   -2.5433 C   0  0  0  0  0  0  0  0  0  0  0  0
  -90.7528   29.0746   -1.8556 C   0  0  0  0  0  0  0  0  0  0  0  0
  -89.6384   29.8653   -1.6271 C   0  0  0  0  0  0  0  0  0  0  0  0
  -90.8903   27.7241   -1.4598 N   0  0  0  0  0  0  0  0  0  0  0  0
  -90.6112   26.5794   -2.2182 C   0  0  0  0  0  0  0  0  0  0  0  0
  -90.1909   26.5922   -3.3695 O   0  0  0  0  0  0  0  0  0  0  0  0
  -91.2641   27.5958   -0.4456 H   0  0  0  0  0  0  0  0  0  0  0  0
  -90.8386   25.2359   -1.5869 C   0  0  0  0  0  0  0  0  0  0  0  0
  -89.9155   24.1228   -1.9227 C   0  0  0  0  0  0  0  0  0  0  0  0
  -89.7463   24.8523   -0.6114 C   0  0  0  0  0  0  0  0  0  0  0  0
  -83.3971   30.9407    0.8835 N   0  0  0  0  0  0  0  0  0  0  0  0
  -84.6574   30.8927    0.4135 C   0  0  0  0  0  0  0  0  0  0  0  0
  -84.9477   32.0392   -0.2911 C   0  0  0  0  0  0  0  0  0  0  0  0
  -83.8005   32.7986   -0.2322 C   0  0  0  0  0  0  0  0  0  0  0  0
  -82.8893   32.0886    0.4914 N   0  0  0  0  0  0  0  0  0  0  0  0
  -82.7553   29.8936    1.6751 C   0  0  0  0  0  0  0  0  0  0  0  0
  -83.1828   27.7153    2.6966 C   0  0  0  0  0  0  0  0  0  0  0  0
  -83.8296   29.0247    2.3197 C   0  0  0  0  0  0  0  0  0  0  0  0
 25 26  1  0  0  0
 26 24  1  0  0  0
 24 19  1  0  0  0
 19 20  1  0  0  0
 20 21  2  0  0  0
 21 22  1  0  0  0
 22 23  2  0  0  0
 21  1  1  0  0  0
  1  2  2  0  0  0
  2  3  1  0  0  0
  3  4  1  0  0  0
  4  5  2  0  0  0
  4  6  1  0  0  0
  6  7  2  0  0  0
  7  8  1  0  0  0
  8  9  2  0  0  0
  9 10  1  0  0  0
 10 12  1  0  0  0
 12 13  1  0  0  0
 13 14  2  0  0  0
 13 16  1  0  0  0
 16 17  1  0  0  0
 17 18  1  0  0  0
 10 11  2  0  0  0
 23 19  1  0  0  0
  5  1  1  0  0  0
 11  6  1  0  0  0
 18 16  1  0  0  0
 12 15  1  0  0  0
M  END
> <minimizedAffinity>
-7.10893

> <CNNscore>
0.1325666457

> <CNNaffinity>
6.1142311096

> <CNN_VS>
0.8105431199

> <CNNaffinity_variance>
0.2055639923

$$$$
[H]c1sc(-c2c([H])c([H])c3c(c2[H])C([H])([H])C([H])([H])O3)nc1C(=O)N([H])c1nc2c([H])c(C(=O)c3c([H])c([H])c([H])n3[H])c([H])c([H])c2n1[H]


 36 41  0  0  0  0  0  0  0  0999 V2000
  -83.2814   34.0674   -0.4072 O   0  0  0  0  0  0  0  0  0  0  0  0
  -84.2051   33.1539   -0.7276 C   0  0  0  0  0  0  0  0  0  0  0  0
  -85.0529   33.5461   -1.7065 N   0  0  0  0  0  0  0  0  0  0  0  0
  -84.7911   34.5767   -2.0928 H   0  0  0  0  0  0  0  0  0  0  0  0
  -86.2481   33.1126   -2.2607 C   0  0  0  0  0  0  0  0  0  0  0  0
  -87.2701   32.5618   -1.5057 N   0  0  0  0  0  0  0  0  0  0  0  0
  -88.2759   32.1555   -2.2644 C   0  0  0  0  0  0  0  0  0  0  0  0
  -89.5077   31.5679   -2.0378 C   0  0  0  0  0  0  0  0  0  0  0  0
  -90.3324   31.2854   -3.0935 C   0  0  0  0  0  0  0  0  0  0  0  0
  -89.9472   31.5799   -4.3823 C   0  0  0  0  0  0  0  0  0  0  0  0
  -88.7426   32.1555   -4.6144 C   0  0  0  0  0  0  0  0  0  0  0  0
  -87.9013   32.4468   -3.5549 C   0  0  0  0  0  0  0  0  0  0  0  0
  -86.6706   33.0224   -3.5041 N   0  0  0  0  0  0  0  0  0  0  0  0
  -86.1919   33.3025   -4.4071 H   0  0  0  0  0  0  0  0  0  0  0  0
  -91.6288   30.6851   -2.8946 C   0  0  0  0  0  0  0  0  0  0  0  0
  -92.6523   31.4040   -2.9699 O   0  0  0  0  0  0  0  0  0  0  0  0
  -91.7791   29.2783   -2.6101 C   0  0  0  0  0  0  0  0  0  0  0  0
  -91.1640   28.1771   -3.1141 C   0  0  0  0  0  0  0  0  0  0  0  0
  -91.6485   27.0327   -2.5128 C   0  0  0  0  0  0  0  0  0  0  0  0
  -92.5989   27.4937   -1.6073 C   0  0  0  0  0  0  0  0  0  0  0  0
  -92.6586   28.8173   -1.6820 N   0  0  0  0  0  0  0  0  0  0  0  0
  -93.3138   29.3946   -1.0837 H   0  0  0  0  0  0  0  0  0  0  0  0
  -84.0813   31.9213    0.0599 C   0  0  0  0  0  0  0  0  0  0  0  0
  -82.9525   31.6213    0.7886 C   0  0  0  0  0  0  0  0  0  0  0  0
  -83.3550   30.1174    1.4815 S   0  0  0  0  0  0  0  0  0  0  0  0
  -84.9399   29.9537    0.8042 C   0  0  0  0  0  0  0  0  0  0  0  0
  -85.0473   31.0411    0.1077 N   0  0  0  0  0  0  0  0  0  0  0  0
  -85.8796   28.8467    1.0369 C   0  0  0  0  0  0  0  0  0  0  0  0
  -85.4569   27.7392    1.7367 C   0  0  0  0  0  0  0  0  0  0  0  0
  -86.3427   26.6875    1.9910 C   0  0  0  0  0  0  0  0  0  0  0  0
  -87.6427   26.7668    1.5362 C   0  0  0  0  0  0  0  0  0  0  0  0
  -88.7265   25.8840    1.6431 O   0  0  0  0  0  0  0  0  0  0  0  0
  -89.9055   26.5899    1.2945 C   0  0  0  0  0  0  0  0  0  0  0  0
  -89.4831   27.7507    0.4356 C   0  0  0  0  0  0  0  0  0  0  0  0
  -88.0443   27.8924    0.8329 C   0  0  0  0  0  0  0  0  0  0  0  0
  -87.1454   28.9331    0.5883 C   0  0  0  0  0  0  0  0  0  0  0  0
  1  2  2  0  0  0
  2  3  1  0  0  0
  3  5  1  0  0  0
  5  6  2  0  0  0
  6  7  1  0  0  0
  7  8  2  0  0  0
  8  9  1  0  0  0
  9 10  2  0  0  0
 10 11  1  0  0  0
 11 12  2  0  0  0
 12 13  1  0  0  0
  9 15  1  0  0  0
 15 16  2  0  0  0
 15 17  1  0  0  0
 17 18  2  0  0  0
 18 19  1  0  0  0
 19 20  2  0  0  0
 20 21  1  0  0  0
  2 23  1  0  0  0
 23 24  2  0  0  0
 24 25  1  0  0  0
 25 26  1  0  0  0
 26 27  2  0  0  0
 26 28  1  0  0  0
 28 29  2  0  0  0
 29 30  1  0  0  0
 30 31  2  0  0  0
 31 32  1  0  0  0
 32 33  1  0  0  0
 33 34  1  0  0  0
 34 35  1  0  0  0
 35 36  2  0  0  0
 13  5  1  0  0  0
 21 17  1  0  0  0
 27 23  1  0  0  0
 36 28  1  0  0  0
 12  7  1  0  0  0
 35 31  1  0  0  0
  3  4  1  0  0  0
 13 14  1  0  0  0
 21 22  1  0  0  0
M  END
> <minimizedAffinity>
-9.17148

> <CNNscore>
0.6672180891

> <CNNaffinity>
7.3343276978

> <CNN_VS>
4.8935961723

> <CNNaffinity_variance>
0.1066611633

$$$$
[H]c1sc(-c2c([H])c([H])c3c(c2[H])C([H])([H])C([H])([H])O3)nc1C(=O)N([H])c1nc2c([H])c(C(=O)c3c([H])c([H])c([H])n3[H])c([H])c([H])c2n1[H]


 36 41  0  0  0  0  0  0  0  0999 V2000
  -83.1572   33.9165   -0.4643 O   0  0  0  0  0  0  0  0  0  0  0  0
  -84.1660   33.0735   -0.7134 C   0  0  0  0  0  0  0  0  0  0  0  0
  -85.0436   33.5215   -1.6406 N   0  0  0  0  0  0  0  0  0  0  0  0
  -84.7305   34.5263   -2.0558 H   0  0  0  0  0  0  0  0  0  0  0  0
  -86.3015   33.1760   -2.1116 C   0  0  0  0  0  0  0  0  0  0  0  0
  -86.8174   33.6612   -3.3017 N   0  0  0  0  0  0  0  0  0  0  0  0
  -88.0602   33.2511   -3.5007 C   0  0  0  0  0  0  0  0  0  0  0  0
  -89.0077   33.4205   -4.4943 C   0  0  0  0  0  0  0  0  0  0  0  0
  -90.2322   32.8190   -4.3780 C   0  0  0  0  0  0  0  0  0  0  0  0
  -90.5316   32.0457   -3.2788 C   0  0  0  0  0  0  0  0  0  0  0  0
  -89.6102   31.8738   -2.3002 C   0  0  0  0  0  0  0  0  0  0  0  0
  -88.3688   32.4759   -2.4077 C   0  0  0  0  0  0  0  0  0  0  0  0
  -87.2782   32.4597   -1.5960 N   0  0  0  0  0  0  0  0  0  0  0  0
  -87.3222   31.9295   -0.6795 H   0  0  0  0  0  0  0  0  0  0  0  0
  -91.2399   32.9626   -5.4000 C   0  0  0  0  0  0  0  0  0  0  0  0
  -91.0612   33.7930   -6.3210 O   0  0  0  0  0  0  0  0  0  0  0  0
  -92.4497   32.1758   -5.3898 C   0  0  0  0  0  0  0  0  0  0  0  0
  -93.6934   32.4251   -4.9039 C   0  0  0  0  0  0  0  0  0  0  0  0
  -94.5311   31.3539   -5.1420 C   0  0  0  0  0  0  0  0  0  0  0  0
  -93.7302   30.4290   -5.8043 C   0  0  0  0  0  0  0  0  0  0  0  0
  -92.5103   30.9339   -5.9389 N   0  0  0  0  0  0  0  0  0  0  0  0
  -91.7237   30.4091   -6.4147 H   0  0  0  0  0  0  0  0  0  0  0  0
  -84.0846   31.8410    0.0799 C   0  0  0  0  0  0  0  0  0  0  0  0
  -82.9834   31.5263    0.8436 C   0  0  0  0  0  0  0  0  0  0  0  0
  -83.4291   30.0300    1.5266 S   0  0  0  0  0  0  0  0  0  0  0  0
  -84.9945   29.8878    0.8009 C   0  0  0  0  0  0  0  0  0  0  0  0
  -85.0644   30.9751    0.0994 N   0  0  0  0  0  0  0  0  0  0  0  0
  -85.9570   28.7952    1.0066 C   0  0  0  0  0  0  0  0  0  0  0  0
  -85.5774   27.6902    1.7345 C   0  0  0  0  0  0  0  0  0  0  0  0
  -86.4862   26.6524    1.9634 C   0  0  0  0  0  0  0  0  0  0  0  0
  -87.7655   26.7429    1.4550 C   0  0  0  0  0  0  0  0  0  0  0  0
  -88.8640   25.8748    1.5267 O   0  0  0  0  0  0  0  0  0  0  0  0
  -90.0187   26.5914    1.1228 C   0  0  0  0  0  0  0  0  0  0  0  0
  -89.5468   27.7374    0.2699 C   0  0  0  0  0  0  0  0  0  0  0  0
  -88.1237   27.8655    0.7242 C   0  0  0  0  0  0  0  0  0  0  0  0
  -87.2022   28.8924    0.5057 C   0  0  0  0  0  0  0  0  0  0  0  0
  1  2  2  0  0  0
  2  3  1  0  0  0
  3  5  1  0  0  0
  5  6  2  0  0  0
  6  7  1  0  0  0
  7  8  2  0  0  0
  8  9  1  0  0  0
  9 10  2  0  0  0
 10 11  1  0  0  0
 11 12  2  0  0  0
 12 13  1  0  0  0
  9 15  1  0  0  0
 15 16  2  0  0  0
 15 17  1  0  0  0
 17 18  2  0  0  0
 18 19  1  0  0  0
 19 20  2  0  0  0
 20 21  1  0  0  0
  2 23  1  0  0  0
 23 24  2  0  0  0
 24 25  1  0  0  0
 25 26  1  0  0  0
 26 27  2  0  0  0
 26 28  1  0  0  0
 28 29  2  0  0  0
 29 30  1  0  0  0
 30 31  2  0  0  0
 31 32  1  0  0  0
 32 33  1  0  0  0
 33 34  1  0  0  0
 34 35  1  0  0  0
 35 36  2  0  0  0
 13  5  1  0  0  0
 21 17  1  0  0  0
 27 23  1  0  0  0
 36 28  1  0  0  0
 12  7  1  0  0  0
 35 31  1  0  0  0
  3  4  1  0  0  0
 13 14  1  0  0  0
 21 22  1  0  0  0
M  END
> <minimizedAffinity>
-8.95548

> <CNNscore>
0.6119332910

> <CNNaffinity>
7.2613220215

> <CNN_VS>
4.4434447289

> <CNNaffinity_variance>
0.1193613783

$$$$
[H]c1sc(-c2c([H])c([H])c3c(c2[H])C([H])([H])C([H])([H])O3)nc1C(=O)N([H])c1nc2c([H])c(C(=O)c3c([H])c([H])c([H])n3[H])c([H])c([H])c2n1[H]


 36 41  0  0  0  0  0  0  0  0999 V2000
  -82.0928   31.5977    1.1559 O   0  0  0  0  0  0  0  0  0  0  0  0
  -83.3311   31.3118    0.7370 C   0  0  0  0  0  0  0  0  0  0  0  0
  -83.8606   32.2392   -0.0938 N   0  0  0  0  0  0  0  0  0  0  0  0
  -83.1277   33.0756   -0.3017 H   0  0  0  0  0  0  0  0  0  0  0  0
  -85.1014   32.5396   -0.6357 C   0  0  0  0  0  0  0  0  0  0  0  0
  -85.2901   33.5458   -1.5684 N   0  0  0  0  0  0  0  0  0  0  0  0
  -86.5685   33.6928   -1.8791 C   0  0  0  0  0  0  0  0  0  0  0  0
  -87.2886   34.5093   -2.7327 C   0  0  0  0  0  0  0  0  0  0  0  0
  -88.6487   34.3766   -2.8166 C   0  0  0  0  0  0  0  0  0  0  0  0
  -89.3094   33.4369   -2.0574 C   0  0  0  0  0  0  0  0  0  0  0  0
  -88.6129   32.6325   -1.2184 C   0  0  0  0  0  0  0  0  0  0  0  0
  -87.2376   32.7567   -1.1263 C   0  0  0  0  0  0  0  0  0  0  0  0
  -86.3122   32.0849   -0.3910 N   0  0  0  0  0  0  0  0  0  0  0  0
  -86.6322   31.3289    0.2791 H   0  0  0  0  0  0  0  0  0  0  0  0
  -89.4307   35.2013   -3.7048 C   0  0  0  0  0  0  0  0  0  0  0  0
  -89.2507   36.4412   -3.7031 O   0  0  0  0  0  0  0  0  0  0  0  0
  -90.4161   34.6367   -4.5952 C   0  0  0  0  0  0  0  0  0  0  0  0
  -90.3008   33.9113   -5.7379 C   0  0  0  0  0  0  0  0  0  0  0  0
  -91.5475   33.5875   -6.2350 C   0  0  0  0  0  0  0  0  0  0  0  0
  -92.4387   34.1561   -5.3305 C   0  0  0  0  0  0  0  0  0  0  0  0
  -91.7509   34.7678   -4.3747 N   0  0  0  0  0  0  0  0  0  0  0  0
  -92.2165   35.2750   -3.5706 H   0  0  0  0  0  0  0  0  0  0  0  0
  -83.8332   30.0418    1.2754 C   0  0  0  0  0  0  0  0  0  0  0  0
  -83.0610   29.2167    2.0615 C   0  0  0  0  0  0  0  0  0  0  0  0
  -84.1247   27.9268    2.3909 S   0  0  0  0  0  0  0  0  0  0  0  0
  -85.4953   28.5101    1.5083 C   0  0  0  0  0  0  0  0  0  0  0  0
  -85.0503   29.6301    1.0319 N   0  0  0  0  0  0  0  0  0  0  0  0
  -86.8091   27.8580    1.4033 C   0  0  0  0  0  0  0  0  0  0  0  0
  -87.0424   26.6951    2.1019 C   0  0  0  0  0  0  0  0  0  0  0  0
  -88.2934   26.0737    2.0359 C   0  0  0  0  0  0  0  0  0  0  0  0
  -89.2921   26.6335    1.2662 C   0  0  0  0  0  0  0  0  0  0  0  0
  -90.6149   26.2397    1.0197 O   0  0  0  0  0  0  0  0  0  0  0  0
  -91.2979   27.3341    0.4317 C   0  0  0  0  0  0  0  0  0  0  0  0
  -90.2531   28.2159   -0.1963 C   0  0  0  0  0  0  0  0  0  0  0  0
  -89.0324   27.8048    0.5710 C   0  0  0  0  0  0  0  0  0  0  0  0
  -87.7764   28.4112    0.6489 C   0  0  0  0  0  0  0  0  0  0  0  0
  1  2  2  0  0  0
  2  3  1  0  0  0
  3  5  1  0  0  0
  5  6  2  0  0  0
  6  7  1  0  0  0
  7  8  2  0  0  0
  8  9  1  0  0  0
  9 10  2  0  0  0
 10 11  1  0  0  0
 11 12  2  0  0  0
 12 13  1  0  0  0
  9 15  1  0  0  0
 15 16  2  0  0  0
 15 17  1  0  0  0
 17 18  2  0  0  0
 18 19  1  0  0  0
 19 20  2  0  0  0
 20 21  1  0  0  0
  2 23  1  0  0  0
 23 24  2  0  0  0
 24 25  1  0  0  0
 25 26  1  0  0  0
 26 27  2  0  0  0
 26 28  1  0  0  0
 28 29  2  0  0  0
 29 30  1  0  0  0
 30 31  2  0  0  0
 31 32  1  0  0  0
 32 33  1  0  0  0
 33 34  1  0  0  0
 34 35  1  0  0  0
 35 36  2  0  0  0
 13  5  1  0  0  0
 21 17  1  0  0  0
 27 23  1  0  0  0
 36 28  1  0  0  0
 12  7  1  0  0  0
 35 31  1  0  0  0
  3  4  1  0  0  0
 13 14  1  0  0  0
 21 22  1  0  0  0
M  END
> <minimizedAffinity>
-9.18956

> <CNNscore>
0.6003471017

> <CNNaffinity>
7.3771524429

> <CNN_VS>
4.4288520813

> <CNNaffinity_variance>
0.1055869460

$$$$
[H]c1sc(-c2c([H])c([H])c3c(c2[H])C([H])([H])C([H])([H])O3)nc1C(=O)N([H])c1nc2c([H])c(C(=O)c3c([H])c([H])c([H])n3[H])c([H])c([H])c2n1[H]


 36 41  0  0  0  0  0  0  0  0999 V2000
  -83.2301   33.6495   -0.4211 O   0  0  0  0  0  0  0  0  0  0  0  0
  -84.3468   33.0184   -0.8021 C   0  0  0  0  0  0  0  0  0  0  0  0
  -85.0403   33.6601   -1.7706 N   0  0  0  0  0  0  0  0  0  0  0  0
  -84.5147   34.6068   -2.0983 H   0  0  0  0  0  0  0  0  0  0  0  0
  -86.2910   33.5730   -2.3636 C   0  0  0  0  0  0  0  0  0  0  0  0
  -87.0021   34.6847   -2.7839 N   0  0  0  0  0  0  0  0  0  0  0  0
  -88.1974   34.3555   -3.2477 C   0  0  0  0  0  0  0  0  0  0  0  0
  -89.2700   35.0431   -3.7867 C   0  0  0  0  0  0  0  0  0  0  0  0
  -90.3855   34.3587   -4.1890 C   0  0  0  0  0  0  0  0  0  0  0  0
  -90.4515   32.9892   -4.0615 C   0  0  0  0  0  0  0  0  0  0  0  0
  -89.4061   32.3067   -3.5348 C   0  0  0  0  0  0  0  0  0  0  0  0
  -88.2729   32.9879   -3.1259 C   0  0  0  0  0  0  0  0  0  0  0  0
  -87.1005   32.5594   -2.5872 N   0  0  0  0  0  0  0  0  0  0  0  0
  -86.9675   31.5266   -2.3903 H   0  0  0  0  0  0  0  0  0  0  0  0
  -91.5176   35.0404   -4.7672 C   0  0  0  0  0  0  0  0  0  0  0  0
  -92.1149   34.5174   -5.7366 O   0  0  0  0  0  0  0  0  0  0  0  0
  -91.9804   36.3096   -4.2599 C   0  0  0  0  0  0  0  0  0  0  0  0
  -91.5188   37.5769   -4.4204 C   0  0  0  0  0  0  0  0  0  0  0  0
  -92.3132   38.4734   -3.7339 C   0  0  0  0  0  0  0  0  0  0  0  0
  -93.2929   37.6835   -3.1407 C   0  0  0  0  0  0  0  0  0  0  0  0
  -93.0771   36.4146   -3.4639 N   0  0  0  0  0  0  0  0  0  0  0  0
  -93.6974   35.6256   -3.1273 H   0  0  0  0  0  0  0  0  0  0  0  0
  -84.5618   31.7591   -0.0791 C   0  0  0  0  0  0  0  0  0  0  0  0
  -83.5731   31.1583    0.6669 C   0  0  0  0  0  0  0  0  0  0  0  0
  -84.3601   29.7700    1.2645 S   0  0  0  0  0  0  0  0  0  0  0  0
  -85.9062   30.0317    0.5304 C   0  0  0  0  0  0  0  0  0  0  0  0
  -85.7146   31.1423   -0.1091 N   0  0  0  0  0  0  0  0  0  0  0  0
  -87.0967   29.1806    0.6736 C   0  0  0  0  0  0  0  0  0  0  0  0
  -88.1910   29.4111   -0.1291 C   0  0  0  0  0  0  0  0  0  0  0  0
  -89.3229   28.5965   -0.0264 C   0  0  0  0  0  0  0  0  0  0  0  0
  -89.3360   27.5604    0.8845 C   0  0  0  0  0  0  0  0  0  0  0  0
  -90.3107   26.6026    1.1977 O   0  0  0  0  0  0  0  0  0  0  0  0
  -89.6939   25.5801    1.9619 C   0  0  0  0  0  0  0  0  0  0  0  0
  -88.4690   26.1838    2.5932 C   0  0  0  0  0  0  0  0  0  0  0  0
  -88.2219   27.3489    1.6825 C   0  0  0  0  0  0  0  0  0  0  0  0
  -87.1002   28.1731    1.5659 C   0  0  0  0  0  0  0  0  0  0  0  0
  1  2  2  0  0  0
  2  3  1  0  0  0
  3  5  1  0  0  0
  5  6  2  0  0  0
  6  7  1  0  0  0
  7  8  2  0  0  0
  8  9  1  0  0  0
  9 10  2  0  0  0
 10 11  1  0  0  0
 11 12  2  0  0  0
 12 13  1  0  0  0
  9 15  1  0  0  0
 15 16  2  0  0  0
 15 17  1  0  0  0
 17 18  2  0  0  0
 18 19  1  0  0  0
 19 20  2  0  0  0
 20 21  1  0  0  0
  2 23  1  0  0  0
 23 24  2  0  0  0
 24 25  1  0  0  0
 25 26  1  0  0  0
 26 27  2  0  0  0
 26 28  1  0  0  0
 28 29  2  0  0  0
 29 30  1  0  0  0
 30 31  2  0  0  0
 31 32  1  0  0  0
 32 33  1  0  0  0
 33 34  1  0  0  0
 34 35  1  0  0  0
 35 36  2  0  0  0
 13  5  1  0  0  0
 21 17  1  0  0  0
 27 23  1  0  0  0
 36 28  1  0  0  0
 12  7  1  0  0  0
 35 31  1  0  0  0
  3  4  1  0  0  0
 13 14  1  0  0  0
 21 22  1  0  0  0
M  END
> <minimizedAffinity>
-8.60965

> <CNNscore>
0.5579668283

> <CNNaffinity>
7.2587838173

> <CNN_VS>
4.0501604080

> <CNNaffinity_variance>
0.2464734316

$$$$
[H]c1sc(-c2c([H])c([H])c3c(c2[H])C([H])([H])C([H])([H])O3)nc1C(=O)N([H])c1nc2c([H])c(C(=O)c3c([H])c([H])c([H])n3[H])c([H])c([H])c2n1[H]


 36 41  0  0  0  0  0  0  0  0999 V2000
  -83.3248   33.7296   -0.4969 O   0  0  0  0  0  0  0  0  0  0  0  0
  -84.4030   33.0392   -0.8857 C   0  0  0  0  0  0  0  0  0  0  0  0
  -85.0837   33.6079   -1.9074 N   0  0  0  0  0  0  0  0  0  0  0  0
  -84.5814   34.5578   -2.2617 H   0  0  0  0  0  0  0  0  0  0  0  0
  -86.3080   33.4455   -2.5385 C   0  0  0  0  0  0  0  0  0  0  0  0
  -86.9483   34.4728   -3.2114 N   0  0  0  0  0  0  0  0  0  0  0  0
  -88.1341   34.0976   -3.6647 C   0  0  0  0  0  0  0  0  0  0  0  0
  -89.1486   34.6982   -4.3885 C   0  0  0  0  0  0  0  0  0  0  0  0
  -90.2734   33.9851   -4.7060 C   0  0  0  0  0  0  0  0  0  0  0  0
  -90.4063   32.6729   -4.3106 C   0  0  0  0  0  0  0  0  0  0  0  0
  -89.4181   32.0758   -3.6012 C   0  0  0  0  0  0  0  0  0  0  0  0
  -88.2760   32.7864   -3.2757 C   0  0  0  0  0  0  0  0  0  0  0  0
  -87.1504   32.4359   -2.5985 N   0  0  0  0  0  0  0  0  0  0  0  0
  -87.0730   31.4604   -2.1918 H   0  0  0  0  0  0  0  0  0  0  0  0
  -91.3457   34.5740   -5.4703 C   0  0  0  0  0  0  0  0  0  0  0  0
  -92.2925   35.1291   -4.8659 O   0  0  0  0  0  0  0  0  0  0  0  0
  -91.3579   34.5403   -6.9130 C   0  0  0  0  0  0  0  0  0  0  0  0
  -90.7285   35.3003   -7.8465 C   0  0  0  0  0  0  0  0  0  0  0  0
  -91.0532   34.8737   -9.1187 C   0  0  0  0  0  0  0  0  0  0  0  0
  -91.9200   33.8049   -8.9144 C   0  0  0  0  0  0  0  0  0  0  0  0
  -92.0846   33.6271   -7.6097 N   0  0  0  0  0  0  0  0  0  0  0  0
  -92.7042   32.8676   -7.2099 H   0  0  0  0  0  0  0  0  0  0  0  0
  -84.5981   31.8077   -0.1109 C   0  0  0  0  0  0  0  0  0  0  0  0
  -83.6047   31.2622    0.6705 C   0  0  0  0  0  0  0  0  0  0  0  0
  -84.3673   29.8835    1.3197 S   0  0  0  0  0  0  0  0  0  0  0  0
  -85.9105   30.0782    0.5592 C   0  0  0  0  0  0  0  0  0  0  0  0
  -85.7365   31.1642   -0.1259 N   0  0  0  0  0  0  0  0  0  0  0  0
  -87.0834   29.2072    0.7271 C   0  0  0  0  0  0  0  0  0  0  0  0
  -88.1817   29.3917   -0.0821 C   0  0  0  0  0  0  0  0  0  0  0  0
  -89.2966   28.5573    0.0441 C   0  0  0  0  0  0  0  0  0  0  0  0
  -89.2890   27.5481    0.9848 C   0  0  0  0  0  0  0  0  0  0  0  0
  -90.2440   26.5800    1.3257 O   0  0  0  0  0  0  0  0  0  0  0  0
  -89.6069   25.5932    2.1194 C   0  0  0  0  0  0  0  0  0  0  0  0
  -88.3951   26.2401    2.7331 C   0  0  0  0  0  0  0  0  0  0  0  0
  -88.1714   27.3830    1.7888 C   0  0  0  0  0  0  0  0  0  0  0  0
  -87.0668   28.2264    1.6483 C   0  0  0  0  0  0  0  0  0  0  0  0
  1  2  2  0  0  0
  2  3  1  0  0  0
  3  5  1  0  0  0
  5  6  2  0  0  0
  6  7  1  0  0  0
  7  8  2  0  0  0
  8  9  1  0  0  0
  9 10  2  0  0  0
 10 11  1  0  0  0
 11 12  2  0  0  0
 12 13  1  0  0  0
  9 15  1  0  0  0
 15 16  2  0  0  0
 15 17  1  0  0  0
 17 18  2  0  0  0
 18 19  1  0  0  0
 19 20  2  0  0  0
 20 21  1  0  0  0
  2 23  1  0  0  0
 23 24  2  0  0  0
 24 25  1  0  0  0
 25 26  1  0  0  0
 26 27  2  0  0  0
 26 28  1  0  0  0
 28 29  2  0  0  0
 29 30  1  0  0  0
 30 31  2  0  0  0
 31 32  1  0  0  0
 32 33  1  0  0  0
 33 34  1  0  0  0
 34 35  1  0  0  0
 35 36  2  0  0  0
 13  5  1  0  0  0
 21 17  1  0  0  0
 27 23  1  0  0  0
 36 28  1  0  0  0
 12  7  1  0  0  0
 35 31  1  0  0  0
  3  4  1  0  0  0
 13 14  1  0  0  0
 21 22  1  0  0  0
M  END
> <minimizedAffinity>
-8.73204

> <CNNscore>
0.5376095176

> <CNNaffinity>
7.1019515991

> <CNN_VS>
3.8180768490

> <CNNaffinity_variance>
0.0957939178

$$$$
[H]c1sc(-c2c([H])c([H])c3c(c2[H])C([H])([H])C([H])([H])O3)nc1C(=O)N([H])c1nc2c([H])c(C(=O)c3c([H])c([H])c([H])n3[H])c([H])c([H])c2n1[H]


 36 41  0  0  0  0  0  0  0  0999 V2000
  -83.1489   32.6068    1.0220 O   0  0  0  0  0  0  0  0  0  0  0  0
  -84.2408   32.1952    0.3671 C   0  0  0  0  0  0  0  0  0  0  0  0
  -84.5751   32.9703   -0.6903 N   0  0  0  0  0  0  0  0  0  0  0  0
  -83.8345   33.8130   -0.8367 H   0  0  0  0  0  0  0  0  0  0  0  0
  -85.6540   33.1220   -1.5486 C   0  0  0  0  0  0  0  0  0  0  0  0
  -86.8859   32.5329   -1.3180 N   0  0  0  0  0  0  0  0  0  0  0  0
  -87.7311   32.7590   -2.3113 C   0  0  0  0  0  0  0  0  0  0  0  0
  -89.0470   32.4282   -2.5816 C   0  0  0  0  0  0  0  0  0  0  0  0
  -89.6325   32.8561   -3.7428 C   0  0  0  0  0  0  0  0  0  0  0  0
  -88.9231   33.6137   -4.6477 C   0  0  0  0  0  0  0  0  0  0  0  0
  -87.6338   33.9430   -4.3921 C   0  0  0  0  0  0  0  0  0  0  0  0
  -87.0319   33.5171   -3.2208 C   0  0  0  0  0  0  0  0  0  0  0  0
  -85.7833   33.7106   -2.7189 N   0  0  0  0  0  0  0  0  0  0  0  0
  -85.0755   34.2576   -3.2869 H   0  0  0  0  0  0  0  0  0  0  0  0
  -91.0058   32.5416   -4.0522 C   0  0  0  0  0  0  0  0  0  0  0  0
  -91.5075   31.4870   -3.5983 O   0  0  0  0  0  0  0  0  0  0  0  0
  -91.8177   33.4087   -4.8717 C   0  0  0  0  0  0  0  0  0  0  0  0
  -92.2131   33.3275   -6.1686 C   0  0  0  0  0  0  0  0  0  0  0  0
  -93.0006   34.4105   -6.5047 C   0  0  0  0  0  0  0  0  0  0  0  0
  -93.0679   35.1645   -5.3374 C   0  0  0  0  0  0  0  0  0  0  0  0
  -92.3649   34.5561   -4.3904 N   0  0  0  0  0  0  0  0  0  0  0  0
  -92.2699   34.9445   -3.4103 H   0  0  0  0  0  0  0  0  0  0  0  0
  -84.8272   30.9815    0.9482 C   0  0  0  0  0  0  0  0  0  0  0  0
  -84.6502   30.6357    2.2689 C   0  0  0  0  0  0  0  0  0  0  0  0
  -85.5288   29.1802    2.3855 S   0  0  0  0  0  0  0  0  0  0  0  0
  -86.0733   29.0924    0.7443 C   0  0  0  0  0  0  0  0  0  0  0  0
  -85.5534   30.1631    0.2319 N   0  0  0  0  0  0  0  0  0  0  0  0
  -86.9351   28.0517    0.1641 C   0  0  0  0  0  0  0  0  0  0  0  0
  -86.9535   26.7977    0.7315 C   0  0  0  0  0  0  0  0  0  0  0  0
  -87.7857   25.8020    0.2106 C   0  0  0  0  0  0  0  0  0  0  0  0
  -88.5882   26.0843   -0.8755 C   0  0  0  0  0  0  0  0  0  0  0  0
  -89.5032   25.2998   -1.5915 O   0  0  0  0  0  0  0  0  0  0  0  0
  -90.2903   26.1635   -2.3942 C   0  0  0  0  0  0  0  0  0  0  0  0
  -89.4921   27.4228   -2.5954 C   0  0  0  0  0  0  0  0  0  0  0  0
  -88.5511   27.3547   -1.4301 C   0  0  0  0  0  0  0  0  0  0  0  0
  -87.7133   28.3367   -0.8962 C   0  0  0  0  0  0  0  0  0  0  0  0
  1  2  2  0  0  0
  2  3  1  0  0  0
  3  5  1  0  0  0
  5  6  2  0  0  0
  6  7  1  0  0  0
  7  8  2  0  0  0
  8  9  1  0  0  0
  9 10  2  0  0  0
 10 11  1  0  0  0
 11 12  2  0  0  0
 12 13  1  0  0  0
  9 15  1  0  0  0
 15 16  2  0  0  0
 15 17  1  0  0  0
 17 18  2  0  0  0
 18 19  1  0  0  0
 19 20  2  0  0  0
 20 21  1  0  0  0
  2 23  1  0  0  0
 23 24  2  0  0  0
 24 25  1  0  0  0
 25 26  1  0  0  0
 26 27  2  0  0  0
 26 28  1  0  0  0
 28 29  2  0  0  0
 29 30  1  0  0  0
 30 31  2  0  0  0
 31 32  1  0  0  0
 32 33  1  0  0  0
 33 34  1  0  0  0
 34 35  1  0  0  0
 35 36  2  0  0  0
 13  5  1  0  0  0
 21 17  1  0  0  0
 27 23  1  0  0  0
 36 28  1  0  0  0
 12  7  1  0  0  0
 35 31  1  0  0  0
  3  4  1  0  0  0
 13 14  1  0  0  0
 21 22  1  0  0  0
M  END
> <minimizedAffinity>
-8.30213

> <CNNscore>
0.2588031292

> <CNNaffinity>
6.9137778282

> <CNN_VS>
1.7893073559

> <CNNaffinity_variance>
0.1741404831

$$$$
[H]c1sc(-c2c([H])c([H])c3c(c2[H])C([H])([H])C([H])([H])O3)nc1C(=O)N([H])c1nc2c([H])c(C(=O)c3c([H])c([H])c([H])n3[H])c([H])c([H])c2n1[H]


 36 41  0  0  0  0  0  0  0  0999 V2000
  -83.7192   27.0609    2.9243 O   0  0  0  0  0  0  0  0  0  0  0  0
  -84.6847   27.5672    2.1484 C   0  0  0  0  0  0  0  0  0  0  0  0
  -85.7420   26.7413    1.9732 N   0  0  0  0  0  0  0  0  0  0  0  0
  -85.6159   25.7783    2.5535 H   0  0  0  0  0  0  0  0  0  0  0  0
  -86.8622   26.6703    1.1586 C   0  0  0  0  0  0  0  0  0  0  0  0
  -87.7723   27.7074    1.0409 N   0  0  0  0  0  0  0  0  0  0  0  0
  -88.7942   27.3774    0.2668 C   0  0  0  0  0  0  0  0  0  0  0  0
  -89.9370   28.0143   -0.1830 C   0  0  0  0  0  0  0  0  0  0  0  0
  -90.8022   27.3549   -1.0143 C   0  0  0  0  0  0  0  0  0  0  0  0
  -90.5467   26.0603   -1.4077 C   0  0  0  0  0  0  0  0  0  0  0  0
  -89.4301   25.4279   -0.9724 C   0  0  0  0  0  0  0  0  0  0  0  0
  -88.5477   26.0851   -0.1329 C   0  0  0  0  0  0  0  0  0  0  0  0
  -87.3717   25.6995    0.4301 N   0  0  0  0  0  0  0  0  0  0  0  0
  -87.0138   24.7166    0.2606 H   0  0  0  0  0  0  0  0  0  0  0  0
  -91.9965   27.9913   -1.5136 C   0  0  0  0  0  0  0  0  0  0  0  0
  -92.2359   29.1782   -1.1913 O   0  0  0  0  0  0  0  0  0  0  0  0
  -92.9243   27.2972   -2.3739 C   0  0  0  0  0  0  0  0  0  0  0  0
  -92.9613   27.1236   -3.7206 C   0  0  0  0  0  0  0  0  0  0  0  0
  -94.0579   26.3670   -4.0824 C   0  0  0  0  0  0  0  0  0  0  0  0
  -94.6950   26.0837   -2.8785 C   0  0  0  0  0  0  0  0  0  0  0  0
  -94.0106   26.6409   -1.8874 N   0  0  0  0  0  0  0  0  0  0  0  0
  -94.3046   26.5604   -0.8737 H   0  0  0  0  0  0  0  0  0  0  0  0
  -84.3747   28.9185    1.6659 C   0  0  0  0  0  0  0  0  0  0  0  0
  -83.1491   29.5115    1.8689 C   0  0  0  0  0  0  0  0  0  0  0  0
  -83.3487   31.0276    1.1167 S   0  0  0  0  0  0  0  0  0  0  0  0
  -84.9835   30.8221    0.5850 C   0  0  0  0  0  0  0  0  0  0  0  0
  -85.2567   29.6300    1.0132 N   0  0  0  0  0  0  0  0  0  0  0  0
  -85.7803   31.7895   -0.1843 C   0  0  0  0  0  0  0  0  0  0  0  0
  -85.1803   32.9367   -0.6521 C   0  0  0  0  0  0  0  0  0  0  0  0
  -85.9141   33.8564   -1.4077 C   0  0  0  0  0  0  0  0  0  0  0  0
  -87.2431   33.6068   -1.6814 C   0  0  0  0  0  0  0  0  0  0  0  0
  -88.2027   34.3340   -2.3995 O   0  0  0  0  0  0  0  0  0  0  0  0
  -89.3049   33.4789   -2.6521 C   0  0  0  0  0  0  0  0  0  0  0  0
  -89.2660   32.3947   -1.6098 C   0  0  0  0  0  0  0  0  0  0  0  0
  -87.8251   32.4447   -1.1982 C   0  0  0  0  0  0  0  0  0  0  0  0
  -87.0762   31.5374   -0.4450 C   0  0  0  0  0  0  0  0  0  0  0  0
  1  2  2  0  0  0
  2  3  1  0  0  0
  3  5  1  0  0  0
  5  6  2  0  0  0
  6  7  1  0  0  0
  7  8  2  0  0  0
  8  9  1  0  0  0
  9 10  2  0  0  0
 10 11  1  0  0  0
 11 12  2  0  0  0
 12 13  1  0  0  0
  9 15  1  0  0  0
 15 16  2  0  0  0
 15 17  1  0  0  0
 17 18  2  0  0  0
 18 19  1  0  0  0
 19 20  2  0  0  0
 20 21  1  0  0  0
  2 23  1  0  0  0
 23 24  2  0  0  0
 24 25  1  0  0  0
 25 26  1  0  0  0
 26 27  2  0  0  0
 26 28  1  0  0  0
 28 29  2  0  0  0
 29 30  1  0  0  0
 30 31  2  0  0  0
 31 32  1  0  0  0
 32 33  1  0  0  0
 33 34  1  0  0  0
 34 35  1  0  0  0
 35 36  2  0  0  0
 13  5  1  0  0  0
 21 17  1  0  0  0
 27 23  1  0  0  0
 36 28  1  0  0  0
 12  7  1  0  0  0
 35 31  1  0  0  0
  3  4  1  0  0  0
 13 14  1  0  0  0
 21 22  1  0  0  0
M  END
> <minimizedAffinity>
-9.52953

> <CNNscore>
0.2410495579

> <CNNaffinity>
6.9809160233

> <CNN_VS>
1.6827467680

> <CNNaffinity_variance>
0.0627064332

$$$$
[H]c1sc(-c2c([H])c([H])c3c(c2[H])C([H])([H])C([H])([H])O3)nc1C(=O)N([H])c1nc2c([H])c(C(=O)c3c([H])c([H])c([H])n3[H])c([H])c([H])c2n1[H]


 36 41  0  0  0  0  0  0  0  0999 V2000
  -83.6768   26.9797    2.7852 O   0  0  0  0  0  0  0  0  0  0  0  0
  -84.6987   27.5708    2.1552 C   0  0  0  0  0  0  0  0  0  0  0  0
  -85.8051   26.7987    2.0531 N   0  0  0  0  0  0  0  0  0  0  0  0
  -85.6588   25.7966    2.5577 H   0  0  0  0  0  0  0  0  0  0  0  0
  -87.0109   26.8223    1.3684 C   0  0  0  0  0  0  0  0  0  0  0  0
  -87.1742   26.2564    0.1150 N   0  0  0  0  0  0  0  0  0  0  0  0
  -88.3889   26.4712   -0.3655 C   0  0  0  0  0  0  0  0  0  0  0  0
  -89.0664   26.1309   -1.5226 C   0  0  0  0  0  0  0  0  0  0  0  0
  -90.3675   26.5225   -1.6906 C   0  0  0  0  0  0  0  0  0  0  0  0
  -91.0104   27.2545   -0.7175 C   0  0  0  0  0  0  0  0  0  0  0  0
  -90.3552   27.5929    0.4193 C   0  0  0  0  0  0  0  0  0  0  0  0
  -89.0403   27.2013    0.6007 C   0  0  0  0  0  0  0  0  0  0  0  0
  -88.1699   27.3900    1.6279 N   0  0  0  0  0  0  0  0  0  0  0  0
  -88.4767   27.9556    2.4698 H   0  0  0  0  0  0  0  0  0  0  0  0
  -91.1096   26.1750   -2.8777 C   0  0  0  0  0  0  0  0  0  0  0  0
  -91.1048   26.9621   -3.8526 O   0  0  0  0  0  0  0  0  0  0  0  0
  -91.8584   24.9451   -2.9728 C   0  0  0  0  0  0  0  0  0  0  0  0
  -91.6411   23.7054   -2.4620 C   0  0  0  0  0  0  0  0  0  0  0  0
  -92.6574   22.8451   -2.8266 C   0  0  0  0  0  0  0  0  0  0  0  0
  -93.5152   23.6283   -3.5925 C   0  0  0  0  0  0  0  0  0  0  0  0
  -93.0251   24.8594   -3.6649 N   0  0  0  0  0  0  0  0  0  0  0  0
  -93.5078   25.6365   -4.1976 H   0  0  0  0  0  0  0  0  0  0  0  0
  -84.3836   28.9371    1.7208 C   0  0  0  0  0  0  0  0  0  0  0  0
  -83.1877   29.5495    2.0205 C   0  0  0  0  0  0  0  0  0  0  0  0
  -83.3654   31.0761    1.2844 S   0  0  0  0  0  0  0  0  0  0  0  0
  -84.9545   30.8499    0.6353 C   0  0  0  0  0  0  0  0  0  0  0  0
  -85.2323   29.6444    1.0210 N   0  0  0  0  0  0  0  0  0  0  0  0
  -85.7152   31.8169   -0.1700 C   0  0  0  0  0  0  0  0  0  0  0  0
  -85.0568   32.8777   -0.7496 C   0  0  0  0  0  0  0  0  0  0  0  0
  -85.7576   33.7936   -1.5404 C   0  0  0  0  0  0  0  0  0  0  0  0
  -87.1131   33.6272   -1.7361 C   0  0  0  0  0  0  0  0  0  0  0  0
  -88.0512   34.3715   -2.4651 O   0  0  0  0  0  0  0  0  0  0  0  0
  -89.2240   33.5872   -2.6036 C   0  0  0  0  0  0  0  0  0  0  0  0
  -89.2132   32.5818   -1.4843 C   0  0  0  0  0  0  0  0  0  0  0  0
  -87.7541   32.5512   -1.1409 C   0  0  0  0  0  0  0  0  0  0  0  0
  -87.0374   31.6465   -0.3541 C   0  0  0  0  0  0  0  0  0  0  0  0
  1  2  2  0  0  0
  2  3  1  0  0  0
  3  5  1  0  0  0
  5  6  2  0  0  0
  6  7  1  0  0  0
  7  8  2  0  0  0
  8  9  1  0  0  0
  9 10  2  0  0  0
 10 11  1  0  0  0
 11 12  2  0  0  0
 12 13  1  0  0  0
  9 15  1  0  0  0
 15 16  2  0  0  0
 15 17  1  0  0  0
 17 18  2  0  0  0
 18 19  1  0  0  0
 19 20  2  0  0  0
 20 21  1  0  0  0
  2 23  1  0  0  0
 23 24  2  0  0  0
 24 25  1  0  0  0
 25 26  1  0  0  0
 26 27  2  0  0  0
 26 28  1  0  0  0
 28 29  2  0  0  0
 29 30  1  0  0  0
 30 31  2  0  0  0
 31 32  1  0  0  0
 32 33  1  0  0  0
 33 34  1  0  0  0
 34 35  1  0  0  0
 35 36  2  0  0  0
 13  5  1  0  0  0
 21 17  1  0  0  0
 27 23  1  0  0  0
 36 28  1  0  0  0
 12  7  1  0  0  0
 35 31  1  0  0  0
  3  4  1  0  0  0
 13 14  1  0  0  0
 21 22  1  0  0  0
M  END
> <minimizedAffinity>
-9.79617

> <CNNscore>
0.2000742555

> <CNNaffinity>
6.7790718079

> <CNN_VS>
1.3563177586

> <CNNaffinity_variance>
0.0786175802

$$$$
[H]c1sc(-c2c([H])c([H])c3c(c2[H])C([H])([H])C([H])([H])O3)nc1C(=O)N([H])c1nc2c([H])c(C(=O)c3c([H])c([H])c([H])n3[H])c([H])c([H])c2n1[H]


 36 41  0  0  0  0  0  0  0  0999 V2000
  -87.7227   35.0944   -2.6038 O   0  0  0  0  0  0  0  0  0  0  0  0
  -87.8022   33.8488   -2.1213 C   0  0  0  0  0  0  0  0  0  0  0  0
  -89.0105   33.2654   -2.2957 N   0  0  0  0  0  0  0  0  0  0  0  0
  -89.7218   33.9452   -2.8543 H   0  0  0  0  0  0  0  0  0  0  0  0
  -89.6768   32.1355   -1.8455 C   0  0  0  0  0  0  0  0  0  0  0  0
  -89.2359   31.3817   -0.7706 N   0  0  0  0  0  0  0  0  0  0  0  0
  -89.9923   30.3126   -0.5784 C   0  0  0  0  0  0  0  0  0  0  0  0
  -90.0103   29.2667    0.3270 C   0  0  0  0  0  0  0  0  0  0  0  0
  -90.9802   28.3047    0.2377 C   0  0  0  0  0  0  0  0  0  0  0  0
  -91.9404   28.3667   -0.7473 C   0  0  0  0  0  0  0  0  0  0  0  0
  -91.9313   29.3871   -1.6388 C   0  0  0  0  0  0  0  0  0  0  0  0
  -90.9564   30.3660   -1.5574 C   0  0  0  0  0  0  0  0  0  0  0  0
  -90.7259   31.4822   -2.2986 N   0  0  0  0  0  0  0  0  0  0  0  0
  -91.3533   31.6933   -3.1262 H   0  0  0  0  0  0  0  0  0  0  0  0
  -91.0382   27.2070    1.1718 C   0  0  0  0  0  0  0  0  0  0  0  0
  -91.3366   27.4376    2.3667 O   0  0  0  0  0  0  0  0  0  0  0  0
  -90.7607   25.8498    0.7674 C   0  0  0  0  0  0  0  0  0  0  0  0
  -91.0315   24.6531    1.3501 C   0  0  0  0  0  0  0  0  0  0  0  0
  -90.5675   23.6156    0.5663 C   0  0  0  0  0  0  0  0  0  0  0  0
  -89.9946   24.2437   -0.5350 C   0  0  0  0  0  0  0  0  0  0  0  0
  -90.1200   25.5574   -0.3951 N   0  0  0  0  0  0  0  0  0  0  0  0
  -89.7576   26.2459   -1.1129 H   0  0  0  0  0  0  0  0  0  0  0  0
  -86.5458   33.3946   -1.5131 C   0  0  0  0  0  0  0  0  0  0  0  0
  -85.3562   34.0649   -1.6886 C   0  0  0  0  0  0  0  0  0  0  0  0
  -84.2673   33.1185   -0.7816 S   0  0  0  0  0  0  0  0  0  0  0  0
  -85.3883   31.9204   -0.2287 C   0  0  0  0  0  0  0  0  0  0  0  0
  -86.4964   32.3212   -0.7677 N   0  0  0  0  0  0  0  0  0  0  0  0
  -85.0878   30.7849    0.6562 C   0  0  0  0  0  0  0  0  0  0  0  0
  -86.1247   30.0604    1.1992 C   0  0  0  0  0  0  0  0  0  0  0  0
  -85.8597   28.9613    2.0220 C   0  0  0  0  0  0  0  0  0  0  0  0
  -84.5526   28.6077    2.2862 C   0  0  0  0  0  0  0  0  0  0  0  0
  -84.0005   27.5751    3.0571 O   0  0  0  0  0  0  0  0  0  0  0  0
  -82.6267   27.4638    2.7252 C   0  0  0  0  0  0  0  0  0  0  0  0
  -82.2039   28.7924    2.1597 C   0  0  0  0  0  0  0  0  0  0  0  0
  -83.5255   29.3537    1.7283 C   0  0  0  0  0  0  0  0  0  0  0  0
  -83.8095   30.4486    0.9086 C   0  0  0  0  0  0  0  0  0  0  0  0
  1  2  2  0  0  0
  2  3  1  0  0  0
  3  5  1  0  0  0
  5  6  2  0  0  0
  6  7  1  0  0  0
  7  8  2  0  0  0
  8  9  1  0  0  0
  9 10  2  0  0  0
 10 11  1  0  0  0
 11 12  2  0  0  0
 12 13  1  0  0  0
  9 15  1  0  0  0
 15 16  2  0  0  0
 15 17  1  0  0  0
 17 18  2  0  0  0
 18 19  1  0  0  0
 19 20  2  0  0  0
 20 21  1  0  0  0
  2 23  1  0  0  0
 23 24  2  0  0  0
 24 25  1  0  0  0
 25 26  1  0  0  0
 26 27  2  0  0  0
 26 28  1  0  0  0
 28 29  2  0  0  0
 29 30  1  0  0  0
 30 31  2  0  0  0
 31 32  1  0  0  0
 32 33  1  0  0  0
 33 34  1  0  0  0
 34 35  1  0  0  0
 35 36  2  0  0  0
 13  5  1  0  0  0
 21 17  1  0  0  0
 27 23  1  0  0  0
 36 28  1  0  0  0
 12  7  1  0  0  0
 35 31  1  0  0  0
  3  4  1  0  0  0
 13 14  1  0  0  0
 21 22  1  0  0  0
M  END
> <minimizedAffinity>
-8.76558

> <CNNscore>
0.1955624223

> <CNNaffinity>
6.7976088524

> <CNN_VS>
1.3293569088

> <CNNaffinity_variance>
0.2047071457

$$$$
[H]N=C(OC([H])([H])[H])c1nc2c([H])c([H])c3nc([H])nc(N([H])c4c([H])c([H])c([H])c([H])c4[H])c3c2s1


 26 29  0  0  0  0  0  0  0  0999 V2000
  -86.2217   33.2071   -1.6775 C   0  0  0  0  0  0  0  0  0  0  0  0
  -84.9513   33.3459   -1.3783 N   0  0  0  0  0  0  0  0  0  0  0  0
  -84.3621   32.5007   -0.5878 C   0  0  0  0  0  0  0  0  0  0  0  0
  -83.0155   32.5329   -0.1974 C   0  0  0  0  0  0  0  0  0  0  0  0
  -82.4994   31.5928    0.6296 C   0  0  0  0  0  0  0  0  0  0  0  0
  -83.2475   30.5608    1.1345 C   0  0  0  0  0  0  0  0  0  0  0  0
  -82.7585   29.6290    1.9365 N   0  0  0  0  0  0  0  0  0  0  0  0
  -83.5540   28.6425    2.3843 C   0  0  0  0  0  0  0  0  0  0  0  0
  -84.8246   28.5793    2.0411 N   0  0  0  0  0  0  0  0  0  0  0  0
  -85.4100   29.4962    1.2206 C   0  0  0  0  0  0  0  0  0  0  0  0
  -84.5975   30.4964    0.7669 C   0  0  0  0  0  0  0  0  0  0  0  0
  -85.1135   31.4648   -0.0809 C   0  0  0  0  0  0  0  0  0  0  0  0
  -86.6242   31.8043   -0.7988 S   0  0  0  0  0  0  0  0  0  0  0  0
  -87.0801   34.0393   -2.5416 C   0  0  0  0  0  0  0  0  0  0  0  0
  -86.5347   34.6131   -3.5341 N   0  0  0  0  0  0  0  0  0  0  0  0
  -85.5323   34.5320   -3.7708 H   0  0  0  0  0  0  0  0  0  0  0  0
  -89.3211   34.7236   -3.2795 C   0  0  0  0  0  0  0  0  0  0  0  0
  -88.4227   34.1984   -2.2951 O   0  0  0  0  0  0  0  0  0  0  0  0
  -86.7708   29.4252    0.9383 N   0  0  0  0  0  0  0  0  0  0  0  0
  -87.4058   30.2079    0.9051 H   0  0  0  0  0  0  0  0  0  0  0  0
  -87.3747   28.1400    0.6862 C   0  0  0  0  0  0  0  0  0  0  0  0
  -88.0585   27.4172    1.6156 C   0  0  0  0  0  0  0  0  0  0  0  0
  -88.6495   26.1871    1.2931 C   0  0  0  0  0  0  0  0  0  0  0  0
  -88.5554   25.6769    0.0365 C   0  0  0  0  0  0  0  0  0  0  0  0
  -87.8747   26.3787   -0.9166 C   0  0  0  0  0  0  0  0  0  0  0  0
  -87.2939   27.5896   -0.5981 C   0  0  0  0  0  0  0  0  0  0  0  0
 17 18  1  0  0  0
 18 14  1  0  0  0
 14 15  2  0  0  0
 14  1  1  0  0  0
  1  2  2  0  0  0
  2  3  1  0  0  0
  3  4  2  0  0  0
  4  5  1  0  0  0
  5  6  2  0  0  0
  6  7  1  0  0  0
  7  8  2  0  0  0
  8  9  1  0  0  0
  9 10  2  0  0  0
 10 19  1  0  0  0
 19 21  1  0  0  0
 21 22  2  0  0  0
 22 23  1  0  0  0
 23 24  2  0  0  0
 24 25  1  0  0  0
 25 26  2  0  0  0
 10 11  1  0  0  0
 11 12  2  0  0  0
 12 13  1  0  0  0
 13  1  1  0  0  0
 12  3  1  0  0  0
 11  6  1  0  0  0
 26 21  1  0  0  0
 15 16  1  0  0  0
 19 20  1  0  0  0
M  END
> <minimizedAffinity>
-8.53037

> <CNNscore>
0.8903437853

> <CNNaffinity>
7.0622682571

> <CNN_VS>
6.2878465652

> <CNNaffinity_variance>
0.1336368769

$$$$
[H]N=C(OC([H])([H])[H])c1nc2c([H])c([H])c3nc([H])nc(N([H])c4c([H])c([H])c([H])c([H])c4[H])c3c2s1


 26 29  0  0  0  0  0  0  0  0999 V2000
  -86.5341   32.6293   -1.2113 C   0  0  0  0  0  0  0  0  0  0  0  0
  -85.3855   32.7776   -0.5937 N   0  0  0  0  0  0  0  0  0  0  0  0
  -84.8984   31.8197    0.1354 C   0  0  0  0  0  0  0  0  0  0  0  0
  -83.6847   31.8492    0.8373 C   0  0  0  0  0  0  0  0  0  0  0  0
  -83.2661   30.7866    1.5651 C   0  0  0  0  0  0  0  0  0  0  0  0
  -83.9903   29.6266    1.6642 C   0  0  0  0  0  0  0  0  0  0  0  0
  -83.5933   28.5759    2.3634 N   0  0  0  0  0  0  0  0  0  0  0  0
  -84.3557   27.4696    2.4057 C   0  0  0  0  0  0  0  0  0  0  0  0
  -85.5029   27.4045    1.7610 N   0  0  0  0  0  0  0  0  0  0  0  0
  -85.9875   28.4389    1.0181 C   0  0  0  0  0  0  0  0  0  0  0  0
  -85.2089   29.5607    0.9770 C   0  0  0  0  0  0  0  0  0  0  0  0
  -85.6258   30.6554    0.2349 C   0  0  0  0  0  0  0  0  0  0  0  0
  -86.9662   31.0487   -0.7456 S   0  0  0  0  0  0  0  0  0  0  0  0
  -87.2641   33.5739   -2.0778 C   0  0  0  0  0  0  0  0  0  0  0  0
  -86.5797   34.3039   -2.8592 N   0  0  0  0  0  0  0  0  0  0  0  0
  -85.5490   34.2754   -2.9237 H   0  0  0  0  0  0  0  0  0  0  0  0
  -89.4553   33.1596   -3.1083 C   0  0  0  0  0  0  0  0  0  0  0  0
  -88.6346   33.6729   -2.0524 O   0  0  0  0  0  0  0  0  0  0  0  0
  -87.2349   28.3476    0.4081 N   0  0  0  0  0  0  0  0  0  0  0  0
  -87.4112   28.4169   -0.5824 H   0  0  0  0  0  0  0  0  0  0  0  0
  -88.4092   28.1594    1.2239 C   0  0  0  0  0  0  0  0  0  0  0  0
  -88.4024   27.5872    2.4593 C   0  0  0  0  0  0  0  0  0  0  0  0
  -89.5784   27.4648    3.2132 C   0  0  0  0  0  0  0  0  0  0  0  0
  -90.7663   27.9154    2.7296 C   0  0  0  0  0  0  0  0  0  0  0  0
  -90.8045   28.4929    1.4930 C   0  0  0  0  0  0  0  0  0  0  0  0
  -89.6462   28.6133    0.7520 C   0  0  0  0  0  0  0  0  0  0  0  0
 17 18  1  0  0  0
 18 14  1  0  0  0
 14 15  2  0  0  0
 14  1  1  0  0  0
  1  2  2  0  0  0
  2  3  1  0  0  0
  3  4  2  0  0  0
  4  5  1  0  0  0
  5  6  2  0  0  0
  6  7  1  0  0  0
  7  8  2  0  0  0
  8  9  1  0  0  0
  9 10  2  0  0  0
 10 19  1  0  0  0
 19 21  1  0  0  0
 21 22  2  0  0  0
 22 23  1  0  0  0
 23 24  2  0  0  0
 24 25  1  0  0  0
 25 26  2  0  0  0
 10 11  1  0  0  0
 11 12  2  0  0  0
 12 13  1  0  0  0
 13  1  1  0  0  0
 12  3  1  0  0  0
 11  6  1  0  0  0
 26 21  1  0  0  0
 15 16  1  0  0  0
 19 20  1  0  0  0
M  END
> <minimizedAffinity>
-8.20628

> <CNNscore>
0.8837437034

> <CNNaffinity>
7.1257376671

> <CNN_VS>
6.2973256111

> <CNNaffinity_variance>
0.1059093848

$$$$
[H]N=C(OC([H])([H])[H])c1nc2c([H])c([H])c3nc([H])nc(N([H])c4c([H])c([H])c([H])c([H])c4[H])c3c2s1


 26 29  0  0  0  0  0  0  0  0999 V2000
  -86.9987   27.4361    1.7021 C   0  0  0  0  0  0  0  0  0  0  0  0
  -85.7286   27.4981    2.0271 N   0  0  0  0  0  0  0  0  0  0  0  0
  -85.0139   28.5338    1.7059 C   0  0  0  0  0  0  0  0  0  0  0  0
  -83.6558   28.7251    1.9988 C   0  0  0  0  0  0  0  0  0  0  0  0
  -83.0061   29.8517    1.6214 C   0  0  0  0  0  0  0  0  0  0  0  0
  -83.6226   30.8671    0.9368 C   0  0  0  0  0  0  0  0  0  0  0  0
  -83.0062   31.9780    0.5675 N   0  0  0  0  0  0  0  0  0  0  0  0
  -83.6815   32.9333   -0.0945 C   0  0  0  0  0  0  0  0  0  0  0  0
  -84.9576   32.7893   -0.3892 N   0  0  0  0  0  0  0  0  0  0  0  0
  -85.6694   31.6786   -0.0478 C   0  0  0  0  0  0  0  0  0  0  0  0
  -84.9793   30.7110    0.6259 C   0  0  0  0  0  0  0  0  0  0  0  0
  -85.6332   29.5529    1.0186 C   0  0  0  0  0  0  0  0  0  0  0  0
  -87.2135   28.9204    0.8943 S   0  0  0  0  0  0  0  0  0  0  0  0
  -87.9842   26.3695    1.9615 C   0  0  0  0  0  0  0  0  0  0  0  0
  -88.1782   25.5129    1.0447 N   0  0  0  0  0  0  0  0  0  0  0  0
  -87.6899   25.5187    0.1342 H   0  0  0  0  0  0  0  0  0  0  0  0
  -89.5328   27.3462    3.5993 C   0  0  0  0  0  0  0  0  0  0  0  0
  -88.6757   26.2916    3.1466 O   0  0  0  0  0  0  0  0  0  0  0  0
  -86.9983   31.5432   -0.4376 N   0  0  0  0  0  0  0  0  0  0  0  0
  -87.7826   31.4141    0.1830 H   0  0  0  0  0  0  0  0  0  0  0  0
  -87.3290   31.5607   -1.8413 C   0  0  0  0  0  0  0  0  0  0  0  0
  -87.2824   32.6714   -2.6274 C   0  0  0  0  0  0  0  0  0  0  0  0
  -87.5862   32.6106   -3.9951 C   0  0  0  0  0  0  0  0  0  0  0  0
  -87.9391   31.4348   -4.5789 C   0  0  0  0  0  0  0  0  0  0  0  0
  -87.9956   30.3042   -3.8156 C   0  0  0  0  0  0  0  0  0  0  0  0
  -87.6959   30.3651   -2.4696 C   0  0  0  0  0  0  0  0  0  0  0  0
 17 18  1  0  0  0
 18 14  1  0  0  0
 14 15  2  0  0  0
 14  1  1  0  0  0
  1  2  2  0  0  0
  2  3  1  0  0  0
  3  4  2  0  0  0
  4  5  1  0  0  0
  5  6  2  0  0  0
  6  7  1  0  0  0
  7  8  2  0  0  0
  8  9  1  0  0  0
  9 10  2  0  0  0
 10 19  1  0  0  0
 19 21  1  0  0  0
 21 22  2  0  0  0
 22 23  1  0  0  0
 23 24  2  0  0  0
 24 25  1  0  0  0
 25 26  2  0  0  0
 10 11  1  0  0  0
 11 12  2  0  0  0
 12 13  1  0  0  0
 13  1  1  0  0  0
 12  3  1  0  0  0
 11  6  1  0  0  0
 26 21  1  0  0  0
 15 16  1  0  0  0
 19 20  1  0  0  0
M  END
> <minimizedAffinity>
-8.70127

> <CNNscore>
0.5878376365

> <CNNaffinity>
6.6830458641

> <CNN_VS>
3.9285459518

> <CNNaffinity_variance>
0.1738491207

$$$$
[H]N=C(OC([H])([H])[H])c1nc2c([H])c([H])c3nc([H])nc(N([H])c4c([H])c([H])c([H])c([H])c4[H])c3c2s1


 26 29  0  0  0  0  0  0  0  0999 V2000
  -88.2123   33.2438   -2.4071 C   0  0  0  0  0  0  0  0  0  0  0  0
  -87.0803   33.6911   -1.9160 N   0  0  0  0  0  0  0  0  0  0  0  0
  -86.3384   32.9320   -1.1678 C   0  0  0  0  0  0  0  0  0  0  0  0
  -85.1102   33.2856   -0.5905 C   0  0  0  0  0  0  0  0  0  0  0  0
  -84.4119   32.4100    0.1708 C   0  0  0  0  0  0  0  0  0  0  0  0
  -84.8520   31.1368    0.4257 C   0  0  0  0  0  0  0  0  0  0  0  0
  -84.1795   30.2653    1.1598 N   0  0  0  0  0  0  0  0  0  0  0  0
  -84.6730   29.0308    1.3579 C   0  0  0  0  0  0  0  0  0  0  0  0
  -85.8241   28.6621    0.8335 N   0  0  0  0  0  0  0  0  0  0  0  0
  -86.5816   29.4949    0.0658 C   0  0  0  0  0  0  0  0  0  0  0  0
  -86.0757   30.7480   -0.1339 C   0  0  0  0  0  0  0  0  0  0  0  0
  -86.7806   31.6539   -0.9120 C   0  0  0  0  0  0  0  0  0  0  0  0
  -88.2470   31.6582   -1.7852 S   0  0  0  0  0  0  0  0  0  0  0  0
  -89.1982   33.9252   -3.2673 C   0  0  0  0  0  0  0  0  0  0  0  0
  -90.3457   33.3942   -3.3806 N   0  0  0  0  0  0  0  0  0  0  0  0
  -90.6280   32.5193   -2.9090 H   0  0  0  0  0  0  0  0  0  0  0  0
  -88.1561   35.1064   -5.1524 C   0  0  0  0  0  0  0  0  0  0  0  0
  -88.9012   35.0925   -3.9291 O   0  0  0  0  0  0  0  0  0  0  0  0
  -87.8216   29.0825   -0.4126 N   0  0  0  0  0  0  0  0  0  0  0  0
  -88.0984   29.0562   -1.3819 H   0  0  0  0  0  0  0  0  0  0  0  0
  -88.8386   28.6688    0.5226 C   0  0  0  0  0  0  0  0  0  0  0  0
  -88.6551   27.7294    1.4909 C   0  0  0  0  0  0  0  0  0  0  0  0
  -89.6794   27.3979    2.3894 C   0  0  0  0  0  0  0  0  0  0  0  0
  -90.8925   28.0074    2.3189 C   0  0  0  0  0  0  0  0  0  0  0  0
  -91.1065   28.9529    1.3574 C   0  0  0  0  0  0  0  0  0  0  0  0
  -90.0974   29.2786    0.4739 C   0  0  0  0  0  0  0  0  0  0  0  0
 17 18  1  0  0  0
 18 14  1  0  0  0
 14 15  2  0  0  0
 14  1  1  0  0  0
  1  2  2  0  0  0
  2  3  1  0  0  0
  3  4  2  0  0  0
  4  5  1  0  0  0
  5  6  2  0  0  0
  6  7  1  0  0  0
  7  8  2  0  0  0
  8  9  1  0  0  0
  9 10  2  0  0  0
 10 19  1  0  0  0
 19 21  1  0  0  0
 21 22  2  0  0  0
 22 23  1  0  0  0
 23 24  2  0  0  0
 24 25  1  0  0  0
 25 26  2  0  0  0
 10 11  1  0  0  0
 11 12  2  0  0  0
 12 13  1  0  0  0
 13  1  1  0  0  0
 12  3  1  0  0  0
 11  6  1  0  0  0
 26 21  1  0  0  0
 15 16  1  0  0  0
 19 20  1  0  0  0
M  END
> <minimizedAffinity>
-7.30716

> <CNNscore>
0.3876872957

> <CNNaffinity>
6.4323568344

> <CNN_VS>
2.4937429428

> <CNNaffinity_variance>
0.1829336137

$$$$
[H]N=C(OC([H])([H])[H])c1nc2c([H])c([H])c3nc([H])nc(N([H])c4c([H])c([H])c([H])c([H])c4[H])c3c2s1


 26 29  0  0  0  0  0  0  0  0999 V2000
  -87.5609   31.6664   -1.1736 C   0  0  0  0  0  0  0  0  0  0  0  0
  -86.4755   32.1602   -0.6252 N   0  0  0  0  0  0  0  0  0  0  0  0
  -85.7276   31.4239    0.1397 C   0  0  0  0  0  0  0  0  0  0  0  0
  -84.5450   31.8271    0.7765 C   0  0  0  0  0  0  0  0  0  0  0  0
  -83.8351   30.9719    1.5502 C   0  0  0  0  0  0  0  0  0  0  0  0
  -84.2189   29.6727    1.7610 C   0  0  0  0  0  0  0  0  0  0  0  0
  -83.5338   28.8210    2.5064 N   0  0  0  0  0  0  0  0  0  0  0  0
  -83.9705   27.5589    2.6589 C   0  0  0  0  0  0  0  0  0  0  0  0
  -85.0777   27.1434    2.0779 N   0  0  0  0  0  0  0  0  0  0  0  0
  -85.8442   27.9529    1.2944 C   0  0  0  0  0  0  0  0  0  0  0  0
  -85.3960   29.2342    1.1413 C   0  0  0  0  0  0  0  0  0  0  0  0
  -86.1133   30.1196    0.3511 C   0  0  0  0  0  0  0  0  0  0  0  0
  -87.5396   30.0681   -0.5847 S   0  0  0  0  0  0  0  0  0  0  0  0
  -88.5435   32.3152   -2.0623 C   0  0  0  0  0  0  0  0  0  0  0  0
  -89.6051   32.7681   -1.5336 N   0  0  0  0  0  0  0  0  0  0  0  0
  -89.8198   32.7098   -0.5246 H   0  0  0  0  0  0  0  0  0  0  0  0
  -87.8128   31.3547   -4.2020 C   0  0  0  0  0  0  0  0  0  0  0  0
  -88.3330   32.4328   -3.4153 O   0  0  0  0  0  0  0  0  0  0  0  0
  -87.0398   27.4883    0.7547 N   0  0  0  0  0  0  0  0  0  0  0  0
  -87.2591   27.4342   -0.2281 H   0  0  0  0  0  0  0  0  0  0  0  0
  -88.0943   27.0566    1.6387 C   0  0  0  0  0  0  0  0  0  0  0  0
  -88.4721   27.7210    2.7654 C   0  0  0  0  0  0  0  0  0  0  0  0
  -89.5296   27.2616    3.5635 C   0  0  0  0  0  0  0  0  0  0  0  0
  -90.2115   26.1326    3.2344 C   0  0  0  0  0  0  0  0  0  0  0  0
  -89.8545   25.4441    2.1107 C   0  0  0  0  0  0  0  0  0  0  0  0
  -88.8138   25.8976    1.3256 C   0  0  0  0  0  0  0  0  0  0  0  0
 17 18  1  0  0  0
 18 14  1  0  0  0
 14 15  2  0  0  0
 14  1  1  0  0  0
  1  2  2  0  0  0
  2  3  1  0  0  0
  3  4  2  0  0  0
  4  5  1  0  0  0
  5  6  2  0  0  0
  6  7  1  0  0  0
  7  8  2  0  0  0
  8  9  1  0  0  0
  9 10  2  0  0  0
 10 19  1  0  0  0
 19 21  1  0  0  0
 21 22  2  0  0  0
 22 23  1  0  0  0
 23 24  2  0  0  0
 24 25  1  0  0  0
 25 26  2  0  0  0
 10 11  1  0  0  0
 11 12  2  0  0  0
 12 13  1  0  0  0
 13  1  1  0  0  0
 12  3  1  0  0  0
 11  6  1  0  0  0
 26 21  1  0  0  0
 15 16  1  0  0  0
 19 20  1  0  0  0
M  END
> <minimizedAffinity>
-7.88043

> <CNNscore>
0.3465697169

> <CNNaffinity>
6.4951238632

> <CNN_VS>
2.2510132790

> <CNNaffinity_variance>
0.1812540442

$$$$
[H]N=C(OC([H])([H])[H])c1nc2c([H])c([H])c3nc([H])nc(N([H])c4c([H])c([H])c([H])c([H])c4[H])c3c2s1


 26 29  0  0  0  0  0  0  0  0999 V2000
  -87.4784   35.1953   -3.8315 C   0  0  0  0  0  0  0  0  0  0  0  0
  -87.9259   34.2948   -4.6750 N   0  0  0  0  0  0  0  0  0  0  0  0
  -87.9998   33.0450   -4.3302 C   0  0  0  0  0  0  0  0  0  0  0  0
  -88.4640   31.9915   -5.1312 C   0  0  0  0  0  0  0  0  0  0  0  0
  -88.5056   30.7199   -4.6675 C   0  0  0  0  0  0  0  0  0  0  0  0
  -88.1021   30.3805   -3.4018 C   0  0  0  0  0  0  0  0  0  0  0  0
  -88.1436   29.1455   -2.9291 N   0  0  0  0  0  0  0  0  0  0  0  0
  -87.7379   28.8927   -1.6728 C   0  0  0  0  0  0  0  0  0  0  0  0
  -87.2940   29.8555   -0.8906 N   0  0  0  0  0  0  0  0  0  0  0  0
  -87.2170   31.1542   -1.2959 C   0  0  0  0  0  0  0  0  0  0  0  0
  -87.6315   31.4067   -2.5729 C   0  0  0  0  0  0  0  0  0  0  0  0
  -87.5945   32.7046   -3.0596 C   0  0  0  0  0  0  0  0  0  0  0  0
  -87.1369   34.2375   -2.4648 S   0  0  0  0  0  0  0  0  0  0  0  0
  -87.3109   36.6499   -4.0108 C   0  0  0  0  0  0  0  0  0  0  0  0
  -86.3408   37.0459   -4.7276 N   0  0  0  0  0  0  0  0  0  0  0  0
  -85.6666   36.4139   -5.1898 H   0  0  0  0  0  0  0  0  0  0  0  0
  -87.6886   38.7242   -2.7502 C   0  0  0  0  0  0  0  0  0  0  0  0
  -88.1647   37.5567   -3.4299 O   0  0  0  0  0  0  0  0  0  0  0  0
  -86.6803   32.1259   -0.4568 N   0  0  0  0  0  0  0  0  0  0  0  0
  -87.1375   32.9812   -0.1802 H   0  0  0  0  0  0  0  0  0  0  0  0
  -85.3495   31.9489    0.0700 C   0  0  0  0  0  0  0  0  0  0  0  0
  -85.0558   31.2316    1.1893 C   0  0  0  0  0  0  0  0  0  0  0  0
  -83.7334   31.0727    1.6280 C   0  0  0  0  0  0  0  0  0  0  0  0
  -82.7005   31.6343    0.9455 C   0  0  0  0  0  0  0  0  0  0  0  0
  -82.9643   32.3604   -0.1802 C   0  0  0  0  0  0  0  0  0  0  0  0
  -84.2663   32.5157   -0.6114 C   0  0  0  0  0  0  0  0  0  0  0  0
 17 18  1  0  0  0
 18 14  1  0  0  0
 14 15  2  0  0  0
 14  1  1  0  0  0
  1  2  2  0  0  0
  2  3  1  0  0  0
  3  4  2  0  0  0
  4  5  1  0  0  0
  5  6  2  0  0  0
  6  7  1  0  0  0
  7  8  2  0  0  0
  8  9  1  0  0  0
  9 10  2  0  0  0
 10 19  1  0  0  0
 19 21  1  0  0  0
 21 22  2  0  0  0
 22 23  1  0  0  0
 23 24  2  0  0  0
 24 25  1  0  0  0
 25 26  2  0  0  0
 10 11  1  0  0  0
 11 12  2  0  0  0
 12 13  1  0  0  0
 13  1  1  0  0  0
 12  3  1  0  0  0
 11  6  1  0  0  0
 26 21  1  0  0  0
 15 16  1  0  0  0
 19 20  1  0  0  0
M  END
> <minimizedAffinity>
-8.21512

> <CNNscore>
0.2982273698

> <CNNaffinity>
5.7654166222

> <CNN_VS>
1.7194050550

> <CNNaffinity_variance>
0.3820921779

$$$$
[H]N=C(OC([H])([H])[H])c1nc2c([H])c([H])c3nc([H])nc(N([H])c4c([H])c([H])c([H])c([H])c4[H])c3c2s1


 26 29  0  0  0  0  0  0  0  0999 V2000
  -87.6510   33.7507   -2.0507 C   0  0  0  0  0  0  0  0  0  0  0  0
  -86.3692   33.8733   -1.7966 N   0  0  0  0  0  0  0  0  0  0  0  0
  -85.7405   32.9646   -1.1144 C   0  0  0  0  0  0  0  0  0  0  0  0
  -84.3779   32.9735   -0.7829 C   0  0  0  0  0  0  0  0  0  0  0  0
  -83.8201   31.9663   -0.0699 C   0  0  0  0  0  0  0  0  0  0  0  0
  -84.5392   30.8853    0.3705 C   0  0  0  0  0  0  0  0  0  0  0  0
  -84.0097   29.8884    1.0607 N   0  0  0  0  0  0  0  0  0  0  0  0
  -84.7790   28.8575    1.4506 C   0  0  0  0  0  0  0  0  0  0  0  0
  -86.0633   28.8142    1.1597 N   0  0  0  0  0  0  0  0  0  0  0  0
  -86.6900   29.7971    0.4541 C   0  0  0  0  0  0  0  0  0  0  0  0
  -85.9041   30.8422    0.0589 C   0  0  0  0  0  0  0  0  0  0  0  0
  -86.4629   31.8795   -0.6723 C   0  0  0  0  0  0  0  0  0  0  0  0
  -88.0061   32.2694   -1.2880 S   0  0  0  0  0  0  0  0  0  0  0  0
  -88.5519   34.6506   -2.7954 C   0  0  0  0  0  0  0  0  0  0  0  0
  -89.5994   34.1447   -3.3038 N   0  0  0  0  0  0  0  0  0  0  0  0
  -89.8565   33.1470   -3.2270 H   0  0  0  0  0  0  0  0  0  0  0  0
  -87.5640   36.5025   -4.0719 C   0  0  0  0  0  0  0  0  0  0  0  0
  -88.2817   35.9900   -2.9431 O   0  0  0  0  0  0  0  0  0  0  0  0
  -88.0617   29.7395    0.2272 N   0  0  0  0  0  0  0  0  0  0  0  0
  -88.7391   30.4149    0.5465 H   0  0  0  0  0  0  0  0  0  0  0  0
  -88.6115   28.6248   -0.5044 C   0  0  0  0  0  0  0  0  0  0  0  0
  -88.7181   28.5739   -1.8608 C   0  0  0  0  0  0  0  0  0  0  0  0
  -89.2336   27.4431   -2.5103 C   0  0  0  0  0  0  0  0  0  0  0  0
  -89.6453   26.3591   -1.8007 C   0  0  0  0  0  0  0  0  0  0  0  0
  -89.5516   26.3814   -0.4388 C   0  0  0  0  0  0  0  0  0  0  0  0
  -89.0436   27.4948    0.1994 C   0  0  0  0  0  0  0  0  0  0  0  0
 17 18  1  0  0  0
 18 14  1  0  0  0
 14 15  2  0  0  0
 14  1  1  0  0  0
  1  2  2  0  0  0
  2  3  1  0  0  0
  3  4  2  0  0  0
  4  5  1  0  0  0
  5  6  2  0  0  0
  6  7  1  0  0  0
  7  8  2  0  0  0
  8  9  1  0  0  0
  9 10  2  0  0  0
 10 19  1  0  0  0
 19 21  1  0  0  0
 21 22  2  0  0  0
 22 23  1  0  0  0
 23 24  2  0  0  0
 24 25  1  0  0  0
 25 26  2  0  0  0
 10 11  1  0  0  0
 11 12  2  0  0  0
 12 13  1  0  0  0
 13  1  1  0  0  0
 12  3  1  0  0  0
 11  6  1  0  0  0
 26 21  1  0  0  0
 15 16  1  0  0  0
 19 20  1  0  0  0
M  END
> <minimizedAffinity>
-6.94557

> <CNNscore>
0.2294227183

> <CNNaffinity>
6.3458433151

> <CNN_VS>
1.4558806419

> <CNNaffinity_variance>
0.3706778884

$$$$
[H]N=C(OC([H])([H])[H])c1nc2c([H])c([H])c3nc([H])nc(N([H])c4c([H])c([H])c([H])c([H])c4[H])c3c2s1


 26 29  0  0  0  0  0  0  0  0999 V2000
  -89.0376   28.5483   -1.8782 C   0  0  0  0  0  0  0  0  0  0  0  0
  -89.3617   29.0455   -3.0488 N   0  0  0  0  0  0  0  0  0  0  0  0
  -88.9864   30.2422   -3.3857 C   0  0  0  0  0  0  0  0  0  0  0  0
  -89.2596   30.8834   -4.6027 C   0  0  0  0  0  0  0  0  0  0  0  0
  -88.8117   32.1364   -4.8545 C   0  0  0  0  0  0  0  0  0  0  0  0
  -88.0718   32.8531   -3.9498 C   0  0  0  0  0  0  0  0  0  0  0  0
  -87.6188   34.0744   -4.1817 N   0  0  0  0  0  0  0  0  0  0  0  0
  -86.8918   34.7105   -3.2470 C   0  0  0  0  0  0  0  0  0  0  0  0
  -86.6158   34.1417   -2.0910 N   0  0  0  0  0  0  0  0  0  0  0  0
  -87.0422   32.8882   -1.7690 C   0  0  0  0  0  0  0  0  0  0  0  0
  -87.7797   32.2451   -2.7223 C   0  0  0  0  0  0  0  0  0  0  0  0
  -88.2437   30.9616   -2.4771 C   0  0  0  0  0  0  0  0  0  0  0  0
  -88.1496   29.8339   -1.1995 S   0  0  0  0  0  0  0  0  0  0  0  0
  -89.3543   27.2302   -1.2966 C   0  0  0  0  0  0  0  0  0  0  0  0
  -88.8173   26.2093   -1.8271 N   0  0  0  0  0  0  0  0  0  0  0  0
  -88.1759   26.2471   -2.6361 H   0  0  0  0  0  0  0  0  0  0  0  0
  -91.2849   27.9977    0.0142 C   0  0  0  0  0  0  0  0  0  0  0  0
  -90.1981   27.0946   -0.2203 O   0  0  0  0  0  0  0  0  0  0  0  0
  -86.7814   32.3544   -0.5107 N   0  0  0  0  0  0  0  0  0  0  0  0
  -87.4702   32.1618    0.2003 H   0  0  0  0  0  0  0  0  0  0  0  0
  -85.4209   32.0548   -0.1376 C   0  0  0  0  0  0  0  0  0  0  0  0
  -85.0469   30.9714    0.5973 C   0  0  0  0  0  0  0  0  0  0  0  0
  -83.6998   30.7227    0.8970 C   0  0  0  0  0  0  0  0  0  0  0  0
  -82.7226   31.5613    0.4611 C   0  0  0  0  0  0  0  0  0  0  0  0
  -83.0674   32.6569   -0.2771 C   0  0  0  0  0  0  0  0  0  0  0  0
  -84.3936   32.9004   -0.5718 C   0  0  0  0  0  0  0  0  0  0  0  0
 17 18  1  0  0  0
 18 14  1  0  0  0
 14 15  2  0  0  0
 14  1  1  0  0  0
  1  2  2  0  0  0
  2  3  1  0  0  0
  3  4  2  0  0  0
  4  5  1  0  0  0
  5  6  2  0  0  0
  6  7  1  0  0  0
  7  8  2  0  0  0
  8  9  1  0  0  0
  9 10  2  0  0  0
 10 19  1  0  0  0
 19 21  1  0  0  0
 21 22  2  0  0  0
 22 23  1  0  0  0
 23 24  2  0  0  0
 24 25  1  0  0  0
 25 26  2  0  0  0
 10 11  1  0  0  0
 11 12  2  0  0  0
 12 13  1  0  0  0
 13  1  1  0  0  0
 12  3  1  0  0  0
 11  6  1  0  0  0
 26 21  1  0  0  0
 15 16  1  0  0  0
 19 20  1  0  0  0
M  END
> <minimizedAffinity>
-7.80389

> <CNNscore>
0.2212608457

> <CNNaffinity>
5.8592982292

> <CNN_VS>
1.2964333296

> <CNNaffinity_variance>
0.2696287036

$$$$
[H]N=C(OC([H])([H])[H])c1nc2c([H])c([H])c3nc([H])nc(N([H])c4c([H])c([H])c([H])c([H])c4[H])c3c2s1


 26 29  0  0  0  0  0  0  0  0999 V2000
  -88.8592   27.6991   -1.7539 C   0  0  0  0  0  0  0  0  0  0  0  0
  -88.9453   28.5316   -2.7649 N   0  0  0  0  0  0  0  0  0  0  0  0
  -88.3781   29.6986   -2.7104 C   0  0  0  0  0  0  0  0  0  0  0  0
  -88.3893   30.6721   -3.7198 C   0  0  0  0  0  0  0  0  0  0  0  0
  -87.7561   31.8586   -3.5608 C   0  0  0  0  0  0  0  0  0  0  0  0
  -87.0713   32.1843   -2.4186 C   0  0  0  0  0  0  0  0  0  0  0  0
  -86.4400   33.3346   -2.2490 N   0  0  0  0  0  0  0  0  0  0  0  0
  -85.7823   33.5777   -1.1022 C   0  0  0  0  0  0  0  0  0  0  0  0
  -85.7504   32.6886   -0.1304 N   0  0  0  0  0  0  0  0  0  0  0  0
  -86.3727   31.4798   -0.2203 C   0  0  0  0  0  0  0  0  0  0  0  0
  -87.0388   31.2365   -1.3879 C   0  0  0  0  0  0  0  0  0  0  0  0
  -87.6907   30.0253   -1.5635 C   0  0  0  0  0  0  0  0  0  0  0  0
  -87.9250   28.6016   -0.6518 S   0  0  0  0  0  0  0  0  0  0  0  0
  -89.4196   26.3429   -1.6028 C   0  0  0  0  0  0  0  0  0  0  0  0
  -88.6510   25.3599   -1.8368 N   0  0  0  0  0  0  0  0  0  0  0  0
  -87.6631   25.4531   -2.1245 H   0  0  0  0  0  0  0  0  0  0  0  0
  -91.2536   26.6517    0.0021 C   0  0  0  0  0  0  0  0  0  0  0  0
  -90.7240   26.1338   -1.2239 O   0  0  0  0  0  0  0  0  0  0  0  0
  -86.3661   30.5995    0.8574 N   0  0  0  0  0  0  0  0  0  0  0  0
  -87.1716   30.3300    1.4011 H   0  0  0  0  0  0  0  0  0  0  0  0
  -85.1194   30.0136    1.2845 C   0  0  0  0  0  0  0  0  0  0  0  0
  -83.8937   30.5547    1.0425 C   0  0  0  0  0  0  0  0  0  0  0  0
  -82.7217   29.9477    1.5159 C   0  0  0  0  0  0  0  0  0  0  0  0
  -82.7751   28.7942    2.2333 C   0  0  0  0  0  0  0  0  0  0  0  0
  -83.9902   28.2273    2.4909 C   0  0  0  0  0  0  0  0  0  0  0  0
  -85.1432   28.8260    2.0248 C   0  0  0  0  0  0  0  0  0  0  0  0
 17 18  1  0  0  0
 18 14  1  0  0  0
 14 15  2  0  0  0
 14  1  1  0  0  0
  1  2  2  0  0  0
  2  3  1  0  0  0
  3  4  2  0  0  0
  4  5  1  0  0  0
  5  6  2  0  0  0
  6  7  1  0  0  0
  7  8  2  0  0  0
  8  9  1  0  0  0
  9 10  2  0  0  0
 10 19  1  0  0  0
 19 21  1  0  0  0
 21 22  2  0  0  0
 22 23  1  0  0  0
 23 24  2  0  0  0
 24 25  1  0  0  0
 25 26  2  0  0  0
 10 11  1  0  0  0
 11 12  2  0  0  0
 12 13  1  0  0  0
 13  1  1  0  0  0
 12  3  1  0  0  0
 11  6  1  0  0  0
 26 21  1  0  0  0
 15 16  1  0  0  0
 19 20  1  0  0  0
M  END
> <minimizedAffinity>
-8.87768

> <CNNscore>
0.1807623804

> <CNNaffinity>
5.8591222763

> <CNN_VS>
1.0591088533

> <CNNaffinity_variance>
0.4375172555

$$$$
[H]c1nc(N([H])C([H])([H])c2c([H])c([H])c(Cl)c(Cl)c2[H])nc(-c2c([H])c([H])c3c(c2[H])OC([H])([H])C([H])([H])O3)c1[H]


 27 30  0  0  0  0  0  0  0  0999 V2000
  -84.8360   33.1392   -0.8890 C   0  0  0  0  0  0  0  0  0  0  0  0
  -83.5411   33.4832   -0.7175 N   0  0  0  0  0  0  0  0  0  0  0  0
  -82.6896   32.7081   -0.0408 C   0  0  0  0  0  0  0  0  0  0  0  0
  -83.1625   31.5118    0.4999 C   0  0  0  0  0  0  0  0  0  0  0  0
  -84.4753   31.1336    0.3427 C   0  0  0  0  0  0  0  0  0  0  0  0
  -85.2683   31.9658   -0.3499 N   0  0  0  0  0  0  0  0  0  0  0  0
  -85.0222   29.8923    0.8878 C   0  0  0  0  0  0  0  0  0  0  0  0
  -84.2973   29.0729    1.7109 C   0  0  0  0  0  0  0  0  0  0  0  0
  -84.8154   27.8902    2.2315 C   0  0  0  0  0  0  0  0  0  0  0  0
  -86.1032   27.5380    1.9030 C   0  0  0  0  0  0  0  0  0  0  0  0
  -86.6843   26.3782    2.3823 O   0  0  0  0  0  0  0  0  0  0  0  0
  -88.0578   26.1520    2.4489 C   0  0  0  0  0  0  0  0  0  0  0  0
  -88.8877   27.0872    1.6306 C   0  0  0  0  0  0  0  0  0  0  0  0
  -88.1480   27.9272    0.7865 O   0  0  0  0  0  0  0  0  0  0  0  0
  -86.8740   28.3305    1.0772 C   0  0  0  0  0  0  0  0  0  0  0  0
  -86.3160   29.4915    0.5872 C   0  0  0  0  0  0  0  0  0  0  0  0
  -85.7430   33.9627   -1.6088 N   0  0  0  0  0  0  0  0  0  0  0  0
  -85.7944   34.9722   -1.3994 H   0  0  0  0  0  0  0  0  0  0  0  0
  -86.5848   33.3838   -2.6194 C   0  0  0  0  0  0  0  0  0  0  0  0
  -90.7944   29.7023   -0.5140 Cl  0  0  0  0  0  0  0  0  0  0  0  0
  -89.5664   30.7563   -1.1378 C   0  0  0  0  0  0  0  0  0  0  0  0
  -89.5092   32.0618   -0.6856 C   0  0  0  0  0  0  0  0  0  0  0  0
  -88.5414   32.9161   -1.1682 C   0  0  0  0  0  0  0  0  0  0  0  0
  -87.6253   32.4911   -2.0970 C   0  0  0  0  0  0  0  0  0  0  0  0
  -87.7090   31.1589   -2.5373 C   0  0  0  0  0  0  0  0  0  0  0  0
  -88.6553   30.2910   -2.0781 C   0  0  0  0  0  0  0  0  0  0  0  0
  -88.7460   28.6296   -2.6386 Cl  0  0  0  0  0  0  0  0  0  0  0  0
 20 21  1  0  0  0
 21 22  2  0  0  0
 22 23  1  0  0  0
 23 24  2  0  0  0
 24 19  1  0  0  0
 19 17  1  0  0  0
 17  1  1  0  0  0
  1  2  2  0  0  0
  2  3  1  0  0  0
  3  4  2  0  0  0
  4  5  1  0  0  0
  5  6  2  0  0  0
  5  7  1  0  0  0
  7  8  2  0  0  0
  8  9  1  0  0  0
  9 10  2  0  0  0
 10 11  1  0  0  0
 11 12  1  0  0  0
 12 13  1  0  0  0
 13 14  1  0  0  0
 14 15  1  0  0  0
 15 16  2  0  0  0
 24 25  1  0  0  0
 25 26  2  0  0  0
 26 27  1  0  0  0
 26 21  1  0  0  0
  6  1  1  0  0  0
 16  7  1  0  0  0
 15 10  1  0  0  0
 17 18  1  0  0  0
M  END
> <minimizedAffinity>
-8.99275

> <CNNscore>
0.8941680193

> <CNNaffinity>
7.2543931007

> <CNN_VS>
6.4866461754

> <CNNaffinity_variance>
0.1237408295

$$$$
[H]c1nc(N([H])C([H])([H])c2c([H])c([H])c(Cl)c(Cl)c2[H])nc(-c2c([H])c([H])c3c(c2[H])OC([H])([H])C([H])([H])O3)c1[H]


 27 30  0  0  0  0  0  0  0  0999 V2000
  -85.1713   29.3605    1.3103 C   0  0  0  0  0  0  0  0  0  0  0  0
  -84.0739   29.8984    1.8855 N   0  0  0  0  0  0  0  0  0  0  0  0
  -83.7056   31.1617    1.6565 C   0  0  0  0  0  0  0  0  0  0  0  0
  -84.4841   31.9378    0.7971 C   0  0  0  0  0  0  0  0  0  0  0  0
  -85.6070   31.4193    0.1961 C   0  0  0  0  0  0  0  0  0  0  0  0
  -85.9112   30.1426    0.4763 N   0  0  0  0  0  0  0  0  0  0  0  0
  -86.4572   32.1877   -0.7115 C   0  0  0  0  0  0  0  0  0  0  0  0
  -86.0717   33.3956   -1.2282 C   0  0  0  0  0  0  0  0  0  0  0  0
  -86.8792   34.1297   -2.0927 C   0  0  0  0  0  0  0  0  0  0  0  0
  -88.1079   33.6170   -2.4362 C   0  0  0  0  0  0  0  0  0  0  0  0
  -88.9634   34.2897   -3.2895 O   0  0  0  0  0  0  0  0  0  0  0  0
  -90.0013   33.6910   -4.0012 C   0  0  0  0  0  0  0  0  0  0  0  0
  -90.3890   32.3308   -3.5192 C   0  0  0  0  0  0  0  0  0  0  0  0
  -89.7735   31.9462   -2.3198 O   0  0  0  0  0  0  0  0  0  0  0  0
  -88.5415   32.4039   -1.9418 C   0  0  0  0  0  0  0  0  0  0  0  0
  -87.7057   31.7151   -1.0894 C   0  0  0  0  0  0  0  0  0  0  0  0
  -85.5645   28.0169    1.5529 N   0  0  0  0  0  0  0  0  0  0  0  0
  -85.0073   27.4280    2.1920 H   0  0  0  0  0  0  0  0  0  0  0  0
  -86.7317   27.4865    0.9039 C   0  0  0  0  0  0  0  0  0  0  0  0
  -91.2388   26.1793    4.6030 Cl  0  0  0  0  0  0  0  0  0  0  0  0
  -89.9391   26.5768    3.5257 C   0  0  0  0  0  0  0  0  0  0  0  0
  -88.8867   25.6905    3.3878 C   0  0  0  0  0  0  0  0  0  0  0  0
  -87.8437   25.9868    2.5371 C   0  0  0  0  0  0  0  0  0  0  0  0
  -87.8304   27.1551    1.8180 C   0  0  0  0  0  0  0  0  0  0  0  0
  -88.9139   28.0357    1.9794 C   0  0  0  0  0  0  0  0  0  0  0  0
  -89.9594   27.7696    2.8136 C   0  0  0  0  0  0  0  0  0  0  0  0
  -91.3055   28.8808    3.0037 Cl  0  0  0  0  0  0  0  0  0  0  0  0
 20 21  1  0  0  0
 21 22  2  0  0  0
 22 23  1  0  0  0
 23 24  2  0  0  0
 24 19  1  0  0  0
 19 17  1  0  0  0
 17  1  1  0  0  0
  1  2  2  0  0  0
  2  3  1  0  0  0
  3  4  2  0  0  0
  4  5  1  0  0  0
  5  6  2  0  0  0
  5  7  1  0  0  0
  7  8  2  0  0  0
  8  9  1  0  0  0
  9 10  2  0  0  0
 10 11  1  0  0  0
 11 12  1  0  0  0
 12 13  1  0  0  0
 13 14  1  0  0  0
 14 15  1  0  0  0
 15 16  2  0  0  0
 24 25  1  0  0  0
 25 26  2  0  0  0
 26 27  1  0  0  0
 26 21  1  0  0  0
  6  1  1  0  0  0
 16  7  1  0  0  0
 15 10  1  0  0  0
 17 18  1  0  0  0
M  END
> <minimizedAffinity>
-7.80893

> <CNNscore>
0.6368886232

> <CNNaffinity>
6.9527664185

> <CNN_VS>
4.4281377792

> <CNNaffinity_variance>
0.2057673484

$$$$
[H]c1nc(N([H])C([H])([H])c2c([H])c([H])c(Cl)c(Cl)c2[H])nc(-c2c([H])c([H])c3c(c2[H])OC([H])([H])C([H])([H])O3)c1[H]


 27 30  0  0  0  0  0  0  0  0999 V2000
  -84.4299   31.9423   -0.0512 C   0  0  0  0  0  0  0  0  0  0  0  0
  -83.2046   31.8725    0.5130 N   0  0  0  0  0  0  0  0  0  0  0  0
  -82.8343   30.8346    1.2676 C   0  0  0  0  0  0  0  0  0  0  0  0
  -83.7473   29.7992    1.4717 C   0  0  0  0  0  0  0  0  0  0  0  0
  -85.0022   29.8408    0.9110 C   0  0  0  0  0  0  0  0  0  0  0  0
  -85.2992   30.9167    0.1659 N   0  0  0  0  0  0  0  0  0  0  0  0
  -85.9962   28.7843    1.0926 C   0  0  0  0  0  0  0  0  0  0  0  0
  -85.7149   27.6220    1.7593 C   0  0  0  0  0  0  0  0  0  0  0  0
  -86.6594   26.6142    1.9338 C   0  0  0  0  0  0  0  0  0  0  0  0
  -87.9192   26.7993    1.4150 C   0  0  0  0  0  0  0  0  0  0  0  0
  -88.9084   25.8423    1.5493 O   0  0  0  0  0  0  0  0  0  0  0  0
  -90.2739   26.0962    1.4348 C   0  0  0  0  0  0  0  0  0  0  0  0
  -90.6174   27.4001    0.7908 C   0  0  0  0  0  0  0  0  0  0  0  0
  -89.5207   28.0794    0.2421 O   0  0  0  0  0  0  0  0  0  0  0  0
  -88.2514   27.9533    0.7351 C   0  0  0  0  0  0  0  0  0  0  0  0
  -87.2815   28.9215    0.5887 C   0  0  0  0  0  0  0  0  0  0  0  0
  -84.8254   33.0457   -0.8543 N   0  0  0  0  0  0  0  0  0  0  0  0
  -84.1900   33.3992   -1.5871 H   0  0  0  0  0  0  0  0  0  0  0  0
  -86.1044   33.6640   -0.6377 C   0  0  0  0  0  0  0  0  0  0  0  0
  -90.6461   30.7674   -3.2239 Cl  0  0  0  0  0  0  0  0  0  0  0  0
  -89.3179   31.6079   -2.4909 C   0  0  0  0  0  0  0  0  0  0  0  0
  -89.4308   32.0260   -1.1778 C   0  0  0  0  0  0  0  0  0  0  0  0
  -88.3872   32.6956   -0.5760 C   0  0  0  0  0  0  0  0  0  0  0  0
  -87.2281   32.9569   -1.2620 C   0  0  0  0  0  0  0  0  0  0  0  0
  -87.1433   32.5193   -2.5950 C   0  0  0  0  0  0  0  0  0  0  0  0
  -88.1591   31.8550   -3.2167 C   0  0  0  0  0  0  0  0  0  0  0  0
  -88.0369   31.3152   -4.8829 Cl  0  0  0  0  0  0  0  0  0  0  0  0
 20 21  1  0  0  0
 21 22  2  0  0  0
 22 23  1  0  0  0
 23 24  2  0  0  0
 24 19  1  0  0  0
 19 17  1  0  0  0
 17  1  1  0  0  0
  1  2  2  0  0  0
  2  3  1  0  0  0
  3  4  2  0  0  0
  4  5  1  0  0  0
  5  6  2  0  0  0
  5  7  1  0  0  0
  7  8  2  0  0  0
  8  9  1  0  0  0
  9 10  2  0  0  0
 10 11  1  0  0  0
 11 12  1  0  0  0
 12 13  1  0  0  0
 13 14  1  0  0  0
 14 15  1  0  0  0
 15 16  2  0  0  0
 24 25  1  0  0  0
 25 26  2  0  0  0
 26 27  1  0  0  0
 26 21  1  0  0  0
  6  1  1  0  0  0
 16  7  1  0  0  0
 15 10  1  0  0  0
 17 18  1  0  0  0
M  END
> <minimizedAffinity>
-8.68087

> <CNNscore>
0.3549634814

> <CNNaffinity>
6.6716756821

> <CNN_VS>
2.3682012558

> <CNNaffinity_variance>
0.1775396317

$$$$
[H]c1nc(N([H])C([H])([H])c2c([H])c([H])c(Cl)c(Cl)c2[H])nc(-c2c([H])c([H])c3c(c2[H])OC([H])([H])C([H])([H])O3)c1[H]


 27 30  0  0  0  0  0  0  0  0999 V2000
  -90.7962   28.9787   -0.4333 C   0  0  0  0  0  0  0  0  0  0  0  0
  -91.3428   29.7754   -1.3772 N   0  0  0  0  0  0  0  0  0  0  0  0
  -90.6331   30.7211   -1.9985 C   0  0  0  0  0  0  0  0  0  0  0  0
  -89.2903   30.8813   -1.6544 C   0  0  0  0  0  0  0  0  0  0  0  0
  -88.7048   30.0860   -0.6975 C   0  0  0  0  0  0  0  0  0  0  0  0
  -89.4834   29.1587   -0.1188 N   0  0  0  0  0  0  0  0  0  0  0  0
  -87.3037   30.2113   -0.2995 C   0  0  0  0  0  0  0  0  0  0  0  0
  -86.5805   29.1502    0.1755 C   0  0  0  0  0  0  0  0  0  0  0  0
  -85.2462   29.2665    0.5554 C   0  0  0  0  0  0  0  0  0  0  0  0
  -84.6383   30.4950    0.4470 C   0  0  0  0  0  0  0  0  0  0  0  0
  -83.3163   30.6859    0.8052 O   0  0  0  0  0  0  0  0  0  0  0  0
  -82.5213   31.7401    0.3592 C   0  0  0  0  0  0  0  0  0  0  0  0
  -83.2737   32.8795   -0.2478 C   0  0  0  0  0  0  0  0  0  0  0  0
  -84.6661   32.7900   -0.1109 O   0  0  0  0  0  0  0  0  0  0  0  0
  -85.3248   31.5946   -0.0260 C   0  0  0  0  0  0  0  0  0  0  0  0
  -86.6439   31.4284   -0.3893 C   0  0  0  0  0  0  0  0  0  0  0  0
  -91.5497   27.9722    0.2285 N   0  0  0  0  0  0  0  0  0  0  0  0
  -92.5637   28.1028    0.3714 H   0  0  0  0  0  0  0  0  0  0  0  0
  -90.8944   26.7824    0.6975 C   0  0  0  0  0  0  0  0  0  0  0  0
  -89.6051   26.7700    6.5322 Cl  0  0  0  0  0  0  0  0  0  0  0  0
  -89.9722   26.7547    4.8372 C   0  0  0  0  0  0  0  0  0  0  0  0
  -90.6203   27.8421    4.2809 C   0  0  0  0  0  0  0  0  0  0  0  0
  -90.9215   27.8505    2.9361 C   0  0  0  0  0  0  0  0  0  0  0  0
  -90.5867   26.7904    2.1320 C   0  0  0  0  0  0  0  0  0  0  0  0
  -89.9286   25.6999    2.7263 C   0  0  0  0  0  0  0  0  0  0  0  0
  -89.6179   25.6634    4.0536 C   0  0  0  0  0  0  0  0  0  0  0  0
  -88.7954   24.2929    4.7804 Cl  0  0  0  0  0  0  0  0  0  0  0  0
 20 21  1  0  0  0
 21 22  2  0  0  0
 22 23  1  0  0  0
 23 24  2  0  0  0
 24 19  1  0  0  0
 19 17  1  0  0  0
 17  1  1  0  0  0
  1  2  2  0  0  0
  2  3  1  0  0  0
  3  4  2  0  0  0
  4  5  1  0  0  0
  5  6  2  0  0  0
  5  7  1  0  0  0
  7  8  2  0  0  0
  8  9  1  0  0  0
  9 10  2  0  0  0
 10 11  1  0  0  0
 11 12  1  0  0  0
 12 13  1  0  0  0
 13 14  1  0  0  0
 14 15  1  0  0  0
 15 16  2  0  0  0
 24 25  1  0  0  0
 25 26  2  0  0  0
 26 27  1  0  0  0
 26 21  1  0  0  0
  6  1  1  0  0  0
 16  7  1  0  0  0
 15 10  1  0  0  0
 17 18  1  0  0  0
M  END
> <minimizedAffinity>
-8.59962

> <CNNscore>
0.3528255522

> <CNNaffinity>
6.4434938431

> <CNN_VS>
2.2734291553

> <CNNaffinity_variance>
0.1316822469

$$$$
[H]c1nc(N([H])C([H])([H])c2c([H])c([H])c(Cl)c(Cl)c2[H])nc(-c2c([H])c([H])c3c(c2[H])OC([H])([H])C([H])([H])O3)c1[H]


 27 30  0  0  0  0  0  0  0  0999 V2000
  -90.3289   31.4209   -1.5970 C   0  0  0  0  0  0  0  0  0  0  0  0
  -91.1145   31.2176   -2.6768 N   0  0  0  0  0  0  0  0  0  0  0  0
  -91.8484   30.1104   -2.8160 C   0  0  0  0  0  0  0  0  0  0  0  0
  -91.7939   29.1436   -1.8113 C   0  0  0  0  0  0  0  0  0  0  0  0
  -91.0038   29.3211   -0.6998 C   0  0  0  0  0  0  0  0  0  0  0  0
  -90.2964   30.4595   -0.6330 N   0  0  0  0  0  0  0  0  0  0  0  0
  -90.9099   28.3413    0.3810 C   0  0  0  0  0  0  0  0  0  0  0  0
  -90.8776   26.9930    0.1454 C   0  0  0  0  0  0  0  0  0  0  0  0
  -90.7882   26.0575    1.1727 C   0  0  0  0  0  0  0  0  0  0  0  0
  -90.7306   26.5112    2.4693 C   0  0  0  0  0  0  0  0  0  0  0  0
  -90.6410   25.6411    3.5405 O   0  0  0  0  0  0  0  0  0  0  0  0
  -90.1739   25.9915    4.8059 C   0  0  0  0  0  0  0  0  0  0  0  0
  -90.1114   27.4615    5.0663 C   0  0  0  0  0  0  0  0  0  0  0  0
  -90.6995   28.2502    4.0675 O   0  0  0  0  0  0  0  0  0  0  0  0
  -90.7600   27.8603    2.7581 C   0  0  0  0  0  0  0  0  0  0  0  0
  -90.8490   28.7466    1.7065 C   0  0  0  0  0  0  0  0  0  0  0  0
  -89.5476   32.5982   -1.4474 N   0  0  0  0  0  0  0  0  0  0  0  0
  -89.8620   33.3430   -0.8055 H   0  0  0  0  0  0  0  0  0  0  0  0
  -88.3284   32.7453   -2.1937 C   0  0  0  0  0  0  0  0  0  0  0  0
  -83.3783   31.9775    1.0642 Cl  0  0  0  0  0  0  0  0  0  0  0  0
  -84.8228   32.1835    0.1267 C   0  0  0  0  0  0  0  0  0  0  0  0
  -84.9597   33.3156   -0.6553 C   0  0  0  0  0  0  0  0  0  0  0  0
  -86.0995   33.4990   -1.4081 C   0  0  0  0  0  0  0  0  0  0  0  0
  -87.1096   32.5706   -1.3958 C   0  0  0  0  0  0  0  0  0  0  0  0
  -86.9413   31.4304   -0.5912 C   0  0  0  0  0  0  0  0  0  0  0  0
  -85.8252   31.2220    0.1640 C   0  0  0  0  0  0  0  0  0  0  0  0
  -85.6308   29.7919    1.1640 Cl  0  0  0  0  0  0  0  0  0  0  0  0
 20 21  1  0  0  0
 21 22  2  0  0  0
 22 23  1  0  0  0
 23 24  2  0  0  0
 24 19  1  0  0  0
 19 17  1  0  0  0
 17  1  1  0  0  0
  1  2  2  0  0  0
  2  3  1  0  0  0
  3  4  2  0  0  0
  4  5  1  0  0  0
  5  6  2  0  0  0
  5  7  1  0  0  0
  7  8  2  0  0  0
  8  9  1  0  0  0
  9 10  2  0  0  0
 10 11  1  0  0  0
 11 12  1  0  0  0
 12 13  1  0  0  0
 13 14  1  0  0  0
 14 15  1  0  0  0
 15 16  2  0  0  0
 24 25  1  0  0  0
 25 26  2  0  0  0
 26 27  1  0  0  0
 26 21  1  0  0  0
  6  1  1  0  0  0
 16  7  1  0  0  0
 15 10  1  0  0  0
 17 18  1  0  0  0
M  END
> <minimizedAffinity>
-8.18923

> <CNNscore>
0.3478158712

> <CNNaffinity>
6.2071051598

> <CNN_VS>
2.1589295864

> <CNNaffinity_variance>
0.1169022322

$$$$
[H]c1nc(N([H])C([H])([H])c2c([H])c([H])c(Cl)c(Cl)c2[H])nc(-c2c([H])c([H])c3c(c2[H])OC([H])([H])C([H])([H])O3)c1[H]


 27 30  0  0  0  0  0  0  0  0999 V2000
  -86.3596   33.2422   -1.7778 C   0  0  0  0  0  0  0  0  0  0  0  0
  -87.1916   34.1166   -2.3842 N   0  0  0  0  0  0  0  0  0  0  0  0
  -88.5127   33.9238   -2.4194 C   0  0  0  0  0  0  0  0  0  0  0  0
  -89.0366   32.7833   -1.8094 C   0  0  0  0  0  0  0  0  0  0  0  0
  -88.2159   31.8743   -1.1840 C   0  0  0  0  0  0  0  0  0  0  0  0
  -86.9002   32.1385   -1.1911 N   0  0  0  0  0  0  0  0  0  0  0  0
  -88.7118   30.6646   -0.5301 C   0  0  0  0  0  0  0  0  0  0  0  0
  -90.0485   30.4122   -0.3754 C   0  0  0  0  0  0  0  0  0  0  0  0
  -90.5238   29.2610    0.2470 C   0  0  0  0  0  0  0  0  0  0  0  0
  -89.6117   28.3481    0.7214 C   0  0  0  0  0  0  0  0  0  0  0  0
  -90.0098   27.1825    1.3503 O   0  0  0  0  0  0  0  0  0  0  0  0
  -89.2145   26.0460    1.4846 C   0  0  0  0  0  0  0  0  0  0  0  0
  -87.7580   26.2669    1.2346 C   0  0  0  0  0  0  0  0  0  0  0  0
  -87.3962   27.6127    1.0817 O   0  0  0  0  0  0  0  0  0  0  0  0
  -88.2541   28.5571    0.5896 C   0  0  0  0  0  0  0  0  0  0  0  0
  -87.8335   29.7120   -0.0339 C   0  0  0  0  0  0  0  0  0  0  0  0
  -84.9539   33.4460   -1.7394 N   0  0  0  0  0  0  0  0  0  0  0  0
  -84.4106   33.4317   -2.6170 H   0  0  0  0  0  0  0  0  0  0  0  0
  -84.2987   33.6659   -0.4795 C   0  0  0  0  0  0  0  0  0  0  0  0
  -82.6037   28.6570    2.3032 Cl  0  0  0  0  0  0  0  0  0  0  0  0
  -83.1115   30.1123    1.5081 C   0  0  0  0  0  0  0  0  0  0  0  0
  -82.3194   30.6408    0.5055 C   0  0  0  0  0  0  0  0  0  0  0  0
  -82.7043   31.7964   -0.1393 C   0  0  0  0  0  0  0  0  0  0  0  0
  -83.8694   32.4376    0.1982 C   0  0  0  0  0  0  0  0  0  0  0  0
  -84.6532   31.8762    1.2210 C   0  0  0  0  0  0  0  0  0  0  0  0
  -84.2980   30.7344    1.8766 C   0  0  0  0  0  0  0  0  0  0  0  0
  -85.2887   30.0462    3.1524 Cl  0  0  0  0  0  0  0  0  0  0  0  0
 20 21  1  0  0  0
 21 22  2  0  0  0
 22 23  1  0  0  0
 23 24  2  0  0  0
 24 19  1  0  0  0
 19 17  1  0  0  0
 17  1  1  0  0  0
  1  2  2  0  0  0
  2  3  1  0  0  0
  3  4  2  0  0  0
  4  5  1  0  0  0
  5  6  2  0  0  0
  5  7  1  0  0  0
  7  8  2  0  0  0
  8  9  1  0  0  0
  9 10  2  0  0  0
 10 11  1  0  0  0
 11 12  1  0  0  0
 12 13  1  0  0  0
 13 14  1  0  0  0
 14 15  1  0  0  0
 15 16  2  0  0  0
 24 25  1  0  0  0
 25 26  2  0  0  0
 26 27  1  0  0  0
 26 21  1  0  0  0
  6  1  1  0  0  0
 16  7  1  0  0  0
 15 10  1  0  0  0
 17 18  1  0  0  0
M  END
> <minimizedAffinity>
-9.37876

> <CNNscore>
0.3124791384

> <CNNaffinity>
6.6945009232

> <CNN_VS>
2.0918917656

> <CNNaffinity_variance>
0.2691194415

$$$$
[H]c1nc(N([H])C([H])([H])c2c([H])c([H])c(Cl)c(Cl)c2[H])nc(-c2c([H])c([H])c3c(c2[H])OC([H])([H])C([H])([H])O3)c1[H]


 27 30  0  0  0  0  0  0  0  0999 V2000
  -85.3112   27.4558    1.9510 C   0  0  0  0  0  0  0  0  0  0  0  0
  -84.1086   27.3219    2.5513 N   0  0  0  0  0  0  0  0  0  0  0  0
  -83.1821   28.2822    2.4953 C   0  0  0  0  0  0  0  0  0  0  0  0
  -83.4760   29.4522    1.7939 C   0  0  0  0  0  0  0  0  0  0  0  0
  -84.6912   29.6188    1.1721 C   0  0  0  0  0  0  0  0  0  0  0  0
  -85.5692   28.6090    1.2740 N   0  0  0  0  0  0  0  0  0  0  0  0
  -85.0504   30.8230    0.4251 C   0  0  0  0  0  0  0  0  0  0  0  0
  -84.1332   31.7895    0.1104 C   0  0  0  0  0  0  0  0  0  0  0  0
  -84.4723   32.9373   -0.6008 C   0  0  0  0  0  0  0  0  0  0  0  0
  -85.7783   33.0999   -0.9989 C   0  0  0  0  0  0  0  0  0  0  0  0
  -86.1885   34.2139   -1.7084 O   0  0  0  0  0  0  0  0  0  0  0  0
  -87.3421   34.2733   -2.4879 C   0  0  0  0  0  0  0  0  0  0  0  0
  -88.3280   33.1797   -2.2331 C   0  0  0  0  0  0  0  0  0  0  0  0
  -88.0216   32.3721   -1.1290 O   0  0  0  0  0  0  0  0  0  0  0  0
  -86.7395   32.1541   -0.7061 C   0  0  0  0  0  0  0  0  0  0  0  0
  -86.3540   31.0352    0.0002 C   0  0  0  0  0  0  0  0  0  0  0  0
  -86.2980   26.4352    2.0098 N   0  0  0  0  0  0  0  0  0  0  0  0
  -86.0104   25.4438    1.9953 H   0  0  0  0  0  0  0  0  0  0  0  0
  -87.6884   26.7901    2.0845 C   0  0  0  0  0  0  0  0  0  0  0  0
  -90.5826   26.5103   -3.1358 Cl  0  0  0  0  0  0  0  0  0  0  0  0
  -89.7464   26.6114   -1.6197 C   0  0  0  0  0  0  0  0  0  0  0  0
  -89.2696   25.4514   -1.0375 C   0  0  0  0  0  0  0  0  0  0  0  0
  -88.6023   25.5092    0.1669 C   0  0  0  0  0  0  0  0  0  0  0  0
  -88.4004   26.7073    0.8044 C   0  0  0  0  0  0  0  0  0  0  0  0
  -88.8966   27.8688    0.1878 C   0  0  0  0  0  0  0  0  0  0  0  0
  -89.5605   27.8426   -1.0030 C   0  0  0  0  0  0  0  0  0  0  0  0
  -90.1741   29.3032   -1.7598 Cl  0  0  0  0  0  0  0  0  0  0  0  0
 20 21  1  0  0  0
 21 22  2  0  0  0
 22 23  1  0  0  0
 23 24  2  0  0  0
 24 19  1  0  0  0
 19 17  1  0  0  0
 17  1  1  0  0  0
  1  2  2  0  0  0
  2  3  1  0  0  0
  3  4  2  0  0  0
  4  5  1  0  0  0
  5  6  2  0  0  0
  5  7  1  0  0  0
  7  8  2  0  0  0
  8  9  1  0  0  0
  9 10  2  0  0  0
 10 11  1  0  0  0
 11 12  1  0  0  0
 12 13  1  0  0  0
 13 14  1  0  0  0
 14 15  1  0  0  0
 15 16  2  0  0  0
 24 25  1  0  0  0
 25 26  2  0  0  0
 26 27  1  0  0  0
 26 21  1  0  0  0
  6  1  1  0  0  0
 16  7  1  0  0  0
 15 10  1  0  0  0
 17 18  1  0  0  0
M  END
> <minimizedAffinity>
-8.76812

> <CNNscore>
0.2921592295

> <CNNaffinity>
6.5665731430

> <CNN_VS>
1.9184849262

> <CNNaffinity_variance>
0.1223135218

$$$$
[H]c1nc(N([H])C([H])([H])c2c([H])c([H])c(Cl)c(Cl)c2[H])nc(-c2c([H])c([H])c3c(c2[H])OC([H])([H])C([H])([H])O3)c1[H]


 27 30  0  0  0  0  0  0  0  0999 V2000
  -90.8631   29.1642   -0.2460 C   0  0  0  0  0  0  0  0  0  0  0  0
  -91.3531   29.2160   -1.5037 N   0  0  0  0  0  0  0  0  0  0  0  0
  -90.6703   29.7801   -2.5034 C   0  0  0  0  0  0  0  0  0  0  0  0
  -89.4167   30.3281   -2.2288 C   0  0  0  0  0  0  0  0  0  0  0  0
  -88.8904   30.2912   -0.9589 C   0  0  0  0  0  0  0  0  0  0  0  0
  -89.6370   29.7073   -0.0088 N   0  0  0  0  0  0  0  0  0  0  0  0
  -87.5834   30.8495   -0.6169 C   0  0  0  0  0  0  0  0  0  0  0  0
  -87.2974   32.1810   -0.7572 C   0  0  0  0  0  0  0  0  0  0  0  0
  -86.0536   32.7157   -0.4324 C   0  0  0  0  0  0  0  0  0  0  0  0
  -85.0812   31.8698    0.0466 C   0  0  0  0  0  0  0  0  0  0  0  0
  -83.8228   32.3293    0.3898 O   0  0  0  0  0  0  0  0  0  0  0  0
  -82.9435   31.6627    1.2410 C   0  0  0  0  0  0  0  0  0  0  0  0
  -83.2771   30.2273    1.4881 C   0  0  0  0  0  0  0  0  0  0  0  0
  -84.3141   29.7295    0.6867 O   0  0  0  0  0  0  0  0  0  0  0  0
  -85.3209   30.5202    0.2059 C   0  0  0  0  0  0  0  0  0  0  0  0
  -86.5681   30.0392   -0.1297 C   0  0  0  0  0  0  0  0  0  0  0  0
  -91.5882   28.5643    0.8186 N   0  0  0  0  0  0  0  0  0  0  0  0
  -92.3902   27.9492    0.6088 H   0  0  0  0  0  0  0  0  0  0  0  0
  -91.2026   28.8216    2.1788 C   0  0  0  0  0  0  0  0  0  0  0  0
  -88.6704   24.1885    4.9767 Cl  0  0  0  0  0  0  0  0  0  0  0  0
  -89.4061   25.5433    4.1822 C   0  0  0  0  0  0  0  0  0  0  0  0
  -89.5686   25.5092    2.8095 C   0  0  0  0  0  0  0  0  0  0  0  0
  -90.1509   26.5752    2.1582 C   0  0  0  0  0  0  0  0  0  0  0  0
  -90.5763   27.6790    2.8531 C   0  0  0  0  0  0  0  0  0  0  0  0
  -90.3976   27.6842    4.2473 C   0  0  0  0  0  0  0  0  0  0  0  0
  -89.8248   26.6446    4.9187 C   0  0  0  0  0  0  0  0  0  0  0  0
  -89.6089   26.6670    6.6611 Cl  0  0  0  0  0  0  0  0  0  0  0  0
 20 21  1  0  0  0
 21 22  2  0  0  0
 22 23  1  0  0  0
 23 24  2  0  0  0
 24 19  1  0  0  0
 19 17  1  0  0  0
 17  1  1  0  0  0
  1  2  2  0  0  0
  2  3  1  0  0  0
  3  4  2  0  0  0
  4  5  1  0  0  0
  5  6  2  0  0  0
  5  7  1  0  0  0
  7  8  2  0  0  0
  8  9  1  0  0  0
  9 10  2  0  0  0
 10 11  1  0  0  0
 11 12  1  0  0  0
 12 13  1  0  0  0
 13 14  1  0  0  0
 14 15  1  0  0  0
 15 16  2  0  0  0
 24 25  1  0  0  0
 25 26  2  0  0  0
 26 27  1  0  0  0
 26 21  1  0  0  0
  6  1  1  0  0  0
 16  7  1  0  0  0
 15 10  1  0  0  0
 17 18  1  0  0  0
M  END
> <minimizedAffinity>
-8.71286

> <CNNscore>
0.2835550606

> <CNNaffinity>
6.3036551476

> <CNN_VS>
1.7874332666

> <CNNaffinity_variance>
0.1382761896

$$$$
[H]c1nc(N([H])C([H])([H])c2c([H])c([H])c(Cl)c(Cl)c2[H])nc(-c2c([H])c([H])c3c(c2[H])OC([H])([H])C([H])([H])O3)c1[H]


 27 30  0  0  0  0  0  0  0  0999 V2000
  -85.3491   27.4380    1.9411 C   0  0  0  0  0  0  0  0  0  0  0  0
  -84.1614   27.2969    2.5689 N   0  0  0  0  0  0  0  0  0  0  0  0
  -83.2294   28.2530    2.5368 C   0  0  0  0  0  0  0  0  0  0  0  0
  -83.5015   29.4261    1.8317 C   0  0  0  0  0  0  0  0  0  0  0  0
  -84.7010   29.5999    1.1822 C   0  0  0  0  0  0  0  0  0  0  0  0
  -85.5858   28.5939    1.2612 N   0  0  0  0  0  0  0  0  0  0  0  0
  -85.0372   30.8075    0.4301 C   0  0  0  0  0  0  0  0  0  0  0  0
  -84.1050   31.7629    0.1257 C   0  0  0  0  0  0  0  0  0  0  0  0
  -84.4222   32.9140   -0.5904 C   0  0  0  0  0  0  0  0  0  0  0  0
  -85.7213   33.0916   -1.0042 C   0  0  0  0  0  0  0  0  0  0  0  0
  -86.1099   34.2097   -1.7193 O   0  0  0  0  0  0  0  0  0  0  0  0
  -87.2533   34.2818   -2.5127 C   0  0  0  0  0  0  0  0  0  0  0  0
  -88.2549   33.2001   -2.2689 C   0  0  0  0  0  0  0  0  0  0  0  0
  -87.9712   32.3899   -1.1606 O   0  0  0  0  0  0  0  0  0  0  0  0
  -86.6969   32.1573   -0.7222 C   0  0  0  0  0  0  0  0  0  0  0  0
  -86.3330   31.0346   -0.0105 C   0  0  0  0  0  0  0  0  0  0  0  0
  -86.3417   26.4218    1.9744 N   0  0  0  0  0  0  0  0  0  0  0  0
  -86.0599   25.4296    1.9331 H   0  0  0  0  0  0  0  0  0  0  0  0
  -87.7299   26.7827    2.0607 C   0  0  0  0  0  0  0  0  0  0  0  0
  -90.6630   26.4831   -3.1367 Cl  0  0  0  0  0  0  0  0  0  0  0  0
  -89.8091   26.5499   -1.6286 C   0  0  0  0  0  0  0  0  0  0  0  0
  -89.5518   27.7824   -1.0571 C   0  0  0  0  0  0  0  0  0  0  0  0
  -88.8748   27.8582    0.1410 C   0  0  0  0  0  0  0  0  0  0  0  0
  -88.4479   26.7231    0.7827 C   0  0  0  0  0  0  0  0  0  0  0  0
  -88.7244   25.4853    0.1770 C   0  0  0  0  0  0  0  0  0  0  0  0
  -89.3919   25.3792   -1.0074 C   0  0  0  0  0  0  0  0  0  0  0  0
  -89.7291   23.8247   -1.7506 Cl  0  0  0  0  0  0  0  0  0  0  0  0
 20 21  1  0  0  0
 21 22  2  0  0  0
 22 23  1  0  0  0
 23 24  2  0  0  0
 24 19  1  0  0  0
 19 17  1  0  0  0
 17  1  1  0  0  0
  1  2  2  0  0  0
  2  3  1  0  0  0
  3  4  2  0  0  0
  4  5  1  0  0  0
  5  6  2  0  0  0
  5  7  1  0  0  0
  7  8  2  0  0  0
  8  9  1  0  0  0
  9 10  2  0  0  0
 10 11  1  0  0  0
 11 12  1  0  0  0
 12 13  1  0  0  0
 13 14  1  0  0  0
 14 15  1  0  0  0
 15 16  2  0  0  0
 24 25  1  0  0  0
 25 26  2  0  0  0
 26 27  1  0  0  0
 26 21  1  0  0  0
  6  1  1  0  0  0
 16  7  1  0  0  0
 15 10  1  0  0  0
 17 18  1  0  0  0
M  END
> <minimizedAffinity>
-8.84615

> <CNNscore>
0.2719701827

> <CNNaffinity>
6.4917364120

> <CNN_VS>
1.7655587196

> <CNNaffinity_variance>
0.1890909523

$$$$
[H]c1nc(N([H])c2c([H])c([H])c(N3C([H])([H])C([H])([H])N(C([H])([H])[H])C([H])([H])C3([H])[H])c([H])c2[H])nc(-c2c([H])n([H])c3c([H])nc([H])c([H])c23)c1Cl


 32 36  0  0  0  0  0  0  0  0999 V2000
  -85.2973   33.1937   -1.1064 C   0  0  0  0  0  0  0  0  0  0  0  0
  -83.9413   33.4138   -1.1130 N   0  0  0  0  0  0  0  0  0  0  0  0
  -83.1015   32.6628   -0.4189 C   0  0  0  0  0  0  0  0  0  0  0  0
  -83.5829   31.6221    0.3417 C   0  0  0  0  0  0  0  0  0  0  0  0
  -82.4787   30.6417    1.2518 Cl  0  0  0  0  0  0  0  0  0  0  0  0
  -84.9598   31.3697    0.3724 C   0  0  0  0  0  0  0  0  0  0  0  0
  -85.7300   32.1709   -0.3531 N   0  0  0  0  0  0  0  0  0  0  0  0
  -85.4191   30.2577    1.2007 C   0  0  0  0  0  0  0  0  0  0  0  0
  -85.2000   30.1489    2.5824 C   0  0  0  0  0  0  0  0  0  0  0  0
  -85.7603   29.0199    2.9979 N   0  0  0  0  0  0  0  0  0  0  0  0
  -86.3331   28.3931    1.9407 C   0  0  0  0  0  0  0  0  0  0  0  0
  -87.0245   27.2218    1.8422 C   0  0  0  0  0  0  0  0  0  0  0  0
  -87.5101   26.8007    0.6508 N   0  0  0  0  0  0  0  0  0  0  0  0
  -87.3284   27.5247   -0.4853 C   0  0  0  0  0  0  0  0  0  0  0  0
  -86.6290   28.7124   -0.3947 C   0  0  0  0  0  0  0  0  0  0  0  0
  -86.1283   29.1566    0.8048 C   0  0  0  0  0  0  0  0  0  0  0  0
  -85.7473   28.6895    3.9920 H   0  0  0  0  0  0  0  0  0  0  0  0
  -86.0829   34.0662   -1.8727 N   0  0  0  0  0  0  0  0  0  0  0  0
  -85.8115   35.1001   -1.8046 H   0  0  0  0  0  0  0  0  0  0  0  0
  -89.3962   33.3555   -4.4211 C   0  0  0  0  0  0  0  0  0  0  0  0
  -89.2584   34.5075   -3.6516 C   0  0  0  0  0  0  0  0  0  0  0  0
  -88.1865   34.7319   -2.8273 C   0  0  0  0  0  0  0  0  0  0  0  0
  -87.1679   33.7924   -2.7251 C   0  0  0  0  0  0  0  0  0  0  0  0
  -87.2956   32.6509   -3.4834 C   0  0  0  0  0  0  0  0  0  0  0  0
  -88.3869   32.4311   -4.3171 C   0  0  0  0  0  0  0  0  0  0  0  0
  -93.9801   33.3036   -7.1433 C   0  0  0  0  0  0  0  0  0  0  0  0
  -93.1520   33.6848   -6.0526 N   0  0  0  0  0  0  0  0  0  0  0  0
  -92.0946   34.5801   -6.3065 C   0  0  0  0  0  0  0  0  0  0  0  0
  -90.7261   33.9425   -6.4660 C   0  0  0  0  0  0  0  0  0  0  0  0
  -90.5115   33.1432   -5.2691 N   0  0  0  0  0  0  0  0  0  0  0  0
  -91.5258   32.1350   -5.0377 C   0  0  0  0  0  0  0  0  0  0  0  0
  -92.9224   32.6809   -5.0746 C   0  0  0  0  0  0  0  0  0  0  0  0
 26 27  1  0  0  0
 27 28  1  0  0  0
 28 29  1  0  0  0
 29 30  1  0  0  0
 30 31  1  0  0  0
 31 32  1  0  0  0
 30 20  1  0  0  0
 20 21  2  0  0  0
 21 22  1  0  0  0
 22 23  2  0  0  0
 23 18  1  0  0  0
 18  1  1  0  0  0
  1  2  2  0  0  0
  2  3  1  0  0  0
  3  4  2  0  0  0
  4  5  1  0  0  0
  4  6  1  0  0  0
  6  7  2  0  0  0
  6  8  1  0  0  0
  8  9  2  0  0  0
  9 10  1  0  0  0
 10 11  1  0  0  0
 11 12  2  0  0  0
 12 13  1  0  0  0
 13 14  2  0  0  0
 14 15  1  0  0  0
 15 16  2  0  0  0
 23 24  1  0  0  0
 24 25  2  0  0  0
 32 27  1  0  0  0
 25 20  1  0  0  0
  7  1  1  0  0  0
 16  8  1  0  0  0
 16 11  1  0  0  0
 18 19  1  0  0  0
 10 17  1  0  0  0
M  END
> <minimizedAffinity>
-8.82171

> <CNNscore>
0.8366364241

> <CNNaffinity>
7.4143686295

> <CNN_VS>
6.2031307220

> <CNNaffinity_variance>
0.0328495279

$$$$
[H]c1nc(N([H])c2c([H])c([H])c(N3C([H])([H])C([H])([H])N(C([H])([H])[H])C([H])([H])C3([H])[H])c([H])c2[H])nc(-c2c([H])n([H])c3c([H])nc([H])c([H])c23)c1Cl


 32 36  0  0  0  0  0  0  0  0999 V2000
  -85.0920   32.4051   -0.0607 C   0  0  0  0  0  0  0  0  0  0  0  0
  -83.7882   32.6100    0.3206 N   0  0  0  0  0  0  0  0  0  0  0  0
  -83.0655   31.6642    0.8988 C   0  0  0  0  0  0  0  0  0  0  0  0
  -83.6206   30.4276    1.1352 C   0  0  0  0  0  0  0  0  0  0  0  0
  -82.6703   29.1915    1.8954 Cl  0  0  0  0  0  0  0  0  0  0  0  0
  -84.9475   30.1842    0.7603 C   0  0  0  0  0  0  0  0  0  0  0  0
  -85.5994   31.1876    0.1864 N   0  0  0  0  0  0  0  0  0  0  0  0
  -85.4903   28.8573    1.0400 C   0  0  0  0  0  0  0  0  0  0  0  0
  -85.1720   28.0871    2.1690 C   0  0  0  0  0  0  0  0  0  0  0  0
  -85.8521   26.9500    2.0936 N   0  0  0  0  0  0  0  0  0  0  0  0
  -86.5979   26.9528    0.9611 C   0  0  0  0  0  0  0  0  0  0  0  0
  -87.4573   26.0341    0.4349 C   0  0  0  0  0  0  0  0  0  0  0  0
  -88.0988   26.2731   -0.7330 N   0  0  0  0  0  0  0  0  0  0  0  0
  -87.9121   27.4305   -1.4210 C   0  0  0  0  0  0  0  0  0  0  0  0
  -87.0430   28.3666   -0.8954 C   0  0  0  0  0  0  0  0  0  0  0  0
  -86.3826   28.1427    0.2881 C   0  0  0  0  0  0  0  0  0  0  0  0
  -85.8021   26.1877    2.8105 H   0  0  0  0  0  0  0  0  0  0  0  0
  -85.7555   33.4896   -0.6517 N   0  0  0  0  0  0  0  0  0  0  0  0
  -85.4311   34.4554   -0.3211 H   0  0  0  0  0  0  0  0  0  0  0  0
  -88.9133   33.5053   -3.4811 C   0  0  0  0  0  0  0  0  0  0  0  0
  -89.0663   33.0658   -2.1690 C   0  0  0  0  0  0  0  0  0  0  0  0
  -88.0418   33.0604   -1.2583 C   0  0  0  0  0  0  0  0  0  0  0  0
  -86.7762   33.5057   -1.6196 C   0  0  0  0  0  0  0  0  0  0  0  0
  -86.6164   33.9430   -2.9148 C   0  0  0  0  0  0  0  0  0  0  0  0
  -87.6614   33.9448   -3.8325 C   0  0  0  0  0  0  0  0  0  0  0  0
  -93.4385   33.9490   -6.2654 C   0  0  0  0  0  0  0  0  0  0  0  0
  -92.6743   33.9706   -5.0668 N   0  0  0  0  0  0  0  0  0  0  0  0
  -91.7519   35.0201   -4.8895 C   0  0  0  0  0  0  0  0  0  0  0  0
  -90.3073   34.6775   -5.2066 C   0  0  0  0  0  0  0  0  0  0  0  0
  -89.9860   33.5049   -4.4071 N   0  0  0  0  0  0  0  0  0  0  0  0
  -90.8500   32.3669   -4.6468 C   0  0  0  0  0  0  0  0  0  0  0  0
  -92.3091   32.7001   -4.5475 C   0  0  0  0  0  0  0  0  0  0  0  0
 26 27  1  0  0  0
 27 28  1  0  0  0
 28 29  1  0  0  0
 29 30  1  0  0  0
 30 31  1  0  0  0
 31 32  1  0  0  0
 30 20  1  0  0  0
 20 21  2  0  0  0
 21 22  1  0  0  0
 22 23  2  0  0  0
 23 18  1  0  0  0
 18  1  1  0  0  0
  1  2  2  0  0  0
  2  3  1  0  0  0
  3  4  2  0  0  0
  4  5  1  0  0  0
  4  6  1  0  0  0
  6  7  2  0  0  0
  6  8  1  0  0  0
  8  9  2  0  0  0
  9 10  1  0  0  0
 10 11  1  0  0  0
 11 12  2  0  0  0
 12 13  1  0  0  0
 13 14  2  0  0  0
 14 15  1  0  0  0
 15 16  2  0  0  0
 23 24  1  0  0  0
 24 25  2  0  0  0
 32 27  1  0  0  0
 25 20  1  0  0  0
  7  1  1  0  0  0
 16  8  1  0  0  0
 16 11  1  0  0  0
 18 19  1  0  0  0
 10 17  1  0  0  0
M  END
> <minimizedAffinity>
-9.01557

> <CNNscore>
0.6800342202

> <CNNaffinity>
7.4507761002

> <CNN_VS>
5.0667829514

> <CNNaffinity_variance>
0.0677483827

$$$$
[H]c1nc(N([H])c2c([H])c([H])c(N3C([H])([H])C([H])([H])N(C([H])([H])[H])C([H])([H])C3([H])[H])c([H])c2[H])nc(-c2c([H])n([H])c3c([H])nc([H])c([H])c23)c1Cl


 32 36  0  0  0  0  0  0  0  0999 V2000
  -87.7759   31.8465   -0.6007 C   0  0  0  0  0  0  0  0  0  0  0  0
  -87.4054   33.0384   -1.1745 N   0  0  0  0  0  0  0  0  0  0  0  0
  -86.1622   33.4891   -1.1242 C   0  0  0  0  0  0  0  0  0  0  0  0
  -85.1938   32.7542   -0.4797 C   0  0  0  0  0  0  0  0  0  0  0  0
  -83.5660   33.3498   -0.4143 Cl  0  0  0  0  0  0  0  0  0  0  0  0
  -85.5364   31.5349    0.1172 C   0  0  0  0  0  0  0  0  0  0  0  0
  -86.8052   31.1580    0.0194 N   0  0  0  0  0  0  0  0  0  0  0  0
  -84.4726   30.7977    0.7942 C   0  0  0  0  0  0  0  0  0  0  0  0
  -83.1774   31.2902    1.0158 C   0  0  0  0  0  0  0  0  0  0  0  0
  -82.4890   30.3559    1.6595 N   0  0  0  0  0  0  0  0  0  0  0  0
  -83.2862   29.2781    1.8635 C   0  0  0  0  0  0  0  0  0  0  0  0
  -83.0577   28.0787    2.4706 C   0  0  0  0  0  0  0  0  0  0  0  0
  -84.0347   27.1453    2.5532 N   0  0  0  0  0  0  0  0  0  0  0  0
  -85.2729   27.3668    2.0375 C   0  0  0  0  0  0  0  0  0  0  0  0
  -85.5130   28.5791    1.4205 C   0  0  0  0  0  0  0  0  0  0  0  0
  -84.5348   29.5388    1.3266 C   0  0  0  0  0  0  0  0  0  0  0  0
  -81.4886   30.4612    1.9523 H   0  0  0  0  0  0  0  0  0  0  0  0
  -89.1259   31.4847   -0.7108 N   0  0  0  0  0  0  0  0  0  0  0  0
  -89.8220   32.2933   -0.6161 H   0  0  0  0  0  0  0  0  0  0  0  0
  -90.9316   27.6904   -1.2765 C   0  0  0  0  0  0  0  0  0  0  0  0
  -90.9675   28.3801   -0.0678 C   0  0  0  0  0  0  0  0  0  0  0  0
  -90.3803   29.6058    0.1111 C   0  0  0  0  0  0  0  0  0  0  0  0
  -89.7079   30.2240   -0.9360 C   0  0  0  0  0  0  0  0  0  0  0  0
  -89.6685   29.5494   -2.1350 C   0  0  0  0  0  0  0  0  0  0  0  0
  -90.2669   28.3058   -2.3078 C   0  0  0  0  0  0  0  0  0  0  0  0
  -92.6108   22.8094   -2.6115 C   0  0  0  0  0  0  0  0  0  0  0  0
  -91.8987   24.0178   -2.8428 N   0  0  0  0  0  0  0  0  0  0  0  0
  -90.7550   24.2714   -2.0608 C   0  0  0  0  0  0  0  0  0  0  0  0
  -90.9640   25.2120   -0.8877 C   0  0  0  0  0  0  0  0  0  0  0  0
  -91.5470   26.4246   -1.4418 N   0  0  0  0  0  0  0  0  0  0  0  0
  -92.7872   26.2136   -2.1604 C   0  0  0  0  0  0  0  0  0  0  0  0
  -92.6918   25.1396   -3.2031 C   0  0  0  0  0  0  0  0  0  0  0  0
 26 27  1  0  0  0
 27 28  1  0  0  0
 28 29  1  0  0  0
 29 30  1  0  0  0
 30 31  1  0  0  0
 31 32  1  0  0  0
 30 20  1  0  0  0
 20 21  2  0  0  0
 21 22  1  0  0  0
 22 23  2  0  0  0
 23 18  1  0  0  0
 18  1  1  0  0  0
  1  2  2  0  0  0
  2  3  1  0  0  0
  3  4  2  0  0  0
  4  5  1  0  0  0
  4  6  1  0  0  0
  6  7  2  0  0  0
  6  8  1  0  0  0
  8  9  2  0  0  0
  9 10  1  0  0  0
 10 11  1  0  0  0
 11 12  2  0  0  0
 12 13  1  0  0  0
 13 14  2  0  0  0
 14 15  1  0  0  0
 15 16  2  0  0  0
 23 24  1  0  0  0
 24 25  2  0  0  0
 32 27  1  0  0  0
 25 20  1  0  0  0
  7  1  1  0  0  0
 16  8  1  0  0  0
 16 11  1  0  0  0
 18 19  1  0  0  0
 10 17  1  0  0  0
M  END
> <minimizedAffinity>
-9.09409

> <CNNscore>
0.5852409005

> <CNNaffinity>
7.3291282654

> <CNN_VS>
4.2893056870

> <CNNaffinity_variance>
0.0114308437

$$$$
[H]c1nc(N([H])c2c([H])c([H])c(N3C([H])([H])C([H])([H])N(C([H])([H])[H])C([H])([H])C3([H])[H])c([H])c2[H])nc(-c2c([H])n([H])c3c([H])nc([H])c([H])c23)c1Cl


 32 36  0  0  0  0  0  0  0  0999 V2000
  -88.0995   31.4645   -0.5885 C   0  0  0  0  0  0  0  0  0  0  0  0
  -87.8867   32.6531   -1.2435 N   0  0  0  0  0  0  0  0  0  0  0  0
  -86.6995   33.2365   -1.2782 C   0  0  0  0  0  0  0  0  0  0  0  0
  -85.6298   32.6491   -0.6426 C   0  0  0  0  0  0  0  0  0  0  0  0
  -84.0759   33.4184   -0.6888 Cl  0  0  0  0  0  0  0  0  0  0  0  0
  -85.8110   31.4376    0.0356 C   0  0  0  0  0  0  0  0  0  0  0  0
  -87.0338   30.9219    0.0201 N   0  0  0  0  0  0  0  0  0  0  0  0
  -84.6450   30.8600    0.6991 C   0  0  0  0  0  0  0  0  0  0  0  0
  -83.4148   31.5150    0.8630 C   0  0  0  0  0  0  0  0  0  0  0  0
  -82.5977   30.6946    1.5116 N   0  0  0  0  0  0  0  0  0  0  0  0
  -83.2493   29.5348    1.7742 C   0  0  0  0  0  0  0  0  0  0  0  0
  -82.8566   28.3938    2.4094 C   0  0  0  0  0  0  0  0  0  0  0  0
  -83.7078   27.3509    2.5522 N   0  0  0  0  0  0  0  0  0  0  0  0
  -84.9783   27.4011    2.0711 C   0  0  0  0  0  0  0  0  0  0  0  0
  -85.3844   28.5530    1.4260 C   0  0  0  0  0  0  0  0  0  0  0  0
  -84.5355   29.6218    1.2710 C   0  0  0  0  0  0  0  0  0  0  0  0
  -81.6100   30.9318    1.7680 H   0  0  0  0  0  0  0  0  0  0  0  0
  -89.4052   30.9543   -0.6131 N   0  0  0  0  0  0  0  0  0  0  0  0
  -90.1643   31.6618   -0.8785 H   0  0  0  0  0  0  0  0  0  0  0  0
  -90.7398   26.9904    0.0827 C   0  0  0  0  0  0  0  0  0  0  0  0
  -89.9259   27.3446   -0.9899 C   0  0  0  0  0  0  0  0  0  0  0  0
  -89.4987   28.6279   -1.2121 C   0  0  0  0  0  0  0  0  0  0  0  0
  -89.8719   29.6532   -0.3518 C   0  0  0  0  0  0  0  0  0  0  0  0
  -90.6757   29.3117    0.7120 C   0  0  0  0  0  0  0  0  0  0  0  0
  -91.1048   28.0068    0.9299 C   0  0  0  0  0  0  0  0  0  0  0  0
  -91.7572   21.7574    0.1630 C   0  0  0  0  0  0  0  0  0  0  0  0
  -91.2503   22.9465   -0.4288 N   0  0  0  0  0  0  0  0  0  0  0  0
  -90.1077   23.5362    0.1462 C   0  0  0  0  0  0  0  0  0  0  0  0
  -90.3761   24.7120    1.0681 C   0  0  0  0  0  0  0  0  0  0  0  0
  -91.1691   25.6570    0.2963 N   0  0  0  0  0  0  0  0  0  0  0  0
  -92.4090   25.1120   -0.2181 C   0  0  0  0  0  0  0  0  0  0  0  0
  -92.2241   23.8273   -0.9700 C   0  0  0  0  0  0  0  0  0  0  0  0
 26 27  1  0  0  0
 27 28  1  0  0  0
 28 29  1  0  0  0
 29 30  1  0  0  0
 30 31  1  0  0  0
 31 32  1  0  0  0
 30 20  1  0  0  0
 20 21  2  0  0  0
 21 22  1  0  0  0
 22 23  2  0  0  0
 23 18  1  0  0  0
 18  1  1  0  0  0
  1  2  2  0  0  0
  2  3  1  0  0  0
  3  4  2  0  0  0
  4  5  1  0  0  0
  4  6  1  0  0  0
  6  7  2  0  0  0
  6  8  1  0  0  0
  8  9  2  0  0  0
  9 10  1  0  0  0
 10 11  1  0  0  0
 11 12  2  0  0  0
 12 13  1  0  0  0
 13 14  2  0  0  0
 14 15  1  0  0  0
 15 16  2  0  0  0
 23 24  1  0  0  0
 24 25  2  0  0  0
 32 27  1  0  0  0
 25 20  1  0  0  0
  7  1  1  0  0  0
 16  8  1  0  0  0
 16 11  1  0  0  0
 18 19  1  0  0  0
 10 17  1  0  0  0
M  END
> <minimizedAffinity>
-9.39349

> <CNNscore>
0.5234731436

> <CNNaffinity>
7.2803115845

> <CNN_VS>
3.8110475540

> <CNNaffinity_variance>
0.0769707933

$$$$
[H]c1nc(N([H])c2c([H])c([H])c(N3C([H])([H])C([H])([H])N(C([H])([H])[H])C([H])([H])C3([H])[H])c([H])c2[H])nc(-c2c([H])n([H])c3c([H])nc([H])c([H])c23)c1Cl


 32 36  0  0  0  0  0  0  0  0999 V2000
  -86.2190   33.0076   -1.9593 C   0  0  0  0  0  0  0  0  0  0  0  0
  -85.3685   33.5632   -1.0346 N   0  0  0  0  0  0  0  0  0  0  0  0
  -85.0717   32.9578    0.1040 C   0  0  0  0  0  0  0  0  0  0  0  0
  -85.6237   31.7303    0.3901 C   0  0  0  0  0  0  0  0  0  0  0  0
  -85.2337   30.9413    1.8848 Cl  0  0  0  0  0  0  0  0  0  0  0  0
  -86.4957   31.1350   -0.5295 C   0  0  0  0  0  0  0  0  0  0  0  0
  -86.7384   31.8107   -1.6457 N   0  0  0  0  0  0  0  0  0  0  0  0
  -87.0593   29.8352   -0.1741 C   0  0  0  0  0  0  0  0  0  0  0  0
  -86.3037   28.6783    0.0706 C   0  0  0  0  0  0  0  0  0  0  0  0
  -87.1446   27.6960    0.3695 N   0  0  0  0  0  0  0  0  0  0  0  0
  -88.4143   28.1703    0.3280 C   0  0  0  0  0  0  0  0  0  0  0  0
  -89.6178   27.5707    0.5551 C   0  0  0  0  0  0  0  0  0  0  0  0
  -90.7721   28.2704    0.4523 N   0  0  0  0  0  0  0  0  0  0  0  0
  -90.7754   29.5889    0.1213 C   0  0  0  0  0  0  0  0  0  0  0  0
  -89.5607   30.2042   -0.1108 C   0  0  0  0  0  0  0  0  0  0  0  0
  -88.3787   29.5113   -0.0116 C   0  0  0  0  0  0  0  0  0  0  0  0
  -86.8469   26.7178    0.5979 H   0  0  0  0  0  0  0  0  0  0  0  0
  -86.4642   33.7535   -3.1209 N   0  0  0  0  0  0  0  0  0  0  0  0
  -85.6482   34.3651   -3.4485 H   0  0  0  0  0  0  0  0  0  0  0  0
  -89.9313   33.8175   -5.5606 C   0  0  0  0  0  0  0  0  0  0  0  0
  -89.2220   32.6547   -5.2727 C   0  0  0  0  0  0  0  0  0  0  0  0
  -88.1001   32.6391   -4.4852 C   0  0  0  0  0  0  0  0  0  0  0  0
  -87.6142   33.8159   -3.9286 C   0  0  0  0  0  0  0  0  0  0  0  0
  -88.3102   34.9702   -4.2072 C   0  0  0  0  0  0  0  0  0  0  0  0
  -89.4476   34.9769   -5.0076 C   0  0  0  0  0  0  0  0  0  0  0  0
  -94.3810   34.7175   -8.3562 C   0  0  0  0  0  0  0  0  0  0  0  0
  -93.4227   35.0301   -7.3539 N   0  0  0  0  0  0  0  0  0  0  0  0
  -92.1369   35.4276   -7.7693 C   0  0  0  0  0  0  0  0  0  0  0  0
  -91.0759   34.3425   -7.7306 C   0  0  0  0  0  0  0  0  0  0  0  0
  -91.0906   33.8122   -6.3756 N   0  0  0  0  0  0  0  0  0  0  0  0
  -92.3754   33.2918   -5.9546 C   0  0  0  0  0  0  0  0  0  0  0  0
  -93.5031   34.2584   -6.1643 C   0  0  0  0  0  0  0  0  0  0  0  0
 26 27  1  0  0  0
 27 28  1  0  0  0
 28 29  1  0  0  0
 29 30  1  0  0  0
 30 31  1  0  0  0
 31 32  1  0  0  0
 30 20  1  0  0  0
 20 21  2  0  0  0
 21 22  1  0  0  0
 22 23  2  0  0  0
 23 18  1  0  0  0
 18  1  1  0  0  0
  1  2  2  0  0  0
  2  3  1  0  0  0
  3  4  2  0  0  0
  4  5  1  0  0  0
  4  6  1  0  0  0
  6  7  2  0  0  0
  6  8  1  0  0  0
  8  9  2  0  0  0
  9 10  1  0  0  0
 10 11  1  0  0  0
 11 12  2  0  0  0
 12 13  1  0  0  0
 13 14  2  0  0  0
 14 15  1  0  0  0
 15 16  2  0  0  0
 23 24  1  0  0  0
 24 25  2  0  0  0
 32 27  1  0  0  0
 25 20  1  0  0  0
  7  1  1  0  0  0
 16  8  1  0  0  0
 16 11  1  0  0  0
 18 19  1  0  0  0
 10 17  1  0  0  0
M  END
> <minimizedAffinity>
-7.30549

> <CNNscore>
0.3864551485

> <CNNaffinity>
6.7134513855

> <CNN_VS>
2.5944478512

> <CNNaffinity_variance>
0.0506046303

$$$$
[H]c1nc(N([H])c2c([H])c([H])c(N3C([H])([H])C([H])([H])N(C([H])([H])[H])C([H])([H])C3([H])[H])c([H])c2[H])nc(-c2c([H])n([H])c3c([H])nc([H])c([H])c23)c1Cl


 32 36  0  0  0  0  0  0  0  0999 V2000
  -85.5268   29.1232    2.0022 C   0  0  0  0  0  0  0  0  0  0  0  0
  -84.2036   28.9329    2.3189 N   0  0  0  0  0  0  0  0  0  0  0  0
  -83.2436   29.6999    1.8279 C   0  0  0  0  0  0  0  0  0  0  0  0
  -83.5607   30.7273    0.9693 C   0  0  0  0  0  0  0  0  0  0  0  0
  -82.2988   31.7288    0.3263 Cl  0  0  0  0  0  0  0  0  0  0  0  0
  -84.8994   30.9493    0.6242 C   0  0  0  0  0  0  0  0  0  0  0  0
  -85.7977   30.1337    1.1619 N   0  0  0  0  0  0  0  0  0  0  0  0
  -85.1809   32.0483   -0.2959 C   0  0  0  0  0  0  0  0  0  0  0  0
  -84.2098   32.9063   -0.8342 C   0  0  0  0  0  0  0  0  0  0  0  0
  -84.8251   33.7737   -1.6282 N   0  0  0  0  0  0  0  0  0  0  0  0
  -86.1555   33.5120   -1.6255 C   0  0  0  0  0  0  0  0  0  0  0  0
  -87.2013   34.1052   -2.2689 C   0  0  0  0  0  0  0  0  0  0  0  0
  -88.4657   33.6505   -2.1039 N   0  0  0  0  0  0  0  0  0  0  0  0
  -88.7392   32.5920   -1.2959 C   0  0  0  0  0  0  0  0  0  0  0  0
  -87.6859   31.9853   -0.6400 C   0  0  0  0  0  0  0  0  0  0  0  0
  -86.3960   32.4319   -0.7943 C   0  0  0  0  0  0  0  0  0  0  0  0
  -84.3353   34.5309   -2.1614 H   0  0  0  0  0  0  0  0  0  0  0  0
  -86.4480   28.2361    2.5768 N   0  0  0  0  0  0  0  0  0  0  0  0
  -86.4769   28.2418    3.6475 H   0  0  0  0  0  0  0  0  0  0  0  0
  -89.2493   25.5931    0.8035 C   0  0  0  0  0  0  0  0  0  0  0  0
  -89.5371   26.3735    1.9199 C   0  0  0  0  0  0  0  0  0  0  0  0
  -88.6274   27.2250    2.4912 C   0  0  0  0  0  0  0  0  0  0  0  0
  -87.3476   27.3453    1.9636 C   0  0  0  0  0  0  0  0  0  0  0  0
  -87.0550   26.5780    0.8591 C   0  0  0  0  0  0  0  0  0  0  0  0
  -87.9841   25.7163    0.2858 C   0  0  0  0  0  0  0  0  0  0  0  0
  -92.8212   21.8613   -0.5158 C   0  0  0  0  0  0  0  0  0  0  0  0
  -91.7913   22.4057    0.2989 N   0  0  0  0  0  0  0  0  0  0  0  0
  -92.0909   23.5461    1.0694 C   0  0  0  0  0  0  0  0  0  0  0  0
  -91.6295   24.8678    0.4823 C   0  0  0  0  0  0  0  0  0  0  0  0
  -90.2047   24.7201    0.2263 N   0  0  0  0  0  0  0  0  0  0  0  0
  -89.8698   23.6200   -0.6549 C   0  0  0  0  0  0  0  0  0  0  0  0
  -90.4764   22.3155   -0.2302 C   0  0  0  0  0  0  0  0  0  0  0  0
 26 27  1  0  0  0
 27 28  1  0  0  0
 28 29  1  0  0  0
 29 30  1  0  0  0
 30 31  1  0  0  0
 31 32  1  0  0  0
 30 20  1  0  0  0
 20 21  2  0  0  0
 21 22  1  0  0  0
 22 23  2  0  0  0
 23 18  1  0  0  0
 18  1  1  0  0  0
  1  2  2  0  0  0
  2  3  1  0  0  0
  3  4  2  0  0  0
  4  5  1  0  0  0
  4  6  1  0  0  0
  6  7  2  0  0  0
  6  8  1  0  0  0
  8  9  2  0  0  0
  9 10  1  0  0  0
 10 11  1  0  0  0
 11 12  2  0  0  0
 12 13  1  0  0  0
 13 14  2  0  0  0
 14 15  1  0  0  0
 15 16  2  0  0  0
 23 24  1  0  0  0
 24 25  2  0  0  0
 32 27  1  0  0  0
 25 20  1  0  0  0
  7  1  1  0  0  0
 16  8  1  0  0  0
 16 11  1  0  0  0
 18 19  1  0  0  0
 10 17  1  0  0  0
M  END
> <minimizedAffinity>
-9.26062

> <CNNscore>
0.3691458106

> <CNNaffinity>
7.0791234970

> <CNN_VS>
2.6132287979

> <CNNaffinity_variance>
0.1027995795

$$$$
[H]c1nc(N([H])c2c([H])c([H])c(N3C([H])([H])C([H])([H])N(C([H])([H])[H])C([H])([H])C3([H])[H])c([H])c2[H])nc(-c2c([H])n([H])c3c([H])nc([H])c([H])c23)c1Cl


 32 36  0  0  0  0  0  0  0  0999 V2000
  -86.0027   28.0972    1.4839 C   0  0  0  0  0  0  0  0  0  0  0  0
  -85.5730   28.3005    2.7728 N   0  0  0  0  0  0  0  0  0  0  0  0
  -85.1362   29.4767    3.1933 C   0  0  0  0  0  0  0  0  0  0  0  0
  -85.1030   30.5441    2.3257 C   0  0  0  0  0  0  0  0  0  0  0  0
  -84.5275   32.0835    2.8806 Cl  0  0  0  0  0  0  0  0  0  0  0  0
  -85.5328   30.3724    1.0042 C   0  0  0  0  0  0  0  0  0  0  0  0
  -85.9552   29.1604    0.6666 N   0  0  0  0  0  0  0  0  0  0  0  0
  -85.4706   31.5354    0.1228 C   0  0  0  0  0  0  0  0  0  0  0  0
  -84.2949   32.2310   -0.1980 C   0  0  0  0  0  0  0  0  0  0  0  0
  -84.6165   33.2194   -1.0233 N   0  0  0  0  0  0  0  0  0  0  0  0
  -85.9531   33.1918   -1.2496 C   0  0  0  0  0  0  0  0  0  0  0  0
  -86.7636   33.9795   -2.0127 C   0  0  0  0  0  0  0  0  0  0  0  0
  -88.0951   33.7449   -2.0809 N   0  0  0  0  0  0  0  0  0  0  0  0
  -88.6712   32.7217   -1.3959 C   0  0  0  0  0  0  0  0  0  0  0  0
  -87.8577   31.9190   -0.6201 C   0  0  0  0  0  0  0  0  0  0  0  0
  -86.5046   32.1409   -0.5379 C   0  0  0  0  0  0  0  0  0  0  0  0
  -83.9260   33.8989   -1.4223 H   0  0  0  0  0  0  0  0  0  0  0  0
  -86.4297   26.8024    1.1569 N   0  0  0  0  0  0  0  0  0  0  0  0
  -85.7094   26.0291    1.3309 H   0  0  0  0  0  0  0  0  0  0  0  0
  -90.0980   25.4757   -0.5047 C   0  0  0  0  0  0  0  0  0  0  0  0
  -89.0210   25.9034   -1.2763 C   0  0  0  0  0  0  0  0  0  0  0  0
  -87.8376   26.3337   -0.7345 C   0  0  0  0  0  0  0  0  0  0  0  0
  -87.6626   26.3604    0.6436 C   0  0  0  0  0  0  0  0  0  0  0  0
  -88.7222   25.9381    1.4140 C   0  0  0  0  0  0  0  0  0  0  0  0
  -89.9196   25.5033    0.8560 C   0  0  0  0  0  0  0  0  0  0  0  0
  -94.4529   22.9623   -2.2778 C   0  0  0  0  0  0  0  0  0  0  0  0
  -93.1469   23.0041   -1.7178 N   0  0  0  0  0  0  0  0  0  0  0  0
  -93.0042   23.5058   -0.4094 C   0  0  0  0  0  0  0  0  0  0  0  0
  -92.5435   24.9490   -0.3124 C   0  0  0  0  0  0  0  0  0  0  0  0
  -91.3128   25.0324   -1.0843 N   0  0  0  0  0  0  0  0  0  0  0  0
  -91.4505   24.6275   -2.4685 C   0  0  0  0  0  0  0  0  0  0  0  0
  -92.0951   23.2828   -2.6306 C   0  0  0  0  0  0  0  0  0  0  0  0
 26 27  1  0  0  0
 27 28  1  0  0  0
 28 29  1  0  0  0
 29 30  1  0  0  0
 30 31  1  0  0  0
 31 32  1  0  0  0
 30 20  1  0  0  0
 20 21  2  0  0  0
 21 22  1  0  0  0
 22 23  2  0  0  0
 23 18  1  0  0  0
 18  1  1  0  0  0
  1  2  2  0  0  0
  2  3  1  0  0  0
  3  4  2  0  0  0
  4  5  1  0  0  0
  4  6  1  0  0  0
  6  7  2  0  0  0
  6  8  1  0  0  0
  8  9  2  0  0  0
  9 10  1  0  0  0
 10 11  1  0  0  0
 11 12  2  0  0  0
 12 13  1  0  0  0
 13 14  2  0  0  0
 14 15  1  0  0  0
 15 16  2  0  0  0
 23 24  1  0  0  0
 24 25  2  0  0  0
 32 27  1  0  0  0
 25 20  1  0  0  0
  7  1  1  0  0  0
 16  8  1  0  0  0
 16 11  1  0  0  0
 18 19  1  0  0  0
 10 17  1  0  0  0
M  END
> <minimizedAffinity>
-8.38275

> <CNNscore>
0.2844280303

> <CNNaffinity>
6.8602585793

> <CNN_VS>
1.9512498379

> <CNNaffinity_variance>
0.0886794403

$$$$
[H]c1nc(N([H])c2c([H])c([H])c(N3C([H])([H])C([H])([H])N(C([H])([H])[H])C([H])([H])C3([H])[H])c([H])c2[H])nc(-c2c([H])n([H])c3c([H])nc([H])c([H])c23)c1Cl


 32 36  0  0  0  0  0  0  0  0999 V2000
  -86.3059   33.3895   -2.3251 C   0  0  0  0  0  0  0  0  0  0  0  0
  -85.2164   33.4109   -1.4885 N   0  0  0  0  0  0  0  0  0  0  0  0
  -85.1012   32.5873   -0.4592 C   0  0  0  0  0  0  0  0  0  0  0  0
  -86.0954   31.6719   -0.2010 C   0  0  0  0  0  0  0  0  0  0  0  0
  -85.9413   30.5958    1.1506 Cl  0  0  0  0  0  0  0  0  0  0  0  0
  -87.2207   31.6229   -1.0328 C   0  0  0  0  0  0  0  0  0  0  0  0
  -87.2552   32.4843   -2.0418 N   0  0  0  0  0  0  0  0  0  0  0  0
  -88.2498   30.6377   -0.7107 C   0  0  0  0  0  0  0  0  0  0  0  0
  -89.5077   30.9459   -0.1706 C   0  0  0  0  0  0  0  0  0  0  0  0
  -90.1763   29.8098   -0.0164 N   0  0  0  0  0  0  0  0  0  0  0  0
  -89.4018   28.7784   -0.4347 C   0  0  0  0  0  0  0  0  0  0  0  0
  -89.6250   27.4341   -0.4841 C   0  0  0  0  0  0  0  0  0  0  0  0
  -88.6776   26.5901   -0.9559 N   0  0  0  0  0  0  0  0  0  0  0  0
  -87.4754   27.0476   -1.3958 C   0  0  0  0  0  0  0  0  0  0  0  0
  -87.2407   28.4080   -1.3491 C   0  0  0  0  0  0  0  0  0  0  0  0
  -88.1892   29.2805   -0.8738 C   0  0  0  0  0  0  0  0  0  0  0  0
  -91.1483   29.7487    0.3697 H   0  0  0  0  0  0  0  0  0  0  0  0
  -86.3168   34.3212   -3.3726 N   0  0  0  0  0  0  0  0  0  0  0  0
  -85.3643   34.5056   -3.8264 H   0  0  0  0  0  0  0  0  0  0  0  0
  -89.5643   36.4113   -5.1227 C   0  0  0  0  0  0  0  0  0  0  0  0
  -89.0528   35.2244   -5.6402 C   0  0  0  0  0  0  0  0  0  0  0  0
  -88.0012   34.5533   -5.0722 C   0  0  0  0  0  0  0  0  0  0  0  0
  -87.3881   35.0454   -3.9265 C   0  0  0  0  0  0  0  0  0  0  0  0
  -87.8883   36.2179   -3.4075 C   0  0  0  0  0  0  0  0  0  0  0  0
  -88.9557   36.8926   -3.9905 C   0  0  0  0  0  0  0  0  0  0  0  0
  -93.1535   38.8801   -8.1965 C   0  0  0  0  0  0  0  0  0  0  0  0
  -91.8595   38.3632   -7.9152 N   0  0  0  0  0  0  0  0  0  0  0  0
  -91.7057   36.9646   -7.8511 C   0  0  0  0  0  0  0  0  0  0  0  0
  -91.6916   36.3749   -6.4523 C   0  0  0  0  0  0  0  0  0  0  0  0
  -90.6540   37.0891   -5.7238 N   0  0  0  0  0  0  0  0  0  0  0  0
  -90.8421   38.5248   -5.6758 C   0  0  0  0  0  0  0  0  0  0  0  0
  -91.0679   39.1377   -7.0260 C   0  0  0  0  0  0  0  0  0  0  0  0
 26 27  1  0  0  0
 27 28  1  0  0  0
 28 29  1  0  0  0
 29 30  1  0  0  0
 30 31  1  0  0  0
 31 32  1  0  0  0
 30 20  1  0  0  0
 20 21  2  0  0  0
 21 22  1  0  0  0
 22 23  2  0  0  0
 23 18  1  0  0  0
 18  1  1  0  0  0
  1  2  2  0  0  0
  2  3  1  0  0  0
  3  4  2  0  0  0
  4  5  1  0  0  0
  4  6  1  0  0  0
  6  7  2  0  0  0
  6  8  1  0  0  0
  8  9  2  0  0  0
  9 10  1  0  0  0
 10 11  1  0  0  0
 11 12  2  0  0  0
 12 13  1  0  0  0
 13 14  2  0  0  0
 14 15  1  0  0  0
 15 16  2  0  0  0
 23 24  1  0  0  0
 24 25  2  0  0  0
 32 27  1  0  0  0
 25 20  1  0  0  0
  7  1  1  0  0  0
 16  8  1  0  0  0
 16 11  1  0  0  0
 18 19  1  0  0  0
 10 17  1  0  0  0
M  END
> <minimizedAffinity>
-7.23953

> <CNNscore>
0.2758983970

> <CNNaffinity>
6.5670685768

> <CNN_VS>
1.8118436337

> <CNNaffinity_variance>
0.0608478300

$$$$
[H]c1nc(N([H])c2c([H])c([H])c(N3C([H])([H])C([H])([H])N(C([H])([H])[H])C([H])([H])C3([H])[H])c([H])c2[H])nc(-c2c([H])n([H])c3c([H])nc([H])c([H])c23)c1Cl


 32 36  0  0  0  0  0  0  0  0999 V2000
  -88.4917   32.7780   -1.8095 C   0  0  0  0  0  0  0  0  0  0  0  0
  -87.7073   33.6760   -2.4917 N   0  0  0  0  0  0  0  0  0  0  0  0
  -86.4071   33.7864   -2.2717 C   0  0  0  0  0  0  0  0  0  0  0  0
  -85.8019   32.9841   -1.3319 C   0  0  0  0  0  0  0  0  0  0  0  0
  -84.0977   33.1337   -1.0451 Cl  0  0  0  0  0  0  0  0  0  0  0  0
  -86.5714   32.0581   -0.6171 C   0  0  0  0  0  0  0  0  0  0  0  0
  -87.8671   32.0134   -0.9006 N   0  0  0  0  0  0  0  0  0  0  0  0
  -85.8814   31.2360    0.3736 C   0  0  0  0  0  0  0  0  0  0  0  0
  -84.8993   31.7085    1.2575 C   0  0  0  0  0  0  0  0  0  0  0  0
  -84.5030   30.6904    2.0110 N   0  0  0  0  0  0  0  0  0  0  0  0
  -85.1889   29.5776    1.6504 C   0  0  0  0  0  0  0  0  0  0  0  0
  -85.1520   28.2956    2.1135 C   0  0  0  0  0  0  0  0  0  0  0  0
  -85.9531   27.3424    1.5823 N   0  0  0  0  0  0  0  0  0  0  0  0
  -86.8196   27.6253    0.5736 C   0  0  0  0  0  0  0  0  0  0  0  0
  -86.8633   28.9214    0.0982 C   0  0  0  0  0  0  0  0  0  0  0  0
  -86.0584   29.9025    0.6240 C   0  0  0  0  0  0  0  0  0  0  0  0
  -83.7736   30.7633    2.7595 H   0  0  0  0  0  0  0  0  0  0  0  0
  -89.8580   32.7659   -2.1237 N   0  0  0  0  0  0  0  0  0  0  0  0
  -90.4038   33.6325   -1.8100 H   0  0  0  0  0  0  0  0  0  0  0  0
  -92.1444   29.7620   -4.0540 C   0  0  0  0  0  0  0  0  0  0  0  0
  -91.4605   29.5514   -2.8598 C   0  0  0  0  0  0  0  0  0  0  0  0
  -90.7206   30.5250   -2.2405 C   0  0  0  0  0  0  0  0  0  0  0  0
  -90.6219   31.7947   -2.7961 C   0  0  0  0  0  0  0  0  0  0  0  0
  -91.2960   32.0119   -3.9763 C   0  0  0  0  0  0  0  0  0  0  0  0
  -92.0443   31.0181   -4.5981 C   0  0  0  0  0  0  0  0  0  0  0  0
  -94.2957   25.3433   -6.1211 C   0  0  0  0  0  0  0  0  0  0  0  0
  -93.2245   26.1023   -5.5760 N   0  0  0  0  0  0  0  0  0  0  0  0
  -93.2834   26.4433   -4.2106 C   0  0  0  0  0  0  0  0  0  0  0  0
  -93.7647   27.8517   -3.9116 C   0  0  0  0  0  0  0  0  0  0  0  0
  -92.9060   28.7425   -4.6775 N   0  0  0  0  0  0  0  0  0  0  0  0
  -92.9080   28.4892   -6.1040 C   0  0  0  0  0  0  0  0  0  0  0  0
  -92.6383   27.0551   -6.4510 C   0  0  0  0  0  0  0  0  0  0  0  0
 26 27  1  0  0  0
 27 28  1  0  0  0
 28 29  1  0  0  0
 29 30  1  0  0  0
 30 31  1  0  0  0
 31 32  1  0  0  0
 30 20  1  0  0  0
 20 21  2  0  0  0
 21 22  1  0  0  0
 22 23  2  0  0  0
 23 18  1  0  0  0
 18  1  1  0  0  0
  1  2  2  0  0  0
  2  3  1  0  0  0
  3  4  2  0  0  0
  4  5  1  0  0  0
  4  6  1  0  0  0
  6  7  2  0  0  0
  6  8  1  0  0  0
  8  9  2  0  0  0
  9 10  1  0  0  0
 10 11  1  0  0  0
 11 12  2  0  0  0
 12 13  1  0  0  0
 13 14  2  0  0  0
 14 15  1  0  0  0
 15 16  2  0  0  0
 23 24  1  0  0  0
 24 25  2  0  0  0
 32 27  1  0  0  0
 25 20  1  0  0  0
  7  1  1  0  0  0
 16  8  1  0  0  0
 16 11  1  0  0  0
 18 19  1  0  0  0
 10 17  1  0  0  0
M  END
> <minimizedAffinity>
-8.01495

> <CNNscore>
0.2229705602

> <CNNaffinity>
6.4521036148

> <CNN_VS>
1.4386291504

> <CNNaffinity_variance>
0.1044469252

$$$$
[H]N=C(OC([H])([H])[H])c1nc2c([H])c([H])c3nc([H])nc(N([H])c4c([H])c([H])c(N(C([H])([H])[H])C([H])([H])[H])c([H])c4[H])c3c2s1


 29 32  0  0  0  0  0  0  0  0999 V2000
  -86.3082   32.8442   -1.2832 C   0  0  0  0  0  0  0  0  0  0  0  0
  -85.0623   32.9875   -0.8727 N   0  0  0  0  0  0  0  0  0  0  0  0
  -84.5065   32.0774   -0.1324 C   0  0  0  0  0  0  0  0  0  0  0  0
  -83.1883   32.1140    0.3762 C   0  0  0  0  0  0  0  0  0  0  0  0
  -82.7503   31.0824    1.1470 C   0  0  0  0  0  0  0  0  0  0  0  0
  -83.4785   29.9838    1.4874 C   0  0  0  0  0  0  0  0  0  0  0  0
  -83.0823   28.9604    2.2451 N   0  0  0  0  0  0  0  0  0  0  0  0
  -83.9163   27.9174    2.5187 C   0  0  0  0  0  0  0  0  0  0  0  0
  -85.1569   27.8575    2.0533 N   0  0  0  0  0  0  0  0  0  0  0  0
  -85.6220   28.8769    1.2697 C   0  0  0  0  0  0  0  0  0  0  0  0
  -84.7862   29.9337    0.9901 C   0  0  0  0  0  0  0  0  0  0  0  0
  -85.2626   30.9745    0.1993 C   0  0  0  0  0  0  0  0  0  0  0  0
  -86.7255   31.3494   -0.5930 S   0  0  0  0  0  0  0  0  0  0  0  0
  -87.1280   33.7314   -2.1169 C   0  0  0  0  0  0  0  0  0  0  0  0
  -86.5239   34.4562   -2.9745 N   0  0  0  0  0  0  0  0  0  0  0  0
  -87.0311   35.1102   -3.6024 H   0  0  0  0  0  0  0  0  0  0  0  0
  -89.3100   33.0951   -2.9170 C   0  0  0  0  0  0  0  0  0  0  0  0
  -88.4824   33.7818   -1.9830 O   0  0  0  0  0  0  0  0  0  0  0  0
  -86.9239   28.7146    0.7552 N   0  0  0  0  0  0  0  0  0  0  0  0
  -87.3513   29.3068    0.0406 H   0  0  0  0  0  0  0  0  0  0  0  0
  -87.7792   27.6413    1.2040 C   0  0  0  0  0  0  0  0  0  0  0  0
  -88.0289   26.5822    0.3211 C   0  0  0  0  0  0  0  0  0  0  0  0
  -88.8696   25.5748    0.7206 C   0  0  0  0  0  0  0  0  0  0  0  0
  -89.4803   25.5555    1.9503 C   0  0  0  0  0  0  0  0  0  0  0  0
  -89.2282   26.5951    2.8006 C   0  0  0  0  0  0  0  0  0  0  0  0
  -88.3768   27.6395    2.4264 C   0  0  0  0  0  0  0  0  0  0  0  0
  -90.3411   24.4693    2.2893 N   0  0  0  0  0  0  0  0  0  0  0  0
  -90.7180   24.2799    3.6607 C   0  0  0  0  0  0  0  0  0  0  0  0
  -90.8255   23.5772    1.2809 C   0  0  0  0  0  0  0  0  0  0  0  0
 17 18  1  0  0  0
 18 14  1  0  0  0
 14 15  2  0  0  0
 14  1  1  0  0  0
  1  2  2  0  0  0
  2  3  1  0  0  0
  3  4  2  0  0  0
  4  5  1  0  0  0
  5  6  2  0  0  0
  6  7  1  0  0  0
  7  8  2  0  0  0
  8  9  1  0  0  0
  9 10  2  0  0  0
 10 19  1  0  0  0
 19 21  1  0  0  0
 21 22  2  0  0  0
 22 23  1  0  0  0
 23 24  2  0  0  0
 24 25  1  0  0  0
 25 26  2  0  0  0
 24 27  1  0  0  0
 27 28  1  0  0  0
 27 29  1  0  0  0
 10 11  1  0  0  0
 11 12  2  0  0  0
 12 13  1  0  0  0
 13  1  1  0  0  0
 12  3  1  0  0  0
 11  6  1  0  0  0
 26 21  1  0  0  0
 15 16  1  0  0  0
 19 20  1  0  0  0
M  END
> <minimizedAffinity>
-8.70632

> <CNNscore>
0.7488158941

> <CNNaffinity>
7.1495909691

> <CNN_VS>
5.3537273407

> <CNNaffinity_variance>
0.0872167796

$$$$
[H]N=C(OC([H])([H])[H])c1nc2c([H])c([H])c3nc([H])nc(N([H])c4c([H])c([H])c(N(C([H])([H])[H])C([H])([H])[H])c([H])c4[H])c3c2s1


 29 32  0  0  0  0  0  0  0  0999 V2000
  -86.9917   27.1543    1.8201 C   0  0  0  0  0  0  0  0  0  0  0  0
  -85.7357   27.1037    2.2215 N   0  0  0  0  0  0  0  0  0  0  0  0
  -84.9250   28.0849    1.9660 C   0  0  0  0  0  0  0  0  0  0  0  0
  -83.5616   28.1504    2.3325 C   0  0  0  0  0  0  0  0  0  0  0  0
  -82.8375   29.2482    1.9848 C   0  0  0  0  0  0  0  0  0  0  0  0
  -83.3110   30.3236    1.2975 C   0  0  0  0  0  0  0  0  0  0  0  0
  -82.6276   31.4101    0.9356 N   0  0  0  0  0  0  0  0  0  0  0  0
  -83.2212   32.4205    0.2390 C   0  0  0  0  0  0  0  0  0  0  0  0
  -84.4986   32.3850   -0.1163 N   0  0  0  0  0  0  0  0  0  0  0  0
  -85.2530   31.2972    0.2260 C   0  0  0  0  0  0  0  0  0  0  0  0
  -84.6604   30.2729    0.9283 C   0  0  0  0  0  0  0  0  0  0  0  0
  -85.4264   29.1626    1.2694 C   0  0  0  0  0  0  0  0  0  0  0  0
  -87.0406   28.6623    1.0401 S   0  0  0  0  0  0  0  0  0  0  0  0
  -88.0716   26.1759    1.9956 C   0  0  0  0  0  0  0  0  0  0  0  0
  -88.3766   25.4508    0.9923 N   0  0  0  0  0  0  0  0  0  0  0  0
  -89.1287   24.7353    1.0342 H   0  0  0  0  0  0  0  0  0  0  0  0
  -89.5589   27.1005    3.6508 C   0  0  0  0  0  0  0  0  0  0  0  0
  -88.7256   26.0442    3.1830 O   0  0  0  0  0  0  0  0  0  0  0  0
  -86.6167   31.3575   -0.1242 N   0  0  0  0  0  0  0  0  0  0  0  0
  -87.3837   30.9753    0.4323 H   0  0  0  0  0  0  0  0  0  0  0  0
  -87.0514   32.0096   -1.3370 C   0  0  0  0  0  0  0  0  0  0  0  0
  -87.0639   33.4105   -1.3658 C   0  0  0  0  0  0  0  0  0  0  0  0
  -87.5101   34.0429   -2.4982 C   0  0  0  0  0  0  0  0  0  0  0  0
  -87.9469   33.3645   -3.6093 C   0  0  0  0  0  0  0  0  0  0  0  0
  -87.9297   31.9987   -3.5667 C   0  0  0  0  0  0  0  0  0  0  0  0
  -87.4817   31.3207   -2.4286 C   0  0  0  0  0  0  0  0  0  0  0  0
  -88.3949   34.0979   -4.7482 N   0  0  0  0  0  0  0  0  0  0  0  0
  -87.6309   35.2269   -5.1955 C   0  0  0  0  0  0  0  0  0  0  0  0
  -89.5889   33.7185   -5.4395 C   0  0  0  0  0  0  0  0  0  0  0  0
 17 18  1  0  0  0
 18 14  1  0  0  0
 14 15  2  0  0  0
 14  1  1  0  0  0
  1  2  2  0  0  0
  2  3  1  0  0  0
  3  4  2  0  0  0
  4  5  1  0  0  0
  5  6  2  0  0  0
  6  7  1  0  0  0
  7  8  2  0  0  0
  8  9  1  0  0  0
  9 10  2  0  0  0
 10 19  1  0  0  0
 19 21  1  0  0  0
 21 22  2  0  0  0
 22 23  1  0  0  0
 23 24  2  0  0  0
 24 25  1  0  0  0
 25 26  2  0  0  0
 24 27  1  0  0  0
 27 28  1  0  0  0
 27 29  1  0  0  0
 10 11  1  0  0  0
 11 12  2  0  0  0
 12 13  1  0  0  0
 13  1  1  0  0  0
 12  3  1  0  0  0
 11  6  1  0  0  0
 26 21  1  0  0  0
 15 16  1  0  0  0
 19 20  1  0  0  0
M  END
> <minimizedAffinity>
-9.06042

> <CNNscore>
0.6728799343

> <CNNaffinity>
7.1097669601

> <CNN_VS>
4.7840194702

> <CNNaffinity_variance>
0.0729698837

$$$$
[H]N=C(OC([H])([H])[H])c1nc2c([H])c([H])c3nc([H])nc(N([H])c4c([H])c([H])c(N(C([H])([H])[H])C([H])([H])[H])c([H])c4[H])c3c2s1


 29 32  0  0  0  0  0  0  0  0999 V2000
  -86.6557   33.2475   -1.6341 C   0  0  0  0  0  0  0  0  0  0  0  0
  -85.3661   33.3349   -1.3687 N   0  0  0  0  0  0  0  0  0  0  0  0
  -84.7911   32.4532   -0.6090 C   0  0  0  0  0  0  0  0  0  0  0  0
  -83.4258   32.4378   -0.2441 C   0  0  0  0  0  0  0  0  0  0  0  0
  -82.9720   31.4463    0.5692 C   0  0  0  0  0  0  0  0  0  0  0  0
  -83.7263   30.4359    1.0822 C   0  0  0  0  0  0  0  0  0  0  0  0
  -83.3149   29.4545    1.8861 N   0  0  0  0  0  0  0  0  0  0  0  0
  -84.1779   28.5012    2.3386 C   0  0  0  0  0  0  0  0  0  0  0  0
  -85.4631   28.4917    2.0107 N   0  0  0  0  0  0  0  0  0  0  0  0
  -85.9459   29.4718    1.1886 C   0  0  0  0  0  0  0  0  0  0  0  0
  -85.0808   30.4381    0.7287 C   0  0  0  0  0  0  0  0  0  0  0  0
  -85.5743   31.4398   -0.1013 C   0  0  0  0  0  0  0  0  0  0  0  0
  -87.0883   31.8506   -0.7702 S   0  0  0  0  0  0  0  0  0  0  0  0
  -87.5041   34.1177   -2.4572 C   0  0  0  0  0  0  0  0  0  0  0  0
  -88.7641   33.9305   -2.4045 N   0  0  0  0  0  0  0  0  0  0  0  0
  -89.4327   34.5034   -2.9559 H   0  0  0  0  0  0  0  0  0  0  0  0
  -87.7349   36.2517   -3.5522 C   0  0  0  0  0  0  0  0  0  0  0  0
  -86.9700   35.0891   -3.2484 O   0  0  0  0  0  0  0  0  0  0  0  0
  -87.3036   29.3608    0.8278 N   0  0  0  0  0  0  0  0  0  0  0  0
  -87.9233   30.1469    0.6229 H   0  0  0  0  0  0  0  0  0  0  0  0
  -87.9414   28.0720    0.6951 C   0  0  0  0  0  0  0  0  0  0  0  0
  -88.7857   27.6432    1.7279 C   0  0  0  0  0  0  0  0  0  0  0  0
  -89.3683   26.4052    1.6324 C   0  0  0  0  0  0  0  0  0  0  0  0
  -89.1619   25.5631    0.5676 C   0  0  0  0  0  0  0  0  0  0  0  0
  -88.3356   25.9941   -0.4318 C   0  0  0  0  0  0  0  0  0  0  0  0
  -87.7243   27.2502   -0.3674 C   0  0  0  0  0  0  0  0  0  0  0  0
  -89.8067   24.2905    0.5441 N   0  0  0  0  0  0  0  0  0  0  0  0
  -90.5849   23.8819    1.6782 C   0  0  0  0  0  0  0  0  0  0  0  0
  -89.6832   23.4284   -0.5912 C   0  0  0  0  0  0  0  0  0  0  0  0
 17 18  1  0  0  0
 18 14  1  0  0  0
 14 15  2  0  0  0
 14  1  1  0  0  0
  1  2  2  0  0  0
  2  3  1  0  0  0
  3  4  2  0  0  0
  4  5  1  0  0  0
  5  6  2  0  0  0
  6  7  1  0  0  0
  7  8  2  0  0  0
  8  9  1  0  0  0
  9 10  2  0  0  0
 10 19  1  0  0  0
 19 21  1  0  0  0
 21 22  2  0  0  0
 22 23  1  0  0  0
 23 24  2  0  0  0
 24 25  1  0  0  0
 25 26  2  0  0  0
 24 27  1  0  0  0
 27 28  1  0  0  0
 27 29  1  0  0  0
 10 11  1  0  0  0
 11 12  2  0  0  0
 12 13  1  0  0  0
 13  1  1  0  0  0
 12  3  1  0  0  0
 11  6  1  0  0  0
 26 21  1  0  0  0
 15 16  1  0  0  0
 19 20  1  0  0  0
M  END
> <minimizedAffinity>
-8.03460

> <CNNscore>
0.4733587503

> <CNNaffinity>
6.8984160423

> <CNN_VS>
3.2654256821

> <CNNaffinity_variance>
0.0964800194

$$$$
[H]N=C(OC([H])([H])[H])c1nc2c([H])c([H])c3nc([H])nc(N([H])c4c([H])c([H])c(N(C([H])([H])[H])C([H])([H])[H])c([H])c4[H])c3c2s1


 29 32  0  0  0  0  0  0  0  0999 V2000
  -85.0157   31.9355    0.0311 C   0  0  0  0  0  0  0  0  0  0  0  0
  -85.8498   30.9135    0.0009 N   0  0  0  0  0  0  0  0  0  0  0  0
  -86.9390   30.9758   -0.7026 C   0  0  0  0  0  0  0  0  0  0  0  0
  -87.9137   29.9583   -0.8131 C   0  0  0  0  0  0  0  0  0  0  0  0
  -89.0103   30.1772   -1.5877 C   0  0  0  0  0  0  0  0  0  0  0  0
  -89.2697   31.3146   -2.2891 C   0  0  0  0  0  0  0  0  0  0  0  0
  -90.3358   31.5633   -3.0507 N   0  0  0  0  0  0  0  0  0  0  0  0
  -90.4805   32.7536   -3.6993 C   0  0  0  0  0  0  0  0  0  0  0  0
  -89.5807   33.7244   -3.6137 N   0  0  0  0  0  0  0  0  0  0  0  0
  -88.4648   33.5297   -2.8481 C   0  0  0  0  0  0  0  0  0  0  0  0
  -88.3123   32.3312   -2.1896 C   0  0  0  0  0  0  0  0  0  0  0  0
  -87.1805   32.1367   -1.4042 C   0  0  0  0  0  0  0  0  0  0  0  0
  -85.8015   33.0478   -0.9838 S   0  0  0  0  0  0  0  0  0  0  0  0
  -83.7423   32.0850    0.7457 C   0  0  0  0  0  0  0  0  0  0  0  0
  -82.7649   32.5942    0.1048 N   0  0  0  0  0  0  0  0  0  0  0  0
  -81.8311   32.7339    0.5381 H   0  0  0  0  0  0  0  0  0  0  0  0
  -84.7658   31.4618    2.8362 C   0  0  0  0  0  0  0  0  0  0  0  0
  -83.6057   31.6959    2.0437 O   0  0  0  0  0  0  0  0  0  0  0  0
  -87.5203   34.5756   -2.8575 N   0  0  0  0  0  0  0  0  0  0  0  0
  -86.6673   34.6021   -2.2955 H   0  0  0  0  0  0  0  0  0  0  0  0
  -87.6846   35.7268   -3.7137 C   0  0  0  0  0  0  0  0  0  0  0  0
  -87.1950   35.6506   -5.0243 C   0  0  0  0  0  0  0  0  0  0  0  0
  -87.3107   36.7499   -5.8365 C   0  0  0  0  0  0  0  0  0  0  0  0
  -87.8863   37.9261   -5.4234 C   0  0  0  0  0  0  0  0  0  0  0  0
  -88.3587   37.9862   -4.1426 C   0  0  0  0  0  0  0  0  0  0  0  0
  -88.2571   36.8849   -3.2866 C   0  0  0  0  0  0  0  0  0  0  0  0
  -87.9686   39.0238   -6.3312 N   0  0  0  0  0  0  0  0  0  0  0  0
  -89.2600   39.5294   -6.6989 C   0  0  0  0  0  0  0  0  0  0  0  0
  -86.7839   39.6170   -6.8716 C   0  0  0  0  0  0  0  0  0  0  0  0
 17 18  1  0  0  0
 18 14  1  0  0  0
 14 15  2  0  0  0
 14  1  1  0  0  0
  1  2  2  0  0  0
  2  3  1  0  0  0
  3  4  2  0  0  0
  4  5  1  0  0  0
  5  6  2  0  0  0
  6  7  1  0  0  0
  7  8  2  0  0  0
  8  9  1  0  0  0
  9 10  2  0  0  0
 10 19  1  0  0  0
 19 21  1  0  0  0
 21 22  2  0  0  0
 22 23  1  0  0  0
 23 24  2  0  0  0
 24 25  1  0  0  0
 25 26  2  0  0  0
 24 27  1  0  0  0
 27 28  1  0  0  0
 27 29  1  0  0  0
 10 11  1  0  0  0
 11 12  2  0  0  0
 12 13  1  0  0  0
 13  1  1  0  0  0
 12  3  1  0  0  0
 11  6  1  0  0  0
 26 21  1  0  0  0
 15 16  1  0  0  0
 19 20  1  0  0  0
M  END
> <minimizedAffinity>
-6.67751

> <CNNscore>
0.4415611327

> <CNNaffinity>
6.5190553665

> <CNN_VS>
2.8785614967

> <CNNaffinity_variance>
0.0382934436

$$$$
[H]N=C(OC([H])([H])[H])c1nc2c([H])c([H])c3nc([H])nc(N([H])c4c([H])c([H])c(N(C([H])([H])[H])C([H])([H])[H])c([H])c4[H])c3c2s1


 29 32  0  0  0  0  0  0  0  0999 V2000
  -85.7073   29.2862    1.1724 C   0  0  0  0  0  0  0  0  0  0  0  0
  -85.1814   30.4955    1.1246 N   0  0  0  0  0  0  0  0  0  0  0  0
  -85.6860   31.4001    0.3422 C   0  0  0  0  0  0  0  0  0  0  0  0
  -85.2144   32.7242    0.1939 C   0  0  0  0  0  0  0  0  0  0  0  0
  -85.8485   33.5563   -0.6755 C   0  0  0  0  0  0  0  0  0  0  0  0
  -86.9262   33.2298   -1.4404 C   0  0  0  0  0  0  0  0  0  0  0  0
  -87.5656   34.0179   -2.3056 N   0  0  0  0  0  0  0  0  0  0  0  0
  -88.6346   33.5646   -3.0199 C   0  0  0  0  0  0  0  0  0  0  0  0
  -89.0981   32.3277   -2.8990 N   0  0  0  0  0  0  0  0  0  0  0  0
  -88.4851   31.4712   -2.0271 C   0  0  0  0  0  0  0  0  0  0  0  0
  -87.4048   31.9214   -1.3034 C   0  0  0  0  0  0  0  0  0  0  0  0
  -86.7764   31.0470   -0.4224 C   0  0  0  0  0  0  0  0  0  0  0  0
  -86.9815   29.4235    0.0578 S   0  0  0  0  0  0  0  0  0  0  0  0
  -85.3089   28.1221    1.9728 C   0  0  0  0  0  0  0  0  0  0  0  0
  -85.9222   27.0248    1.7600 N   0  0  0  0  0  0  0  0  0  0  0  0
  -85.7002   26.1556    2.2839 H   0  0  0  0  0  0  0  0  0  0  0  0
  -82.9587   28.1291    2.5043 C   0  0  0  0  0  0  0  0  0  0  0  0
  -84.3224   28.2063    2.9080 O   0  0  0  0  0  0  0  0  0  0  0  0
  -89.0717   30.1962   -1.9000 N   0  0  0  0  0  0  0  0  0  0  0  0
  -88.6202   29.3808   -1.4814 H   0  0  0  0  0  0  0  0  0  0  0  0
  -90.4193   29.9423   -2.3525 C   0  0  0  0  0  0  0  0  0  0  0  0
  -91.3796   29.5810   -1.3983 C   0  0  0  0  0  0  0  0  0  0  0  0
  -92.6546   29.3004   -1.8192 C   0  0  0  0  0  0  0  0  0  0  0  0
  -93.0352   29.3571   -3.1373 C   0  0  0  0  0  0  0  0  0  0  0  0
  -92.0880   29.7101   -4.0568 C   0  0  0  0  0  0  0  0  0  0  0  0
  -90.7782   30.0025   -3.6636 C   0  0  0  0  0  0  0  0  0  0  0  0
  -94.3826   29.0507   -3.4924 N   0  0  0  0  0  0  0  0  0  0  0  0
  -94.8986   29.5236   -4.7449 C   0  0  0  0  0  0  0  0  0  0  0  0
  -95.2138   28.2831   -2.6164 C   0  0  0  0  0  0  0  0  0  0  0  0
 17 18  1  0  0  0
 18 14  1  0  0  0
 14 15  2  0  0  0
 14  1  1  0  0  0
  1  2  2  0  0  0
  2  3  1  0  0  0
  3  4  2  0  0  0
  4  5  1  0  0  0
  5  6  2  0  0  0
  6  7  1  0  0  0
  7  8  2  0  0  0
  8  9  1  0  0  0
  9 10  2  0  0  0
 10 19  1  0  0  0
 19 21  1  0  0  0
 21 22  2  0  0  0
 22 23  1  0  0  0
 23 24  2  0  0  0
 24 25  1  0  0  0
 25 26  2  0  0  0
 24 27  1  0  0  0
 27 28  1  0  0  0
 27 29  1  0  0  0
 10 11  1  0  0  0
 11 12  2  0  0  0
 12 13  1  0  0  0
 13  1  1  0  0  0
 12  3  1  0  0  0
 11  6  1  0  0  0
 26 21  1  0  0  0
 15 16  1  0  0  0
 19 20  1  0  0  0
M  END
> <minimizedAffinity>
-6.75836

> <CNNscore>
0.1732003838

> <CNNaffinity>
6.1856918335

> <CNN_VS>
1.0713641644

> <CNNaffinity_variance>
0.1073708907

$$$$
[H]N=C(OC([H])([H])[H])c1nc2c([H])c([H])c3nc([H])nc(N([H])c4c([H])c([H])c(N(C([H])([H])[H])C([H])([H])[H])c([H])c4[H])c3c2s1


 29 32  0  0  0  0  0  0  0  0999 V2000
  -85.0267   32.1612   -0.0680 C   0  0  0  0  0  0  0  0  0  0  0  0
  -85.7284   33.0205   -0.7826 N   0  0  0  0  0  0  0  0  0  0  0  0
  -86.9322   32.7248   -1.1679 C   0  0  0  0  0  0  0  0  0  0  0  0
  -87.7817   33.5502   -1.9392 C   0  0  0  0  0  0  0  0  0  0  0  0
  -89.0198   33.0947   -2.2710 C   0  0  0  0  0  0  0  0  0  0  0  0
  -89.5378   31.8850   -1.9226 C   0  0  0  0  0  0  0  0  0  0  0  0
  -90.7422   31.4063   -2.2366 N   0  0  0  0  0  0  0  0  0  0  0  0
  -91.1403   30.1679   -1.8287 C   0  0  0  0  0  0  0  0  0  0  0  0
  -90.3638   29.3739   -1.1035 N   0  0  0  0  0  0  0  0  0  0  0  0
  -89.1167   29.8084   -0.7489 C   0  0  0  0  0  0  0  0  0  0  0  0
  -88.7076   31.0569   -1.1578 C   0  0  0  0  0  0  0  0  0  0  0  0
  -87.4356   31.4952   -0.8035 C   0  0  0  0  0  0  0  0  0  0  0  0
  -86.1150   30.8647    0.0723 S   0  0  0  0  0  0  0  0  0  0  0  0
  -83.6668   32.2810    0.4711 C   0  0  0  0  0  0  0  0  0  0  0  0
  -82.8538   33.0428   -0.1486 N   0  0  0  0  0  0  0  0  0  0  0  0
  -81.8741   33.1817    0.1679 H   0  0  0  0  0  0  0  0  0  0  0  0
  -82.8212   30.2632    1.4810 C   0  0  0  0  0  0  0  0  0  0  0  0
  -83.2838   31.6060    1.5903 O   0  0  0  0  0  0  0  0  0  0  0  0
  -88.3737   28.9419    0.0777 N   0  0  0  0  0  0  0  0  0  0  0  0
  -87.4208   29.1144    0.4037 H   0  0  0  0  0  0  0  0  0  0  0  0
  -88.9354   27.7032    0.5627 C   0  0  0  0  0  0  0  0  0  0  0  0
  -89.7009   27.7393    1.7357 C   0  0  0  0  0  0  0  0  0  0  0  0
  -90.2090   26.5643    2.2282 C   0  0  0  0  0  0  0  0  0  0  0  0
  -90.0016   25.3494    1.6229 C   0  0  0  0  0  0  0  0  0  0  0  0
  -89.2526   25.3292    0.4801 C   0  0  0  0  0  0  0  0  0  0  0  0
  -88.7185   26.5079   -0.0502 C   0  0  0  0  0  0  0  0  0  0  0  0
  -90.5661   24.1727    2.1994 N   0  0  0  0  0  0  0  0  0  0  0  0
  -90.9383   23.0850    1.3410 C   0  0  0  0  0  0  0  0  0  0  0  0
  -90.7616   24.0719    3.6133 C   0  0  0  0  0  0  0  0  0  0  0  0
 17 18  1  0  0  0
 18 14  1  0  0  0
 14 15  2  0  0  0
 14  1  1  0  0  0
  1  2  2  0  0  0
  2  3  1  0  0  0
  3  4  2  0  0  0
  4  5  1  0  0  0
  5  6  2  0  0  0
  6  7  1  0  0  0
  7  8  2  0  0  0
  8  9  1  0  0  0
  9 10  2  0  0  0
 10 19  1  0  0  0
 19 21  1  0  0  0
 21 22  2  0  0  0
 22 23  1  0  0  0
 23 24  2  0  0  0
 24 25  1  0  0  0
 25 26  2  0  0  0
 24 27  1  0  0  0
 27 28  1  0  0  0
 27 29  1  0  0  0
 10 11  1  0  0  0
 11 12  2  0  0  0
 12 13  1  0  0  0
 13  1  1  0  0  0
 12  3  1  0  0  0
 11  6  1  0  0  0
 26 21  1  0  0  0
 15 16  1  0  0  0
 19 20  1  0  0  0
M  END
> <minimizedAffinity>
-7.65376

> <CNNscore>
0.1665390879

> <CNNaffinity>
6.4077658653

> <CNN_VS>
1.0671434402

> <CNNaffinity_variance>
0.0415890999

$$$$
[H]N=C(OC([H])([H])[H])c1nc2c([H])c([H])c3nc([H])nc(N([H])c4c([H])c([H])c(N(C([H])([H])[H])C([H])([H])[H])c([H])c4[H])c3c2s1


 29 32  0  0  0  0  0  0  0  0999 V2000
  -87.1827   32.2109   -2.1270 C   0  0  0  0  0  0  0  0  0  0  0  0
  -86.4905   32.1473   -1.0054 N   0  0  0  0  0  0  0  0  0  0  0  0
  -86.4144   31.0331   -0.3435 C   0  0  0  0  0  0  0  0  0  0  0  0
  -85.7147   30.8353    0.8685 C   0  0  0  0  0  0  0  0  0  0  0  0
  -85.7345   29.6046    1.4477 C   0  0  0  0  0  0  0  0  0  0  0  0
  -86.3815   28.5107    0.9602 C   0  0  0  0  0  0  0  0  0  0  0  0
  -86.4265   27.2946    1.5057 N   0  0  0  0  0  0  0  0  0  0  0  0
  -87.1202   26.2796    0.9167 C   0  0  0  0  0  0  0  0  0  0  0  0
  -87.7840   26.4378   -0.2208 N   0  0  0  0  0  0  0  0  0  0  0  0
  -87.7757   27.6620   -0.8295 C   0  0  0  0  0  0  0  0  0  0  0  0
  -87.0784   28.6917   -0.2403 C   0  0  0  0  0  0  0  0  0  0  0  0
  -87.0770   29.9393   -0.8560 C   0  0  0  0  0  0  0  0  0  0  0  0
  -87.7602   30.6194   -2.2628 S   0  0  0  0  0  0  0  0  0  0  0  0
  -87.4024   33.3476   -3.0293 C   0  0  0  0  0  0  0  0  0  0  0  0
  -86.4046   34.1007   -3.2798 N   0  0  0  0  0  0  0  0  0  0  0  0
  -86.4768   34.9251   -3.9078 H   0  0  0  0  0  0  0  0  0  0  0  0
  -89.3732   34.7279   -3.1591 C   0  0  0  0  0  0  0  0  0  0  0  0
  -88.6237   33.5922   -3.5802 O   0  0  0  0  0  0  0  0  0  0  0  0
  -88.4443   27.7397   -2.0676 N   0  0  0  0  0  0  0  0  0  0  0  0
  -87.9969   27.9307   -2.9661 H   0  0  0  0  0  0  0  0  0  0  0  0
  -89.8690   27.5254   -2.1652 C   0  0  0  0  0  0  0  0  0  0  0  0
  -90.3232   26.4374   -2.9224 C   0  0  0  0  0  0  0  0  0  0  0  0
  -91.6746   26.2441   -3.0545 C   0  0  0  0  0  0  0  0  0  0  0  0
  -92.6070   27.0703   -2.4771 C   0  0  0  0  0  0  0  0  0  0  0  0
  -92.1497   28.1277   -1.7421 C   0  0  0  0  0  0  0  0  0  0  0  0
  -90.7787   28.3555   -1.5866 C   0  0  0  0  0  0  0  0  0  0  0  0
  -93.9955   26.7992   -2.6624 N   0  0  0  0  0  0  0  0  0  0  0  0
  -94.8876   27.8879   -2.9406 C   0  0  0  0  0  0  0  0  0  0  0  0
  -94.4984   25.4626   -2.5732 C   0  0  0  0  0  0  0  0  0  0  0  0
 17 18  1  0  0  0
 18 14  1  0  0  0
 14 15  2  0  0  0
 14  1  1  0  0  0
  1  2  2  0  0  0
  2  3  1  0  0  0
  3  4  2  0  0  0
  4  5  1  0  0  0
  5  6  2  0  0  0
  6  7  1  0  0  0
  7  8  2  0  0  0
  8  9  1  0  0  0
  9 10  2  0  0  0
 10 19  1  0  0  0
 19 21  1  0  0  0
 21 22  2  0  0  0
 22 23  1  0  0  0
 23 24  2  0  0  0
 24 25  1  0  0  0
 25 26  2  0  0  0
 24 27  1  0  0  0
 27 28  1  0  0  0
 27 29  1  0  0  0
 10 11  1  0  0  0
 11 12  2  0  0  0
 12 13  1  0  0  0
 13  1  1  0  0  0
 12  3  1  0  0  0
 11  6  1  0  0  0
 26 21  1  0  0  0
 15 16  1  0  0  0
 19 20  1  0  0  0
M  END
> <minimizedAffinity>
-6.76754

> <CNNscore>
0.1215966195

> <CNNaffinity>
5.9417142868

> <CNN_VS>
0.7224923968

> <CNNaffinity_variance>
0.1978783607

$$$$
[H]N=C(OC([H])([H])[H])c1nc2c([H])c([H])c3nc([H])nc(N([H])c4c([H])c([H])c(N(C([H])([H])[H])C([H])([H])[H])c([H])c4[H])c3c2s1


 29 32  0  0  0  0  0  0  0  0999 V2000
  -85.3153   31.8969    0.1729 C   0  0  0  0  0  0  0  0  0  0  0  0
  -85.5200   32.9741   -0.5612 N   0  0  0  0  0  0  0  0  0  0  0  0
  -86.5655   33.0580   -1.3261 C   0  0  0  0  0  0  0  0  0  0  0  0
  -86.8950   34.1486   -2.1626 C   0  0  0  0  0  0  0  0  0  0  0  0
  -88.0273   34.0846   -2.9139 C   0  0  0  0  0  0  0  0  0  0  0  0
  -88.9016   33.0416   -2.9404 C   0  0  0  0  0  0  0  0  0  0  0  0
  -90.0144   32.9446   -3.6690 N   0  0  0  0  0  0  0  0  0  0  0  0
  -90.8054   31.8359   -3.6093 C   0  0  0  0  0  0  0  0  0  0  0  0
  -90.5201   30.7994   -2.8323 N   0  0  0  0  0  0  0  0  0  0  0  0
  -89.3922   30.8389   -2.0604 C   0  0  0  0  0  0  0  0  0  0  0  0
  -88.5883   31.9543   -2.1162 C   0  0  0  0  0  0  0  0  0  0  0  0
  -87.4365   31.9906   -1.3366 C   0  0  0  0  0  0  0  0  0  0  0  0
  -86.6640   30.9468   -0.2311 S   0  0  0  0  0  0  0  0  0  0  0  0
  -84.2190   31.5884    1.0988 C   0  0  0  0  0  0  0  0  0  0  0  0
  -83.0450   31.4970    0.6100 N   0  0  0  0  0  0  0  0  0  0  0  0
  -82.2156   31.2818    1.1976 H   0  0  0  0  0  0  0  0  0  0  0  0
  -85.0572   30.2038    2.8839 C   0  0  0  0  0  0  0  0  0  0  0  0
  -84.4426   31.4059    2.4298 O   0  0  0  0  0  0  0  0  0  0  0  0
  -89.1879   29.7339   -1.2100 N   0  0  0  0  0  0  0  0  0  0  0  0
  -88.5635   29.7224   -0.4012 H   0  0  0  0  0  0  0  0  0  0  0  0
  -89.8913   28.4896   -1.4150 C   0  0  0  0  0  0  0  0  0  0  0  0
  -90.9597   28.1861   -0.5609 C   0  0  0  0  0  0  0  0  0  0  0  0
  -91.6126   26.9904   -0.7205 C   0  0  0  0  0  0  0  0  0  0  0  0
  -91.2666   26.0734   -1.6821 C   0  0  0  0  0  0  0  0  0  0  0  0
  -90.2223   26.3825   -2.5075 C   0  0  0  0  0  0  0  0  0  0  0  0
  -89.5336   27.5921   -2.3732 C   0  0  0  0  0  0  0  0  0  0  0  0
  -91.9976   24.8522   -1.7826 N   0  0  0  0  0  0  0  0  0  0  0  0
  -92.3725   24.1628   -0.5815 C   0  0  0  0  0  0  0  0  0  0  0  0
  -92.3552   24.3164   -3.0604 C   0  0  0  0  0  0  0  0  0  0  0  0
 17 18  1  0  0  0
 18 14  1  0  0  0
 14 15  2  0  0  0
 14  1  1  0  0  0
  1  2  2  0  0  0
  2  3  1  0  0  0
  3  4  2  0  0  0
  4  5  1  0  0  0
  5  6  2  0  0  0
  6  7  1  0  0  0
  7  8  2  0  0  0
  8  9  1  0  0  0
  9 10  2  0  0  0
 10 19  1  0  0  0
 19 21  1  0  0  0
 21 22  2  0  0  0
 22 23  1  0  0  0
 23 24  2  0  0  0
 24 25  1  0  0  0
 25 26  2  0  0  0
 24 27  1  0  0  0
 27 28  1  0  0  0
 27 29  1  0  0  0
 10 11  1  0  0  0
 11 12  2  0  0  0
 12 13  1  0  0  0
 13  1  1  0  0  0
 12  3  1  0  0  0
 11  6  1  0  0  0
 26 21  1  0  0  0
 15 16  1  0  0  0
 19 20  1  0  0  0
M  END
> <minimizedAffinity>
-6.64421

> <CNNscore>
0.1010369807

> <CNNaffinity>
6.1681489944

> <CNN_VS>
0.6232111454

> <CNNaffinity_variance>
0.0852900669

$$$$
[H]N=C(OC([H])([H])[H])c1nc2c([H])c([H])c3nc([H])nc(N([H])c4c([H])c([H])c(N(C([H])([H])[H])C([H])([H])[H])c([H])c4[H])c3c2s1


 29 32  0  0  0  0  0  0  0  0999 V2000
  -84.9229   31.1041    0.2952 C   0  0  0  0  0  0  0  0  0  0  0  0
  -85.5443   32.1943   -0.1130 N   0  0  0  0  0  0  0  0  0  0  0  0
  -86.7393   32.1196   -0.6147 C   0  0  0  0  0  0  0  0  0  0  0  0
  -87.5069   33.2059   -1.0925 C   0  0  0  0  0  0  0  0  0  0  0  0
  -88.7465   32.9652   -1.5984 C   0  0  0  0  0  0  0  0  0  0  0  0
  -89.3393   31.7434   -1.6927 C   0  0  0  0  0  0  0  0  0  0  0  0
  -90.5474   31.4728   -2.1885 N   0  0  0  0  0  0  0  0  0  0  0  0
  -91.0251   30.1967   -2.2324 C   0  0  0  0  0  0  0  0  0  0  0  0
  -90.3263   29.1598   -1.7899 N   0  0  0  0  0  0  0  0  0  0  0  0
  -89.0800   29.3726   -1.2692 C   0  0  0  0  0  0  0  0  0  0  0  0
  -88.5907   30.6579   -1.2225 C   0  0  0  0  0  0  0  0  0  0  0  0
  -87.3193   30.8728   -0.7001 C   0  0  0  0  0  0  0  0  0  0  0  0
  -86.0779   29.9056   -0.0430 S   0  0  0  0  0  0  0  0  0  0  0  0
  -83.5887   30.9524    0.8879 C   0  0  0  0  0  0  0  0  0  0  0  0
  -82.6054   31.4697    0.2626 N   0  0  0  0  0  0  0  0  0  0  0  0
  -81.6301   31.4067    0.6148 H   0  0  0  0  0  0  0  0  0  0  0  0
  -82.7731   29.0080    2.0542 C   0  0  0  0  0  0  0  0  0  0  0  0
  -83.4035   30.2852    2.0607 O   0  0  0  0  0  0  0  0  0  0  0  0
  -88.4235   28.2359   -0.7566 N   0  0  0  0  0  0  0  0  0  0  0  0
  -87.6954   27.7089   -1.2426 H   0  0  0  0  0  0  0  0  0  0  0  0
  -88.7295   27.7220    0.5577 C   0  0  0  0  0  0  0  0  0  0  0  0
  -87.9045   26.7189    1.0835 C   0  0  0  0  0  0  0  0  0  0  0  0
  -88.2058   26.1953    2.3149 C   0  0  0  0  0  0  0  0  0  0  0  0
  -89.2825   26.6100    3.0594 C   0  0  0  0  0  0  0  0  0  0  0  0
  -90.0786   27.5884    2.5338 C   0  0  0  0  0  0  0  0  0  0  0  0
  -89.8018   28.1446    1.2809 C   0  0  0  0  0  0  0  0  0  0  0  0
  -89.5263   26.0144    4.3328 N   0  0  0  0  0  0  0  0  0  0  0  0
  -89.2289   24.6234    4.5206 C   0  0  0  0  0  0  0  0  0  0  0  0
  -90.0603   26.7874    5.4121 C   0  0  0  0  0  0  0  0  0  0  0  0
 17 18  1  0  0  0
 18 14  1  0  0  0
 14 15  2  0  0  0
 14  1  1  0  0  0
  1  2  2  0  0  0
  2  3  1  0  0  0
  3  4  2  0  0  0
  4  5  1  0  0  0
  5  6  2  0  0  0
  6  7  1  0  0  0
  7  8  2  0  0  0
  8  9  1  0  0  0
  9 10  2  0  0  0
 10 19  1  0  0  0
 19 21  1  0  0  0
 21 22  2  0  0  0
 22 23  1  0  0  0
 23 24  2  0  0  0
 24 25  1  0  0  0
 25 26  2  0  0  0
 24 27  1  0  0  0
 27 28  1  0  0  0
 27 29  1  0  0  0
 10 11  1  0  0  0
 11 12  2  0  0  0
 12 13  1  0  0  0
 13  1  1  0  0  0
 12  3  1  0  0  0
 11  6  1  0  0  0
 26 21  1  0  0  0
 15 16  1  0  0  0
 19 20  1  0  0  0
M  END
> <minimizedAffinity>
-7.87502

> <CNNscore>
0.0854122043

> <CNNaffinity>
6.3059296608

> <CNN_VS>
0.5386033654

> <CNNaffinity_variance>
0.0609024875

$$$$
[H]OC([H])([H])[C@@]([H])(N([H])c1nn2c(-c3c([H])c([H])c([H])c(C(=O)OC([H])([H])C([H])([H])[H])c3[H])c([H])nc2c([H])c1[H])C([H])([H])C([H])([H])[H]


 28 30  0  0  0  0  0  0  0  0999 V2000
  -84.2280   31.6040    0.2358 C   0  0  0  0  0  0  0  0  0  0  0  0
  -83.2043   32.5259    0.0148 C   0  0  0  0  0  0  0  0  0  0  0  0
  -83.6670   33.5477   -0.7172 N   0  0  0  0  0  0  0  0  0  0  0  0
  -84.9695   33.3133   -0.9787 C   0  0  0  0  0  0  0  0  0  0  0  0
  -85.9077   34.0387   -1.6843 C   0  0  0  0  0  0  0  0  0  0  0  0
  -87.1795   33.5189   -1.7714 C   0  0  0  0  0  0  0  0  0  0  0  0
  -87.4609   32.2994   -1.1521 C   0  0  0  0  0  0  0  0  0  0  0  0
  -86.5001   31.6525   -0.4851 N   0  0  0  0  0  0  0  0  0  0  0  0
  -85.2896   32.1194   -0.3859 N   0  0  0  0  0  0  0  0  0  0  0  0
  -85.0520   28.3614    1.9376 C   0  0  0  0  0  0  0  0  0  0  0  0
  -83.8510   27.9569    2.4680 C   0  0  0  0  0  0  0  0  0  0  0  0
  -82.7619   28.7640    2.2601 C   0  0  0  0  0  0  0  0  0  0  0  0
  -82.8660   29.9572    1.5345 C   0  0  0  0  0  0  0  0  0  0  0  0
  -84.0536   30.3824    0.9953 C   0  0  0  0  0  0  0  0  0  0  0  0
  -85.1465   29.5328    1.2272 C   0  0  0  0  0  0  0  0  0  0  0  0
  -86.2121   27.5075    2.1557 C   0  0  0  0  0  0  0  0  0  0  0  0
  -86.0207   26.2651    2.2737 O   0  0  0  0  0  0  0  0  0  0  0  0
  -87.4973   27.9799    2.2392 O   0  0  0  0  0  0  0  0  0  0  0  0
  -88.4925   28.4025    0.0933 C   0  0  0  0  0  0  0  0  0  0  0  0
  -88.4770   27.5270    1.3211 C   0  0  0  0  0  0  0  0  0  0  0  0
  -88.7653   31.7443   -1.2506 N   0  0  0  0  0  0  0  0  0  0  0  0
  -89.2788   31.5955   -0.3277 H   0  0  0  0  0  0  0  0  0  0  0  0
  -89.3654   31.4015   -2.5052 C   0  0  0  0  0  0  0  0  0  0  0  0
  -90.7774   30.8880   -2.2091 C   0  0  0  0  0  0  0  0  0  0  0  0
  -91.7288   31.7101   -2.7818 O   0  0  0  0  0  0  0  0  0  0  0  0
  -91.3363   32.3430   -3.4132 H   0  0  0  0  0  0  0  0  0  0  0  0
  -88.5436   30.3921   -3.2203 C   0  0  0  0  0  0  0  0  0  0  0  0
  -87.9041   30.9388   -4.4813 C   0  0  0  0  0  0  0  0  0  0  0  0
 19 20  1  0  0  0
 20 18  1  0  0  0
 18 16  1  0  0  0
 16 17  2  0  0  0
 16 10  1  0  0  0
 10 11  2  0  0  0
 11 12  1  0  0  0
 12 13  2  0  0  0
 13 14  1  0  0  0
 14 15  2  0  0  0
 14  1  1  0  0  0
  1  2  2  0  0  0
  2  3  1  0  0  0
  3  4  2  0  0  0
  4  5  1  0  0  0
  5  6  2  0  0  0
  6  7  1  0  0  0
  7 21  1  0  0  0
 21 23  1  0  0  0
 23 27  1  0  0  0
 27 28  1  0  0  0
 23 24  1  0  0  0
 24 25  1  0  0  0
  7  8  2  0  0  0
  8  9  1  0  0  0
 15 10  1  0  0  0
  9  1  1  0  0  0
  9  4  1  0  0  0
 21 22  1  0  0  0
 25 26  1  0  0  0
M  END
> <minimizedAffinity>
-8.39410

> <CNNscore>
0.8518381119

> <CNNaffinity>
6.6202979088

> <CNN_VS>
5.6394219398

> <CNNaffinity_variance>
0.1883711666

$$$$
[H]OC([H])([H])[C@@]([H])(N([H])c1nn2c(-c3c([H])c([H])c([H])c(C(=O)OC([H])([H])C([H])([H])[H])c3[H])c([H])nc2c([H])c1[H])C([H])([H])C([H])([H])[H]


 28 30  0  0  0  0  0  0  0  0999 V2000
  -84.8766   29.7217    1.1521 C   0  0  0  0  0  0  0  0  0  0  0  0
  -84.1656   29.3869    2.3050 C   0  0  0  0  0  0  0  0  0  0  0  0
  -84.5531   28.1810    2.7404 N   0  0  0  0  0  0  0  0  0  0  0  0
  -85.5009   27.7214    1.8977 C   0  0  0  0  0  0  0  0  0  0  0  0
  -86.2248   26.5466    1.8854 C   0  0  0  0  0  0  0  0  0  0  0  0
  -87.1370   26.3724    0.8690 C   0  0  0  0  0  0  0  0  0  0  0  0
  -87.2881   27.3758   -0.0903 C   0  0  0  0  0  0  0  0  0  0  0  0
  -86.5512   28.4883   -0.0137 N   0  0  0  0  0  0  0  0  0  0  0  0
  -85.6817   28.6805    0.9350 N   0  0  0  0  0  0  0  0  0  0  0  0
  -85.6626   32.7251   -0.9577 C   0  0  0  0  0  0  0  0  0  0  0  0
  -84.4684   33.4014   -1.0201 C   0  0  0  0  0  0  0  0  0  0  0  0
  -83.3967   32.8585   -0.3588 C   0  0  0  0  0  0  0  0  0  0  0  0
  -83.5111   31.6590    0.3548 C   0  0  0  0  0  0  0  0  0  0  0  0
  -84.6921   30.9653    0.4319 C   0  0  0  0  0  0  0  0  0  0  0  0
  -85.7673   31.5493   -0.2559 C   0  0  0  0  0  0  0  0  0  0  0  0
  -86.8042   33.2978   -1.6585 C   0  0  0  0  0  0  0  0  0  0  0  0
  -86.6838   34.4588   -2.1397 O   0  0  0  0  0  0  0  0  0  0  0  0
  -87.9995   32.6449   -1.8228 O   0  0  0  0  0  0  0  0  0  0  0  0
  -87.7334   31.7404   -4.0330 C   0  0  0  0  0  0  0  0  0  0  0  0
  -88.5907   32.5674   -3.1082 C   0  0  0  0  0  0  0  0  0  0  0  0
  -88.2393   27.2148   -1.1336 N   0  0  0  0  0  0  0  0  0  0  0  0
  -87.9384   26.5926   -1.9459 H   0  0  0  0  0  0  0  0  0  0  0  0
  -89.5261   27.8434   -1.1084 C   0  0  0  0  0  0  0  0  0  0  0  0
  -89.4510   29.0707   -2.0211 C   0  0  0  0  0  0  0  0  0  0  0  0
  -90.2080   28.8815   -3.1614 O   0  0  0  0  0  0  0  0  0  0  0  0
  -90.7896   28.1003   -3.0916 H   0  0  0  0  0  0  0  0  0  0  0  0
  -89.9054   28.2044    0.2813 C   0  0  0  0  0  0  0  0  0  0  0  0
  -91.1813   29.0201    0.3512 C   0  0  0  0  0  0  0  0  0  0  0  0
 19 20  1  0  0  0
 20 18  1  0  0  0
 18 16  1  0  0  0
 16 17  2  0  0  0
 16 10  1  0  0  0
 10 11  2  0  0  0
 11 12  1  0  0  0
 12 13  2  0  0  0
 13 14  1  0  0  0
 14 15  2  0  0  0
 14  1  1  0  0  0
  1  2  2  0  0  0
  2  3  1  0  0  0
  3  4  2  0  0  0
  4  5  1  0  0  0
  5  6  2  0  0  0
  6  7  1  0  0  0
  7 21  1  0  0  0
 21 23  1  0  0  0
 23 27  1  0  0  0
 27 28  1  0  0  0
 23 24  1  0  0  0
 24 25  1  0  0  0
  7  8  2  0  0  0
  8  9  1  0  0  0
 15 10  1  0  0  0
  9  1  1  0  0  0
  9  4  1  0  0  0
 21 22  1  0  0  0
 25 26  1  0  0  0
M  END
> <minimizedAffinity>
-7.32676

> <CNNscore>
0.7231619358

> <CNNaffinity>
6.5798287392

> <CNN_VS>
4.7582817078

> <CNNaffinity_variance>
0.2339466512

$$$$
[H]OC([H])([H])[C@@]([H])(N([H])c1nn2c(-c3c([H])c([H])c([H])c(C(=O)OC([H])([H])C([H])([H])[H])c3[H])c([H])nc2c([H])c1[H])C([H])([H])C([H])([H])[H]


 28 30  0  0  0  0  0  0  0  0999 V2000
  -85.7089   32.0782   -0.1939 C   0  0  0  0  0  0  0  0  0  0  0  0
  -85.4727   33.3667   -0.6743 C   0  0  0  0  0  0  0  0  0  0  0  0
  -86.5946   33.8600   -1.2146 N   0  0  0  0  0  0  0  0  0  0  0  0
  -87.5575   32.9224   -1.0976 C   0  0  0  0  0  0  0  0  0  0  0  0
  -88.8821   32.9158   -1.4842 C   0  0  0  0  0  0  0  0  0  0  0  0
  -89.6170   31.7828   -1.2168 C   0  0  0  0  0  0  0  0  0  0  0  0
  -89.0002   30.7061   -0.5761 C   0  0  0  0  0  0  0  0  0  0  0  0
  -87.7114   30.7847   -0.2307 N   0  0  0  0  0  0  0  0  0  0  0  0
  -86.9923   31.8423   -0.4705 N   0  0  0  0  0  0  0  0  0  0  0  0
  -84.1424   29.2499    1.7131 C   0  0  0  0  0  0  0  0  0  0  0  0
  -82.8096   29.5804    1.7506 C   0  0  0  0  0  0  0  0  0  0  0  0
  -82.4282   30.7478    1.1402 C   0  0  0  0  0  0  0  0  0  0  0  0
  -83.3599   31.5750    0.5010 C   0  0  0  0  0  0  0  0  0  0  0  0
  -84.6957   31.2669    0.4501 C   0  0  0  0  0  0  0  0  0  0  0  0
  -85.0505   30.0661    1.0845 C   0  0  0  0  0  0  0  0  0  0  0  0
  -84.5528   28.0108    2.3601 C   0  0  0  0  0  0  0  0  0  0  0  0
  -83.6507   27.2233    2.7603 O   0  0  0  0  0  0  0  0  0  0  0  0
  -85.8630   27.6551    2.5571 O   0  0  0  0  0  0  0  0  0  0  0  0
  -87.8825   26.4169    2.1541 C   0  0  0  0  0  0  0  0  0  0  0  0
  -86.4709   26.7000    1.7051 C   0  0  0  0  0  0  0  0  0  0  0  0
  -89.7440   29.5247   -0.3111 N   0  0  0  0  0  0  0  0  0  0  0  0
  -90.5562   29.6293    0.3723 H   0  0  0  0  0  0  0  0  0  0  0  0
  -89.4331   28.2648   -0.9174 C   0  0  0  0  0  0  0  0  0  0  0  0
  -89.4808   28.4659   -2.4347 C   0  0  0  0  0  0  0  0  0  0  0  0
  -88.2790   28.1089   -3.0153 O   0  0  0  0  0  0  0  0  0  0  0  0
  -87.6993   27.6268   -2.3948 H   0  0  0  0  0  0  0  0  0  0  0  0
  -90.3825   27.2168   -0.4637 C   0  0  0  0  0  0  0  0  0  0  0  0
  -91.1404   27.6103    0.7888 C   0  0  0  0  0  0  0  0  0  0  0  0
 19 20  1  0  0  0
 20 18  1  0  0  0
 18 16  1  0  0  0
 16 17  2  0  0  0
 16 10  1  0  0  0
 10 11  2  0  0  0
 11 12  1  0  0  0
 12 13  2  0  0  0
 13 14  1  0  0  0
 14 15  2  0  0  0
 14  1  1  0  0  0
  1  2  2  0  0  0
  2  3  1  0  0  0
  3  4  2  0  0  0
  4  5  1  0  0  0
  5  6  2  0  0  0
  6  7  1  0  0  0
  7 21  1  0  0  0
 21 23  1  0  0  0
 23 27  1  0  0  0
 27 28  1  0  0  0
 23 24  1  0  0  0
 24 25  1  0  0  0
  7  8  2  0  0  0
  8  9  1  0  0  0
 15 10  1  0  0  0
  9  1  1  0  0  0
  9  4  1  0  0  0
 21 22  1  0  0  0
 25 26  1  0  0  0
M  END
> <minimizedAffinity>
-8.49304

> <CNNscore>
0.5708673596

> <CNNaffinity>
6.3187942505

> <CNN_VS>
3.6071934700

> <CNNaffinity_variance>
0.3938083649

$$$$
[H]OC([H])([H])[C@@]([H])(N([H])c1nn2c(-c3c([H])c([H])c([H])c(C(=O)OC([H])([H])C([H])([H])[H])c3[H])c([H])nc2c([H])c1[H])C([H])([H])C([H])([H])[H]


 28 30  0  0  0  0  0  0  0  0999 V2000
  -84.7973   31.2420    0.4605 C   0  0  0  0  0  0  0  0  0  0  0  0
  -83.5740   31.8994    0.5953 C   0  0  0  0  0  0  0  0  0  0  0  0
  -82.7115   31.1173    1.2575 N   0  0  0  0  0  0  0  0  0  0  0  0
  -83.3445   29.9646    1.5579 C   0  0  0  0  0  0  0  0  0  0  0  0
  -82.9206   28.8328    2.2239 C   0  0  0  0  0  0  0  0  0  0  0  0
  -83.8249   27.8052    2.3710 C   0  0  0  0  0  0  0  0  0  0  0  0
  -85.1117   27.9501    1.8483 C   0  0  0  0  0  0  0  0  0  0  0  0
  -85.4514   29.0768    1.2146 N   0  0  0  0  0  0  0  0  0  0  0  0
  -84.6181   30.0642    1.0605 N   0  0  0  0  0  0  0  0  0  0  0  0
  -88.3093   31.6448   -0.8018 C   0  0  0  0  0  0  0  0  0  0  0  0
  -88.2766   32.8378   -1.4821 C   0  0  0  0  0  0  0  0  0  0  0  0
  -87.0833   33.5125   -1.5224 C   0  0  0  0  0  0  0  0  0  0  0  0
  -85.9380   33.0073   -0.8946 C   0  0  0  0  0  0  0  0  0  0  0  0
  -85.9452   31.8187   -0.2095 C   0  0  0  0  0  0  0  0  0  0  0  0
  -87.1821   31.1555   -0.1886 C   0  0  0  0  0  0  0  0  0  0  0  0
  -89.5746   30.9242   -0.7560 C   0  0  0  0  0  0  0  0  0  0  0  0
  -90.3315   30.9894   -1.7644 O   0  0  0  0  0  0  0  0  0  0  0  0
  -89.9863   30.1809    0.3210 O   0  0  0  0  0  0  0  0  0  0  0  0
  -91.1149   28.3681    1.4228 C   0  0  0  0  0  0  0  0  0  0  0  0
  -90.9336   29.1426    0.1415 C   0  0  0  0  0  0  0  0  0  0  0  0
  -86.0590   26.9033    2.0098 N   0  0  0  0  0  0  0  0  0  0  0  0
  -85.7152   26.0413    2.5355 H   0  0  0  0  0  0  0  0  0  0  0  0
  -87.3961   26.9877    1.5031 C   0  0  0  0  0  0  0  0  0  0  0  0
  -88.3097   26.2837    2.5105 C   0  0  0  0  0  0  0  0  0  0  0  0
  -89.0393   25.2839    1.8964 O   0  0  0  0  0  0  0  0  0  0  0  0
  -88.7098   25.0863    0.9987 H   0  0  0  0  0  0  0  0  0  0  0  0
  -87.4832   26.3791    0.1513 C   0  0  0  0  0  0  0  0  0  0  0  0
  -87.8207   27.3879   -0.9287 C   0  0  0  0  0  0  0  0  0  0  0  0
 19 20  1  0  0  0
 20 18  1  0  0  0
 18 16  1  0  0  0
 16 17  2  0  0  0
 16 10  1  0  0  0
 10 11  2  0  0  0
 11 12  1  0  0  0
 12 13  2  0  0  0
 13 14  1  0  0  0
 14 15  2  0  0  0
 14  1  1  0  0  0
  1  2  2  0  0  0
  2  3  1  0  0  0
  3  4  2  0  0  0
  4  5  1  0  0  0
  5  6  2  0  0  0
  6  7  1  0  0  0
  7 21  1  0  0  0
 21 23  1  0  0  0
 23 27  1  0  0  0
 27 28  1  0  0  0
 23 24  1  0  0  0
 24 25  1  0  0  0
  7  8  2  0  0  0
  8  9  1  0  0  0
 15 10  1  0  0  0
  9  1  1  0  0  0
  9  4  1  0  0  0
 21 22  1  0  0  0
 25 26  1  0  0  0
M  END
> <minimizedAffinity>
-8.15172

> <CNNscore>
0.5232435465

> <CNNaffinity>
6.3643822670

> <CNN_VS>
3.3301219940

> <CNNaffinity_variance>
0.1022839397

$$$$
[H]OC([H])([H])[C@@]([H])(N([H])c1nn2c(-c3c([H])c([H])c([H])c(C(=O)OC([H])([H])C([H])([H])[H])c3[H])c([H])nc2c([H])c1[H])C([H])([H])C([H])([H])[H]


 28 30  0  0  0  0  0  0  0  0999 V2000
  -85.6857   30.6072    0.6142 C   0  0  0  0  0  0  0  0  0  0  0  0
  -84.6434   31.3701    1.1417 C   0  0  0  0  0  0  0  0  0  0  0  0
  -84.6559   32.5921    0.5935 N   0  0  0  0  0  0  0  0  0  0  0  0
  -85.6827   32.6436   -0.2799 C   0  0  0  0  0  0  0  0  0  0  0  0
  -86.1372   33.6548   -1.1016 C   0  0  0  0  0  0  0  0  0  0  0  0
  -87.2327   33.3882   -1.8917 C   0  0  0  0  0  0  0  0  0  0  0  0
  -87.8272   32.1263   -1.8287 C   0  0  0  0  0  0  0  0  0  0  0  0
  -87.3312   31.1953   -1.0079 N   0  0  0  0  0  0  0  0  0  0  0  0
  -86.2975   31.4187   -0.2498 N   0  0  0  0  0  0  0  0  0  0  0  0
  -87.5157   27.3638    1.0844 C   0  0  0  0  0  0  0  0  0  0  0  0
  -86.5945   26.5567    1.7067 C   0  0  0  0  0  0  0  0  0  0  0  0
  -85.3596   27.0910    1.9718 C   0  0  0  0  0  0  0  0  0  0  0  0
  -85.0453   28.4102    1.6227 C   0  0  0  0  0  0  0  0  0  0  0  0
  -85.9477   29.2356    1.0010 C   0  0  0  0  0  0  0  0  0  0  0  0
  -87.2004   28.6566    0.7451 C   0  0  0  0  0  0  0  0  0  0  0  0
  -88.8291   26.8009    0.8006 C   0  0  0  0  0  0  0  0  0  0  0  0
  -88.9887   26.1879   -0.2916 O   0  0  0  0  0  0  0  0  0  0  0  0
  -89.8985   26.9011    1.6540 O   0  0  0  0  0  0  0  0  0  0  0  0
  -90.9894   28.9275    0.9630 C   0  0  0  0  0  0  0  0  0  0  0  0
  -91.1231   27.4427    1.1907 C   0  0  0  0  0  0  0  0  0  0  0  0
  -88.9473   31.8339   -2.6528 N   0  0  0  0  0  0  0  0  0  0  0  0
  -89.3668   30.8598   -2.5398 H   0  0  0  0  0  0  0  0  0  0  0  0
  -89.4897   32.7796   -3.5818 C   0  0  0  0  0  0  0  0  0  0  0  0
  -90.8994   32.3042   -3.9445 C   0  0  0  0  0  0  0  0  0  0  0  0
  -91.0009   32.0583   -5.3003 O   0  0  0  0  0  0  0  0  0  0  0  0
  -90.1286   32.0490   -5.7390 H   0  0  0  0  0  0  0  0  0  0  0  0
  -88.6167   32.8989   -4.7773 C   0  0  0  0  0  0  0  0  0  0  0  0
  -88.3568   34.3381   -5.1763 C   0  0  0  0  0  0  0  0  0  0  0  0
 19 20  1  0  0  0
 20 18  1  0  0  0
 18 16  1  0  0  0
 16 17  2  0  0  0
 16 10  1  0  0  0
 10 11  2  0  0  0
 11 12  1  0  0  0
 12 13  2  0  0  0
 13 14  1  0  0  0
 14 15  2  0  0  0
 14  1  1  0  0  0
  1  2  2  0  0  0
  2  3  1  0  0  0
  3  4  2  0  0  0
  4  5  1  0  0  0
  5  6  2  0  0  0
  6  7  1  0  0  0
  7 21  1  0  0  0
 21 23  1  0  0  0
 23 27  1  0  0  0
 27 28  1  0  0  0
 23 24  1  0  0  0
 24 25  1  0  0  0
  7  8  2  0  0  0
  8  9  1  0  0  0
 15 10  1  0  0  0
  9  1  1  0  0  0
  9  4  1  0  0  0
 21 22  1  0  0  0
 25 26  1  0  0  0
M  END
> <minimizedAffinity>
-6.72826

> <CNNscore>
0.4569383264

> <CNNaffinity>
6.1822600365

> <CNN_VS>
2.8249115944

> <CNNaffinity_variance>
0.3582738638

$$$$
[H]OC([H])([H])[C@@]([H])(N([H])c1nn2c(-c3c([H])c([H])c([H])c(C(=O)OC([H])([H])C([H])([H])[H])c3[H])c([H])nc2c([H])c1[H])C([H])([H])C([H])([H])[H]


 28 30  0  0  0  0  0  0  0  0999 V2000
  -85.4616   30.4177    0.6597 C   0  0  0  0  0  0  0  0  0  0  0  0
  -84.2684   30.9362    1.1639 C   0  0  0  0  0  0  0  0  0  0  0  0
  -84.0595   32.1600    0.6611 N   0  0  0  0  0  0  0  0  0  0  0  0
  -85.0895   32.4516   -0.1598 C   0  0  0  0  0  0  0  0  0  0  0  0
  -85.3663   33.5681   -0.9220 C   0  0  0  0  0  0  0  0  0  0  0  0
  -86.5234   33.5580   -1.6679 C   0  0  0  0  0  0  0  0  0  0  0  0
  -87.3539   32.4363   -1.6219 C   0  0  0  0  0  0  0  0  0  0  0  0
  -87.0205   31.3902   -0.8597 N   0  0  0  0  0  0  0  0  0  0  0  0
  -85.9337   31.3716   -0.1444 N   0  0  0  0  0  0  0  0  0  0  0  0
  -87.8605   27.5547    1.0314 C   0  0  0  0  0  0  0  0  0  0  0  0
  -87.1108   26.5779    1.6405 C   0  0  0  0  0  0  0  0  0  0  0  0
  -85.8025   26.8703    1.9295 C   0  0  0  0  0  0  0  0  0  0  0  0
  -85.2474   28.1174    1.6170 C   0  0  0  0  0  0  0  0  0  0  0  0
  -85.9752   29.1087    1.0091 C   0  0  0  0  0  0  0  0  0  0  0  0
  -87.3094   28.7754    0.7279 C   0  0  0  0  0  0  0  0  0  0  0  0
  -89.2510   27.2491    0.7222 C   0  0  0  0  0  0  0  0  0  0  0  0
  -90.1468   27.7554    1.4537 O   0  0  0  0  0  0  0  0  0  0  0  0
  -89.6377   26.4429   -0.3182 O   0  0  0  0  0  0  0  0  0  0  0  0
  -90.2685   26.3870   -2.6362 C   0  0  0  0  0  0  0  0  0  0  0  0
  -89.1942   26.7266   -1.6338 C   0  0  0  0  0  0  0  0  0  0  0  0
  -88.5416   32.4074   -2.4015 N   0  0  0  0  0  0  0  0  0  0  0  0
  -89.0507   33.3384   -2.5090 H   0  0  0  0  0  0  0  0  0  0  0  0
  -89.0356   31.2089   -3.0109 C   0  0  0  0  0  0  0  0  0  0  0  0
  -89.0115   31.4258   -4.5266 C   0  0  0  0  0  0  0  0  0  0  0  0
  -87.9272   30.7868   -5.0967 O   0  0  0  0  0  0  0  0  0  0  0  0
  -87.4931   30.1724   -4.4744 H   0  0  0  0  0  0  0  0  0  0  0  0
  -90.3992   30.8928   -2.5145 C   0  0  0  0  0  0  0  0  0  0  0  0
  -90.3895   30.1930   -1.1698 C   0  0  0  0  0  0  0  0  0  0  0  0
 19 20  1  0  0  0
 20 18  1  0  0  0
 18 16  1  0  0  0
 16 17  2  0  0  0
 16 10  1  0  0  0
 10 11  2  0  0  0
 11 12  1  0  0  0
 12 13  2  0  0  0
 13 14  1  0  0  0
 14 15  2  0  0  0
 14  1  1  0  0  0
  1  2  2  0  0  0
  2  3  1  0  0  0
  3  4  2  0  0  0
  4  5  1  0  0  0
  5  6  2  0  0  0
  6  7  1  0  0  0
  7 21  1  0  0  0
 21 23  1  0  0  0
 23 27  1  0  0  0
 27 28  1  0  0  0
 23 24  1  0  0  0
 24 25  1  0  0  0
  7  8  2  0  0  0
  8  9  1  0  0  0
 15 10  1  0  0  0
  9  1  1  0  0  0
  9  4  1  0  0  0
 21 22  1  0  0  0
 25 26  1  0  0  0
M  END
> <minimizedAffinity>
-6.97389

> <CNNscore>
0.3950451612

> <CNNaffinity>
6.1294779778

> <CNN_VS>
2.4214205742

> <CNNaffinity_variance>
0.2120548189

$$$$
[H]OC([H])([H])[C@@]([H])(N([H])c1nn2c(-c3c([H])c([H])c([H])c(C(=O)OC([H])([H])C([H])([H])[H])c3[H])c([H])nc2c([H])c1[H])C([H])([H])C([H])([H])[H]


 28 30  0  0  0  0  0  0  0  0999 V2000
  -87.9137   29.9456   -1.4139 C   0  0  0  0  0  0  0  0  0  0  0  0
  -88.5686   30.5697   -2.4762 C   0  0  0  0  0  0  0  0  0  0  0  0
  -88.1367   31.8321   -2.5940 N   0  0  0  0  0  0  0  0  0  0  0  0
  -87.2150   32.0458   -1.6325 C   0  0  0  0  0  0  0  0  0  0  0  0
  -86.4666   33.1599   -1.3116 C   0  0  0  0  0  0  0  0  0  0  0  0
  -85.5940   33.0562   -0.2518 C   0  0  0  0  0  0  0  0  0  0  0  0
  -85.5052   31.8474    0.4418 C   0  0  0  0  0  0  0  0  0  0  0  0
  -86.2625   30.8096    0.0733 N   0  0  0  0  0  0  0  0  0  0  0  0
  -87.0957   30.8783   -0.9239 N   0  0  0  0  0  0  0  0  0  0  0  0
  -88.0959   26.8700    0.7302 C   0  0  0  0  0  0  0  0  0  0  0  0
  -88.5843   25.9080   -0.1202 C   0  0  0  0  0  0  0  0  0  0  0  0
  -88.8547   26.2812   -1.4118 C   0  0  0  0  0  0  0  0  0  0  0  0
  -88.6422   27.5937   -1.8516 C   0  0  0  0  0  0  0  0  0  0  0  0
  -88.1555   28.5718   -1.0219 C   0  0  0  0  0  0  0  0  0  0  0  0
  -87.8900   28.1551    0.2918 C   0  0  0  0  0  0  0  0  0  0  0  0
  -87.8071   26.4786    2.1034 C   0  0  0  0  0  0  0  0  0  0  0  0
  -86.5973   26.3941    2.4545 O   0  0  0  0  0  0  0  0  0  0  0  0
  -88.7765   26.1976    3.0325 O   0  0  0  0  0  0  0  0  0  0  0  0
  -89.9183   27.7680    4.4482 C   0  0  0  0  0  0  0  0  0  0  0  0
  -89.9195   27.0290    3.1337 C   0  0  0  0  0  0  0  0  0  0  0  0
  -84.6212   31.7342    1.5486 N   0  0  0  0  0  0  0  0  0  0  0  0
  -84.8896   32.2912    2.4176 H   0  0  0  0  0  0  0  0  0  0  0  0
  -83.4394   30.9256    1.5128 C   0  0  0  0  0  0  0  0  0  0  0  0
  -82.7218   31.2268    0.1940 C   0  0  0  0  0  0  0  0  0  0  0  0
  -82.0495   32.4318    0.2649 O   0  0  0  0  0  0  0  0  0  0  0  0
  -81.9975   32.7709    1.1791 H   0  0  0  0  0  0  0  0  0  0  0  0
  -83.7850   29.4872    1.6437 C   0  0  0  0  0  0  0  0  0  0  0  0
  -84.6360   29.1941    2.8634 C   0  0  0  0  0  0  0  0  0  0  0  0
 19 20  1  0  0  0
 20 18  1  0  0  0
 18 16  1  0  0  0
 16 17  2  0  0  0
 16 10  1  0  0  0
 10 11  2  0  0  0
 11 12  1  0  0  0
 12 13  2  0  0  0
 13 14  1  0  0  0
 14 15  2  0  0  0
 14  1  1  0  0  0
  1  2  2  0  0  0
  2  3  1  0  0  0
  3  4  2  0  0  0
  4  5  1  0  0  0
  5  6  2  0  0  0
  6  7  1  0  0  0
  7 21  1  0  0  0
 21 23  1  0  0  0
 23 27  1  0  0  0
 27 28  1  0  0  0
 23 24  1  0  0  0
 24 25  1  0  0  0
  7  8  2  0  0  0
  8  9  1  0  0  0
 15 10  1  0  0  0
  9  1  1  0  0  0
  9  4  1  0  0  0
 21 22  1  0  0  0
 25 26  1  0  0  0
M  END
> <minimizedAffinity>
-7.64904

> <CNNscore>
0.3600213528

> <CNNaffinity>
6.4106168747

> <CNN_VS>
2.3079588413

> <CNNaffinity_variance>
0.4321386814

$$$$
[H]OC([H])([H])[C@@]([H])(N([H])c1nn2c(-c3c([H])c([H])c([H])c(C(=O)OC([H])([H])C([H])([H])[H])c3[H])c([H])nc2c([H])c1[H])C([H])([H])C([H])([H])[H]


 28 30  0  0  0  0  0  0  0  0999 V2000
  -84.7388   29.9469    0.7481 C   0  0  0  0  0  0  0  0  0  0  0  0
  -83.4385   30.0354    1.2462 C   0  0  0  0  0  0  0  0  0  0  0  0
  -82.9046   31.2163    0.9077 N   0  0  0  0  0  0  0  0  0  0  0  0
  -83.8272   31.9002    0.2000 C   0  0  0  0  0  0  0  0  0  0  0  0
  -83.7945   33.1518   -0.3802 C   0  0  0  0  0  0  0  0  0  0  0  0
  -84.9222   33.5727   -1.0483 C   0  0  0  0  0  0  0  0  0  0  0  0
  -86.0329   32.7285   -1.1092 C   0  0  0  0  0  0  0  0  0  0  0  0
  -85.9916   31.5283   -0.5225 N   0  0  0  0  0  0  0  0  0  0  0  0
  -84.9400   31.1040    0.1156 N   0  0  0  0  0  0  0  0  0  0  0  0
  -87.5883   27.5492    0.2779 C   0  0  0  0  0  0  0  0  0  0  0  0
  -87.3517   26.5734    1.2156 C   0  0  0  0  0  0  0  0  0  0  0  0
  -86.2410   26.7114    2.0081 C   0  0  0  0  0  0  0  0  0  0  0  0
  -85.3774   27.8051    1.8699 C   0  0  0  0  0  0  0  0  0  0  0  0
  -85.5921   28.7920    0.9416 C   0  0  0  0  0  0  0  0  0  0  0  0
  -86.7370   28.6190    0.1482 C   0  0  0  0  0  0  0  0  0  0  0  0
  -88.7669   27.4073   -0.5665 C   0  0  0  0  0  0  0  0  0  0  0  0
  -88.7389   26.5400   -1.4836 O   0  0  0  0  0  0  0  0  0  0  0  0
  -89.9020   28.1635   -0.4190 O   0  0  0  0  0  0  0  0  0  0  0  0
  -91.0709   28.8201    1.5751 C   0  0  0  0  0  0  0  0  0  0  0  0
  -90.8979   27.7683    0.5083 C   0  0  0  0  0  0  0  0  0  0  0  0
  -87.1960   33.1450   -1.8113 N   0  0  0  0  0  0  0  0  0  0  0  0
  -87.9959   33.5137   -1.2098 H   0  0  0  0  0  0  0  0  0  0  0  0
  -87.3009   33.0792   -3.2383 C   0  0  0  0  0  0  0  0  0  0  0  0
  -87.5931   34.4966   -3.7390 C   0  0  0  0  0  0  0  0  0  0  0  0
  -86.4233   35.1470   -4.0818 O   0  0  0  0  0  0  0  0  0  0  0  0
  -85.6617   34.5374   -4.1226 H   0  0  0  0  0  0  0  0  0  0  0  0
  -88.3572   32.1165   -3.6419 C   0  0  0  0  0  0  0  0  0  0  0  0
  -87.8159   30.9492   -4.4435 C   0  0  0  0  0  0  0  0  0  0  0  0
 19 20  1  0  0  0
 20 18  1  0  0  0
 18 16  1  0  0  0
 16 17  2  0  0  0
 16 10  1  0  0  0
 10 11  2  0  0  0
 11 12  1  0  0  0
 12 13  2  0  0  0
 13 14  1  0  0  0
 14 15  2  0  0  0
 14  1  1  0  0  0
  1  2  2  0  0  0
  2  3  1  0  0  0
  3  4  2  0  0  0
  4  5  1  0  0  0
  5  6  2  0  0  0
  6  7  1  0  0  0
  7 21  1  0  0  0
 21 23  1  0  0  0
 23 27  1  0  0  0
 27 28  1  0  0  0
 23 24  1  0  0  0
 24 25  1  0  0  0
  7  8  2  0  0  0
  8  9  1  0  0  0
 15 10  1  0  0  0
  9  1  1  0  0  0
  9  4  1  0  0  0
 21 22  1  0  0  0
 25 26  1  0  0  0
M  END
> <minimizedAffinity>
-7.48892

> <CNNscore>
0.3471913338

> <CNNaffinity>
6.1788911819

> <CNN_VS>
2.1452574730

> <CNNaffinity_variance>
0.2383636981

$$$$
[H]OC([H])([H])[C@@]([H])(N([H])c1nn2c(-c3c([H])c([H])c([H])c(C(=O)OC([H])([H])C([H])([H])[H])c3[H])c([H])nc2c([H])c1[H])C([H])([H])C([H])([H])[H]


 28 30  0  0  0  0  0  0  0  0999 V2000
  -86.3790   27.7630    1.4316 C   0  0  0  0  0  0  0  0  0  0  0  0
  -85.6368   26.7295    2.0042 C   0  0  0  0  0  0  0  0  0  0  0  0
  -84.4156   27.1755    2.3267 N   0  0  0  0  0  0  0  0  0  0  0  0
  -84.3444   28.4766    1.9775 C   0  0  0  0  0  0  0  0  0  0  0  0
  -83.3254   29.4006    2.0874 C   0  0  0  0  0  0  0  0  0  0  0  0
  -83.5707   30.6753    1.6289 C   0  0  0  0  0  0  0  0  0  0  0  0
  -84.8201   30.9736    1.0811 C   0  0  0  0  0  0  0  0  0  0  0  0
  -85.7597   30.0260    1.0074 N   0  0  0  0  0  0  0  0  0  0  0  0
  -85.5565   28.8131    1.4325 N   0  0  0  0  0  0  0  0  0  0  0  0
  -89.6772   26.1458    0.6593 C   0  0  0  0  0  0  0  0  0  0  0  0
  -90.4187   27.1633    0.1098 C   0  0  0  0  0  0  0  0  0  0  0  0
  -89.8216   28.3926   -0.0053 C   0  0  0  0  0  0  0  0  0  0  0  0
  -88.5048   28.6068    0.4205 C   0  0  0  0  0  0  0  0  0  0  0  0
  -87.7443   27.6072    0.9721 C   0  0  0  0  0  0  0  0  0  0  0  0
  -88.3864   26.3633    1.0746 C   0  0  0  0  0  0  0  0  0  0  0  0
  -90.3069   24.8380    0.7838 C   0  0  0  0  0  0  0  0  0  0  0  0
  -91.1689   24.6784    1.6923 O   0  0  0  0  0  0  0  0  0  0  0  0
  -90.0139   23.7738   -0.0309 O   0  0  0  0  0  0  0  0  0  0  0  0
  -91.0365   23.4725   -2.1844 C   0  0  0  0  0  0  0  0  0  0  0  0
  -89.8373   23.9774   -1.4220 C   0  0  0  0  0  0  0  0  0  0  0  0
  -85.0785   32.2811    0.5882 N   0  0  0  0  0  0  0  0  0  0  0  0
  -84.8635   33.0823    1.2586 H   0  0  0  0  0  0  0  0  0  0  0  0
  -85.5955   32.5223   -0.7257 C   0  0  0  0  0  0  0  0  0  0  0  0
  -84.6023   33.4401   -1.4441 C   0  0  0  0  0  0  0  0  0  0  0  0
  -83.5065   33.6998   -0.6438 O   0  0  0  0  0  0  0  0  0  0  0  0
  -83.4742   33.1147    0.1373 H   0  0  0  0  0  0  0  0  0  0  0  0
  -86.9536   33.1189   -0.6526 C   0  0  0  0  0  0  0  0  0  0  0  0
  -88.0505   32.1317   -0.9994 C   0  0  0  0  0  0  0  0  0  0  0  0
 19 20  1  0  0  0
 20 18  1  0  0  0
 18 16  1  0  0  0
 16 17  2  0  0  0
 16 10  1  0  0  0
 10 11  2  0  0  0
 11 12  1  0  0  0
 12 13  2  0  0  0
 13 14  1  0  0  0
 14 15  2  0  0  0
 14  1  1  0  0  0
  1  2  2  0  0  0
  2  3  1  0  0  0
  3  4  2  0  0  0
  4  5  1  0  0  0
  5  6  2  0  0  0
  6  7  1  0  0  0
  7 21  1  0  0  0
 21 23  1  0  0  0
 23 27  1  0  0  0
 27 28  1  0  0  0
 23 24  1  0  0  0
 24 25  1  0  0  0
  7  8  2  0  0  0
  8  9  1  0  0  0
 15 10  1  0  0  0
  9  1  1  0  0  0
  9  4  1  0  0  0
 21 22  1  0  0  0
 25 26  1  0  0  0
M  END
> <minimizedAffinity>
-7.36700

> <CNNscore>
0.3265323937

> <CNNaffinity>
6.2102551460

> <CNN_VS>
2.0278494358

> <CNNaffinity_variance>
0.1169317365

$$$$
[H]c1nc(N([H])C([H])([H])c2c([H])nc([H])c([H])c2[H])nc(-c2c([H])c([H])c3c(c([H])nn3[H])c2[H])c1[H]


 25 28  0  0  0  0  0  0  0  0999 V2000
  -85.4956   27.2467    1.9740 C   0  0  0  0  0  0  0  0  0  0  0  0
  -84.3492   27.0165    2.6358 N   0  0  0  0  0  0  0  0  0  0  0  0
  -83.3280   27.8773    2.6571 C   0  0  0  0  0  0  0  0  0  0  0  0
  -83.4755   29.0672    1.9533 C   0  0  0  0  0  0  0  0  0  0  0  0
  -84.6406   29.3260    1.2676 C   0  0  0  0  0  0  0  0  0  0  0  0
  -85.6192   28.3988    1.3018 N   0  0  0  0  0  0  0  0  0  0  0  0
  -84.8203   30.5733    0.5182 C   0  0  0  0  0  0  0  0  0  0  0  0
  -83.6995   31.3643    0.2748 C   0  0  0  0  0  0  0  0  0  0  0  0
  -83.7889   32.5562   -0.4260 C   0  0  0  0  0  0  0  0  0  0  0  0
  -84.9937   32.9991   -0.9062 C   0  0  0  0  0  0  0  0  0  0  0  0
  -85.3984   34.0889   -1.6075 N   0  0  0  0  0  0  0  0  0  0  0  0
  -86.7056   34.0359   -1.8226 N   0  0  0  0  0  0  0  0  0  0  0  0
  -87.1637   32.9018   -1.2579 C   0  0  0  0  0  0  0  0  0  0  0  0
  -86.1032   32.2411   -0.6797 C   0  0  0  0  0  0  0  0  0  0  0  0
  -86.0096   31.0351    0.0298 C   0  0  0  0  0  0  0  0  0  0  0  0
  -84.7977   34.8694   -1.9425 H   0  0  0  0  0  0  0  0  0  0  0  0
  -86.5475   26.2703    1.9999 N   0  0  0  0  0  0  0  0  0  0  0  0
  -86.3426   25.3223    2.3560 H   0  0  0  0  0  0  0  0  0  0  0  0
  -87.8839   26.5737    1.5430 C   0  0  0  0  0  0  0  0  0  0  0  0
  -88.8853   26.5107    2.6243 C   0  0  0  0  0  0  0  0  0  0  0  0
  -89.1527   27.6511    3.3778 C   0  0  0  0  0  0  0  0  0  0  0  0
  -90.0816   27.6296    4.3831 C   0  0  0  0  0  0  0  0  0  0  0  0
  -90.7465   26.4376    4.6262 C   0  0  0  0  0  0  0  0  0  0  0  0
  -90.4773   25.3387    3.8873 N   0  0  0  0  0  0  0  0  0  0  0  0
  -89.5759   25.3539    2.9096 C   0  0  0  0  0  0  0  0  0  0  0  0
 19 17  1  0  0  0
 17  1  1  0  0  0
  1  2  2  0  0  0
  2  3  1  0  0  0
  3  4  2  0  0  0
  4  5  1  0  0  0
  5  6  2  0  0  0
  5  7  1  0  0  0
  7  8  2  0  0  0
  8  9  1  0  0  0
  9 10  2  0  0  0
 10 11  1  0  0  0
 11 12  1  0  0  0
 12 13  2  0  0  0
 13 14  1  0  0  0
 14 15  2  0  0  0
 19 20  1  0  0  0
 20 21  2  0  0  0
 21 22  1  0  0  0
 22 23  2  0  0  0
 23 24  1  0  0  0
 24 25  2  0  0  0
  6  1  1  0  0  0
 15  7  1  0  0  0
 25 20  1  0  0  0
 14 10  1  0  0  0
 17 18  1  0  0  0
 11 16  1  0  0  0
M  END
> <minimizedAffinity>
-8.79505

> <CNNscore>
0.8591776490

> <CNNaffinity>
6.8119339943

> <CNN_VS>
5.8526616096

> <CNNaffinity_variance>
0.0580193177

$$$$
[H]c1nc(N([H])C([H])([H])c2c([H])nc([H])c([H])c2[H])nc(-c2c([H])c([H])c3c(c([H])nn3[H])c2[H])c1[H]


 25 28  0  0  0  0  0  0  0  0999 V2000
  -88.4044   27.8094    0.7363 C   0  0  0  0  0  0  0  0  0  0  0  0
  -88.0710   26.7125    1.4370 N   0  0  0  0  0  0  0  0  0  0  0  0
  -86.8623   26.5228    1.9730 C   0  0  0  0  0  0  0  0  0  0  0  0
  -85.9127   27.5212    1.7869 C   0  0  0  0  0  0  0  0  0  0  0  0
  -86.2304   28.6542    1.0727 C   0  0  0  0  0  0  0  0  0  0  0  0
  -87.4762   28.7603    0.5676 N   0  0  0  0  0  0  0  0  0  0  0  0
  -85.2467   29.7209    0.8628 C   0  0  0  0  0  0  0  0  0  0  0  0
  -83.9678   29.5523    1.3892 C   0  0  0  0  0  0  0  0  0  0  0  0
  -82.9841   30.5153    1.2325 C   0  0  0  0  0  0  0  0  0  0  0  0
  -83.2400   31.6749    0.5485 C   0  0  0  0  0  0  0  0  0  0  0  0
  -82.5119   32.7765    0.2327 N   0  0  0  0  0  0  0  0  0  0  0  0
  -83.2512   33.6312   -0.4608 N   0  0  0  0  0  0  0  0  0  0  0  0
  -84.4754   33.0866   -0.6018 C   0  0  0  0  0  0  0  0  0  0  0  0
  -84.4844   31.8609    0.0250 C   0  0  0  0  0  0  0  0  0  0  0  0
  -85.4780   30.8843    0.1852 C   0  0  0  0  0  0  0  0  0  0  0  0
  -81.5181   32.9558    0.4824 H   0  0  0  0  0  0  0  0  0  0  0  0
  -89.7262   27.9385    0.1916 N   0  0  0  0  0  0  0  0  0  0  0  0
  -90.1477   27.1318   -0.2975 H   0  0  0  0  0  0  0  0  0  0  0  0
  -90.4846   29.1625    0.3068 C   0  0  0  0  0  0  0  0  0  0  0  0
  -90.1211   30.1585   -0.7187 C   0  0  0  0  0  0  0  0  0  0  0  0
  -89.6775   31.4182   -0.3235 C   0  0  0  0  0  0  0  0  0  0  0  0
  -89.3245   32.3633   -1.2488 C   0  0  0  0  0  0  0  0  0  0  0  0
  -89.4227   32.0260   -2.5899 C   0  0  0  0  0  0  0  0  0  0  0  0
  -89.8546   30.8001   -2.9593 N   0  0  0  0  0  0  0  0  0  0  0  0
  -90.1988   29.8783   -2.0647 C   0  0  0  0  0  0  0  0  0  0  0  0
 19 17  1  0  0  0
 17  1  1  0  0  0
  1  2  2  0  0  0
  2  3  1  0  0  0
  3  4  2  0  0  0
  4  5  1  0  0  0
  5  6  2  0  0  0
  5  7  1  0  0  0
  7  8  2  0  0  0
  8  9  1  0  0  0
  9 10  2  0  0  0
 10 11  1  0  0  0
 11 12  1  0  0  0
 12 13  2  0  0  0
 13 14  1  0  0  0
 14 15  2  0  0  0
 19 20  1  0  0  0
 20 21  2  0  0  0
 21 22  1  0  0  0
 22 23  2  0  0  0
 23 24  1  0  0  0
 24 25  2  0  0  0
  6  1  1  0  0  0
 15  7  1  0  0  0
 25 20  1  0  0  0
 14 10  1  0  0  0
 17 18  1  0  0  0
 11 16  1  0  0  0
M  END
> <minimizedAffinity>
-8.38808

> <CNNscore>
0.8143770695

> <CNNaffinity>
6.6774964333

> <CNN_VS>
5.4380002022

> <CNNaffinity_variance>
0.0408951081

$$$$
[H]c1nc(N([H])C([H])([H])c2c([H])nc([H])c([H])c2[H])nc(-c2c([H])c([H])c3c(c([H])nn3[H])c2[H])c1[H]


 25 28  0  0  0  0  0  0  0  0999 V2000
  -87.2938   26.8611   -0.2541 C   0  0  0  0  0  0  0  0  0  0  0  0
  -87.3480   26.1866    0.9066 N   0  0  0  0  0  0  0  0  0  0  0  0
  -86.6772   26.5545    2.0017 C   0  0  0  0  0  0  0  0  0  0  0  0
  -85.8875   27.6957    1.9187 C   0  0  0  0  0  0  0  0  0  0  0  0
  -85.8157   28.4037    0.7404 C   0  0  0  0  0  0  0  0  0  0  0  0
  -86.5276   27.9581   -0.3147 N   0  0  0  0  0  0  0  0  0  0  0  0
  -84.9902   29.6101    0.6277 C   0  0  0  0  0  0  0  0  0  0  0  0
  -83.7731   29.6425    1.3048 C   0  0  0  0  0  0  0  0  0  0  0  0
  -82.9379   30.7465    1.2470 C   0  0  0  0  0  0  0  0  0  0  0  0
  -83.2858   31.8520    0.5154 C   0  0  0  0  0  0  0  0  0  0  0  0
  -82.7037   33.0531    0.2668 N   0  0  0  0  0  0  0  0  0  0  0  0
  -83.4775   33.7821   -0.5255 N   0  0  0  0  0  0  0  0  0  0  0  0
  -84.5773   33.0539   -0.7997 C   0  0  0  0  0  0  0  0  0  0  0  0
  -84.4723   31.8420   -0.1550 C   0  0  0  0  0  0  0  0  0  0  0  0
  -85.3154   30.7231   -0.0946 C   0  0  0  0  0  0  0  0  0  0  0  0
  -81.7866   33.3848    0.6287 H   0  0  0  0  0  0  0  0  0  0  0  0
  -88.0453   26.4006   -1.3872 N   0  0  0  0  0  0  0  0  0  0  0  0
  -87.6690   25.6245   -1.9562 H   0  0  0  0  0  0  0  0  0  0  0  0
  -89.3117   26.9898   -1.7555 C   0  0  0  0  0  0  0  0  0  0  0  0
  -89.9730   27.6737   -0.6281 C   0  0  0  0  0  0  0  0  0  0  0  0
  -89.8863   29.0597   -0.5216 C   0  0  0  0  0  0  0  0  0  0  0  0
  -90.4947   29.7268    0.5073 C   0  0  0  0  0  0  0  0  0  0  0  0
  -91.1989   28.9789    1.4384 C   0  0  0  0  0  0  0  0  0  0  0  0
  -91.2749   27.6348    1.3229 N   0  0  0  0  0  0  0  0  0  0  0  0
  -90.6858   26.9816    0.3254 C   0  0  0  0  0  0  0  0  0  0  0  0
 19 17  1  0  0  0
 17  1  1  0  0  0
  1  2  2  0  0  0
  2  3  1  0  0  0
  3  4  2  0  0  0
  4  5  1  0  0  0
  5  6  2  0  0  0
  5  7  1  0  0  0
  7  8  2  0  0  0
  8  9  1  0  0  0
  9 10  2  0  0  0
 10 11  1  0  0  0
 11 12  1  0  0  0
 12 13  2  0  0  0
 13 14  1  0  0  0
 14 15  2  0  0  0
 19 20  1  0  0  0
 20 21  2  0  0  0
 21 22  1  0  0  0
 22 23  2  0  0  0
 23 24  1  0  0  0
 24 25  2  0  0  0
  6  1  1  0  0  0
 15  7  1  0  0  0
 25 20  1  0  0  0
 14 10  1  0  0  0
 17 18  1  0  0  0
 11 16  1  0  0  0
M  END
> <minimizedAffinity>
-7.95730

> <CNNscore>
0.7919743657

> <CNNaffinity>
6.7444314957

> <CNN_VS>
5.3414168358

> <CNNaffinity_variance>
0.0786306560

$$$$
[H]c1nc(N([H])C([H])([H])c2c([H])nc([H])c([H])c2[H])nc(-c2c([H])c([H])c3c(c([H])nn3[H])c2[H])c1[H]


 25 28  0  0  0  0  0  0  0  0999 V2000
  -88.4470   27.8093    0.5214 C   0  0  0  0  0  0  0  0  0  0  0  0
  -88.1857   26.7476    1.3023 N   0  0  0  0  0  0  0  0  0  0  0  0
  -87.0303   26.5802    1.9515 C   0  0  0  0  0  0  0  0  0  0  0  0
  -86.0597   27.5642    1.8004 C   0  0  0  0  0  0  0  0  0  0  0  0
  -86.3039   28.6613    1.0058 C   0  0  0  0  0  0  0  0  0  0  0  0
  -87.4997   28.7469    0.3882 N   0  0  0  0  0  0  0  0  0  0  0  0
  -85.2967   29.7122    0.8307 C   0  0  0  0  0  0  0  0  0  0  0  0
  -84.0525   29.5409    1.4336 C   0  0  0  0  0  0  0  0  0  0  0  0
  -83.0496   30.4893    1.3139 C   0  0  0  0  0  0  0  0  0  0  0  0
  -83.2514   31.6366    0.5920 C   0  0  0  0  0  0  0  0  0  0  0  0
  -82.4928   32.7229    0.2957 N   0  0  0  0  0  0  0  0  0  0  0  0
  -83.1803   33.5704   -0.4572 N   0  0  0  0  0  0  0  0  0  0  0  0
  -84.4010   33.0365   -0.6574 C   0  0  0  0  0  0  0  0  0  0  0  0
  -84.4612   31.8249   -0.0064 C   0  0  0  0  0  0  0  0  0  0  0  0
  -85.4743   30.8631    0.1166 C   0  0  0  0  0  0  0  0  0  0  0  0
  -81.5128   32.8966    0.5986 H   0  0  0  0  0  0  0  0  0  0  0  0
  -89.7148   27.9162   -0.1434 N   0  0  0  0  0  0  0  0  0  0  0  0
  -90.5171   27.3742    0.2174 H   0  0  0  0  0  0  0  0  0  0  0  0
  -89.9023   28.7588   -1.3016 C   0  0  0  0  0  0  0  0  0  0  0  0
  -90.7149   28.1150   -2.3510 C   0  0  0  0  0  0  0  0  0  0  0  0
  -90.7620   26.7250   -2.4248 C   0  0  0  0  0  0  0  0  0  0  0  0
  -91.5124   26.0951   -3.3810 C   0  0  0  0  0  0  0  0  0  0  0  0
  -92.2227   26.8849   -4.2720 C   0  0  0  0  0  0  0  0  0  0  0  0
  -92.1679   28.2324   -4.1889 N   0  0  0  0  0  0  0  0  0  0  0  0
  -91.4407   28.8495   -3.2621 C   0  0  0  0  0  0  0  0  0  0  0  0
 19 17  1  0  0  0
 17  1  1  0  0  0
  1  2  2  0  0  0
  2  3  1  0  0  0
  3  4  2  0  0  0
  4  5  1  0  0  0
  5  6  2  0  0  0
  5  7  1  0  0  0
  7  8  2  0  0  0
  8  9  1  0  0  0
  9 10  2  0  0  0
 10 11  1  0  0  0
 11 12  1  0  0  0
 12 13  2  0  0  0
 13 14  1  0  0  0
 14 15  2  0  0  0
 19 20  1  0  0  0
 20 21  2  0  0  0
 21 22  1  0  0  0
 22 23  2  0  0  0
 23 24  1  0  0  0
 24 25  2  0  0  0
  6  1  1  0  0  0
 15  7  1  0  0  0
 25 20  1  0  0  0
 14 10  1  0  0  0
 17 18  1  0  0  0
 11 16  1  0  0  0
M  END
> <minimizedAffinity>
-8.01639

> <CNNscore>
0.6070356965

> <CNNaffinity>
6.3687372208

> <CNN_VS>
3.8660507202

> <CNNaffinity_variance>
0.1686389893

$$$$
[H]c1nc(N([H])C([H])([H])c2c([H])nc([H])c([H])c2[H])nc(-c2c([H])c([H])c3c(c([H])nn3[H])c2[H])c1[H]


 25 28  0  0  0  0  0  0  0  0999 V2000
  -85.9572   27.3103    1.8936 C   0  0  0  0  0  0  0  0  0  0  0  0
  -84.7573   27.1530    2.4775 N   0  0  0  0  0  0  0  0  0  0  0  0
  -83.7860   28.0681    2.4177 C   0  0  0  0  0  0  0  0  0  0  0  0
  -84.0467   29.2370    1.7113 C   0  0  0  0  0  0  0  0  0  0  0  0
  -85.2684   29.4213    1.1046 C   0  0  0  0  0  0  0  0  0  0  0  0
  -86.1897   28.4430    1.2176 N   0  0  0  0  0  0  0  0  0  0  0  0
  -85.5673   30.6449    0.3542 C   0  0  0  0  0  0  0  0  0  0  0  0
  -84.5839   31.6287    0.2773 C   0  0  0  0  0  0  0  0  0  0  0  0
  -84.7914   32.8119   -0.4132 C   0  0  0  0  0  0  0  0  0  0  0  0
  -85.9815   33.0543   -1.0481 C   0  0  0  0  0  0  0  0  0  0  0  0
  -86.4781   34.0817   -1.7838 N   0  0  0  0  0  0  0  0  0  0  0  0
  -87.7146   33.8084   -2.1767 N   0  0  0  0  0  0  0  0  0  0  0  0
  -88.0331   32.5911   -1.6951 C   0  0  0  0  0  0  0  0  0  0  0  0
  -86.9577   32.1055   -0.9859 C   0  0  0  0  0  0  0  0  0  0  0  0
  -86.7447   30.9089   -0.2863 C   0  0  0  0  0  0  0  0  0  0  0  0
  -85.9877   34.9674   -2.0229 H   0  0  0  0  0  0  0  0  0  0  0  0
  -86.9494   26.2789    2.0040 N   0  0  0  0  0  0  0  0  0  0  0  0
  -86.7634   25.4681    2.6169 H   0  0  0  0  0  0  0  0  0  0  0  0
  -88.2001   26.3406    1.2838 C   0  0  0  0  0  0  0  0  0  0  0  0
  -89.2293   27.1245    1.9925 C   0  0  0  0  0  0  0  0  0  0  0  0
  -89.2908   27.0760    3.3830 C   0  0  0  0  0  0  0  0  0  0  0  0
  -90.2281   27.7971    4.0726 C   0  0  0  0  0  0  0  0  0  0  0  0
  -91.1126   28.5761    3.3426 C   0  0  0  0  0  0  0  0  0  0  0  0
  -91.0417   28.6139    1.9938 N   0  0  0  0  0  0  0  0  0  0  0  0
  -90.1332   27.9154    1.3189 C   0  0  0  0  0  0  0  0  0  0  0  0
 19 17  1  0  0  0
 17  1  1  0  0  0
  1  2  2  0  0  0
  2  3  1  0  0  0
  3  4  2  0  0  0
  4  5  1  0  0  0
  5  6  2  0  0  0
  5  7  1  0  0  0
  7  8  2  0  0  0
  8  9  1  0  0  0
  9 10  2  0  0  0
 10 11  1  0  0  0
 11 12  1  0  0  0
 12 13  2  0  0  0
 13 14  1  0  0  0
 14 15  2  0  0  0
 19 20  1  0  0  0
 20 21  2  0  0  0
 21 22  1  0  0  0
 22 23  2  0  0  0
 23 24  1  0  0  0
 24 25  2  0  0  0
  6  1  1  0  0  0
 15  7  1  0  0  0
 25 20  1  0  0  0
 14 10  1  0  0  0
 17 18  1  0  0  0
 11 16  1  0  0  0
M  END
> <minimizedAffinity>
-8.44873

> <CNNscore>
0.6057820916

> <CNNaffinity>
6.6198754311

> <CNN_VS>
4.0102019310

> <CNNaffinity_variance>
0.0607453212

$$$$
[H]c1nc(N([H])C([H])([H])c2c([H])nc([H])c([H])c2[H])nc(-c2c([H])c([H])c3c(c([H])nn3[H])c2[H])c1[H]


 25 28  0  0  0  0  0  0  0  0999 V2000
  -89.4265   28.8423   -0.0216 C   0  0  0  0  0  0  0  0  0  0  0  0
  -90.4306   29.5526   -0.5626 N   0  0  0  0  0  0  0  0  0  0  0  0
  -90.2834   30.7967   -1.0262 C   0  0  0  0  0  0  0  0  0  0  0  0
  -89.0203   31.3708   -0.9366 C   0  0  0  0  0  0  0  0  0  0  0  0
  -87.9757   30.6631   -0.3865 C   0  0  0  0  0  0  0  0  0  0  0  0
  -88.2168   29.4122    0.0559 N   0  0  0  0  0  0  0  0  0  0  0  0
  -86.6347   31.2464   -0.2810 C   0  0  0  0  0  0  0  0  0  0  0  0
  -86.4370   32.5381   -0.7641 C   0  0  0  0  0  0  0  0  0  0  0  0
  -85.1990   33.1570   -0.6999 C   0  0  0  0  0  0  0  0  0  0  0  0
  -84.1197   32.5123   -0.1543 C   0  0  0  0  0  0  0  0  0  0  0  0
  -82.8171   32.8370    0.0483 N   0  0  0  0  0  0  0  0  0  0  0  0
  -82.1790   31.8306    0.6296 N   0  0  0  0  0  0  0  0  0  0  0  0
  -83.0698   30.8362    0.8105 C   0  0  0  0  0  0  0  0  0  0  0  0
  -84.2904   31.2479    0.3246 C   0  0  0  0  0  0  0  0  0  0  0  0
  -85.5446   30.6242    0.2582 C   0  0  0  0  0  0  0  0  0  0  0  0
  -82.3550   33.7344   -0.2034 H   0  0  0  0  0  0  0  0  0  0  0  0
  -89.6659   27.5094    0.4543 N   0  0  0  0  0  0  0  0  0  0  0  0
  -88.9827   26.7672    0.2308 H   0  0  0  0  0  0  0  0  0  0  0  0
  -90.8334   27.1748    1.2364 C   0  0  0  0  0  0  0  0  0  0  0  0
  -90.5545   27.1187    2.6839 C   0  0  0  0  0  0  0  0  0  0  0  0
  -90.2030   25.9040    3.2673 C   0  0  0  0  0  0  0  0  0  0  0  0
  -89.9299   25.8181    4.6060 C   0  0  0  0  0  0  0  0  0  0  0  0
  -90.0145   26.9780    5.3607 C   0  0  0  0  0  0  0  0  0  0  0  0
  -90.3567   28.1499    4.7816 N   0  0  0  0  0  0  0  0  0  0  0  0
  -90.6230   28.2390    3.4817 C   0  0  0  0  0  0  0  0  0  0  0  0
 19 17  1  0  0  0
 17  1  1  0  0  0
  1  2  2  0  0  0
  2  3  1  0  0  0
  3  4  2  0  0  0
  4  5  1  0  0  0
  5  6  2  0  0  0
  5  7  1  0  0  0
  7  8  2  0  0  0
  8  9  1  0  0  0
  9 10  2  0  0  0
 10 11  1  0  0  0
 11 12  1  0  0  0
 12 13  2  0  0  0
 13 14  1  0  0  0
 14 15  2  0  0  0
 19 20  1  0  0  0
 20 21  2  0  0  0
 21 22  1  0  0  0
 22 23  2  0  0  0
 23 24  1  0  0  0
 24 25  2  0  0  0
  6  1  1  0  0  0
 15  7  1  0  0  0
 25 20  1  0  0  0
 14 10  1  0  0  0
 17 18  1  0  0  0
 11 16  1  0  0  0
M  END
> <minimizedAffinity>
-8.03916

> <CNNscore>
0.5534828901

> <CNNaffinity>
6.4188079834

> <CNN_VS>
3.5527002811

> <CNNaffinity_variance>
0.0520432964

$$$$
[H]c1nc(N([H])C([H])([H])c2c([H])nc([H])c([H])c2[H])nc(-c2c([H])c([H])c3c(c([H])nn3[H])c2[H])c1[H]


 25 28  0  0  0  0  0  0  0  0999 V2000
  -88.4298   32.0147   -0.8182 C   0  0  0  0  0  0  0  0  0  0  0  0
  -88.0395   33.1804   -1.3604 N   0  0  0  0  0  0  0  0  0  0  0  0
  -86.7800   33.6238   -1.3202 C   0  0  0  0  0  0  0  0  0  0  0  0
  -85.8378   32.8259   -0.6810 C   0  0  0  0  0  0  0  0  0  0  0  0
  -86.2133   31.6274   -0.1178 C   0  0  0  0  0  0  0  0  0  0  0  0
  -87.5077   31.2597   -0.2067 N   0  0  0  0  0  0  0  0  0  0  0  0
  -85.2385   30.7684    0.5615 C   0  0  0  0  0  0  0  0  0  0  0  0
  -83.9167   31.2023    0.6379 C   0  0  0  0  0  0  0  0  0  0  0  0
  -82.9383   30.4467    1.2635 C   0  0  0  0  0  0  0  0  0  0  0  0
  -83.2422   29.2374    1.8322 C   0  0  0  0  0  0  0  0  0  0  0  0
  -82.5316   28.2906    2.4969 N   0  0  0  0  0  0  0  0  0  0  0  0
  -83.3222   27.2849    2.8456 N   0  0  0  0  0  0  0  0  0  0  0  0
  -84.5627   27.5734    2.4063 C   0  0  0  0  0  0  0  0  0  0  0  0
  -84.5291   28.7935    1.7693 C   0  0  0  0  0  0  0  0  0  0  0  0
  -85.5172   29.5605    1.1354 C   0  0  0  0  0  0  0  0  0  0  0  0
  -81.5153   28.3183    2.7173 H   0  0  0  0  0  0  0  0  0  0  0  0
  -89.8038   31.6081   -0.9036 N   0  0  0  0  0  0  0  0  0  0  0  0
  -90.5331   32.2189   -0.5005 H   0  0  0  0  0  0  0  0  0  0  0  0
  -90.1972   30.3705   -1.5364 C   0  0  0  0  0  0  0  0  0  0  0  0
  -90.2279   29.2333   -0.5973 C   0  0  0  0  0  0  0  0  0  0  0  0
  -90.8574   29.3802    0.6362 C   0  0  0  0  0  0  0  0  0  0  0  0
  -90.9112   28.3429    1.5279 C   0  0  0  0  0  0  0  0  0  0  0  0
  -90.3196   27.1433    1.1634 C   0  0  0  0  0  0  0  0  0  0  0  0
  -89.7122   27.0146   -0.0368 N   0  0  0  0  0  0  0  0  0  0  0  0
  -89.6570   28.0189   -0.9067 C   0  0  0  0  0  0  0  0  0  0  0  0
 19 17  1  0  0  0
 17  1  1  0  0  0
  1  2  2  0  0  0
  2  3  1  0  0  0
  3  4  2  0  0  0
  4  5  1  0  0  0
  5  6  2  0  0  0
  5  7  1  0  0  0
  7  8  2  0  0  0
  8  9  1  0  0  0
  9 10  2  0  0  0
 10 11  1  0  0  0
 11 12  1  0  0  0
 12 13  2  0  0  0
 13 14  1  0  0  0
 14 15  2  0  0  0
 19 20  1  0  0  0
 20 21  2  0  0  0
 21 22  1  0  0  0
 22 23  2  0  0  0
 23 24  1  0  0  0
 24 25  2  0  0  0
  6  1  1  0  0  0
 15  7  1  0  0  0
 25 20  1  0  0  0
 14 10  1  0  0  0
 17 18  1  0  0  0
 11 16  1  0  0  0
M  END
> <minimizedAffinity>
-8.45235

> <CNNscore>
0.4901704490

> <CNNaffinity>
6.3687229156

> <CNN_VS>
3.1217596531

> <CNNaffinity_variance>
0.1757272184

$$$$
[H]c1nc(N([H])C([H])([H])c2c([H])nc([H])c([H])c2[H])nc(-c2c([H])c([H])c3c(c([H])nn3[H])c2[H])c1[H]


 25 28  0  0  0  0  0  0  0  0999 V2000
  -88.5615   27.7444    0.1444 C   0  0  0  0  0  0  0  0  0  0  0  0
  -88.4870   26.7987    1.0959 N   0  0  0  0  0  0  0  0  0  0  0  0
  -87.4794   26.7128    1.9687 C   0  0  0  0  0  0  0  0  0  0  0  0
  -86.4643   27.6582    1.8735 C   0  0  0  0  0  0  0  0  0  0  0  0
  -86.5182   28.6369    0.9071 C   0  0  0  0  0  0  0  0  0  0  0  0
  -87.5742   28.6464    0.0685 N   0  0  0  0  0  0  0  0  0  0  0  0
  -85.4603   29.6448    0.7866 C   0  0  0  0  0  0  0  0  0  0  0  0
  -84.2460   29.4069    1.4267 C   0  0  0  0  0  0  0  0  0  0  0  0
  -83.1988   30.3117    1.3592 C   0  0  0  0  0  0  0  0  0  0  0  0
  -83.3254   31.4801    0.6543 C   0  0  0  0  0  0  0  0  0  0  0  0
  -82.5102   32.5368    0.4052 N   0  0  0  0  0  0  0  0  0  0  0  0
  -83.1339   33.4281   -0.3528 N   0  0  0  0  0  0  0  0  0  0  0  0
  -84.3694   32.9531   -0.6038 C   0  0  0  0  0  0  0  0  0  0  0  0
  -84.5048   31.7334    0.0202 C   0  0  0  0  0  0  0  0  0  0  0  0
  -85.5628   30.8157    0.0903 C   0  0  0  0  0  0  0  0  0  0  0  0
  -81.5344   32.6609    0.7437 H   0  0  0  0  0  0  0  0  0  0  0  0
  -89.6786   27.7691   -0.7566 N   0  0  0  0  0  0  0  0  0  0  0  0
  -90.5614   28.2088   -0.4484 H   0  0  0  0  0  0  0  0  0  0  0  0
  -89.6054   27.1977   -2.0813 C   0  0  0  0  0  0  0  0  0  0  0  0
  -90.2215   25.8598   -2.1613 C   0  0  0  0  0  0  0  0  0  0  0  0
  -91.5260   25.7333   -2.6324 C   0  0  0  0  0  0  0  0  0  0  0  0
  -92.1252   24.5061   -2.7270 C   0  0  0  0  0  0  0  0  0  0  0  0
  -91.3921   23.3951   -2.3393 C   0  0  0  0  0  0  0  0  0  0  0  0
  -90.1272   23.5323   -1.8841 N   0  0  0  0  0  0  0  0  0  0  0  0
  -89.5404   24.7220   -1.7900 C   0  0  0  0  0  0  0  0  0  0  0  0
 19 17  1  0  0  0
 17  1  1  0  0  0
  1  2  2  0  0  0
  2  3  1  0  0  0
  3  4  2  0  0  0
  4  5  1  0  0  0
  5  6  2  0  0  0
  5  7  1  0  0  0
  7  8  2  0  0  0
  8  9  1  0  0  0
  9 10  2  0  0  0
 10 11  1  0  0  0
 11 12  1  0  0  0
 12 13  2  0  0  0
 13 14  1  0  0  0
 14 15  2  0  0  0
 19 20  1  0  0  0
 20 21  2  0  0  0
 21 22  1  0  0  0
 22 23  2  0  0  0
 23 24  1  0  0  0
 24 25  2  0  0  0
  6  1  1  0  0  0
 15  7  1  0  0  0
 25 20  1  0  0  0
 14 10  1  0  0  0
 17 18  1  0  0  0
 11 16  1  0  0  0
M  END
> <minimizedAffinity>
-8.04085

> <CNNscore>
0.4133567810

> <CNNaffinity>
6.0806188583

> <CNN_VS>
2.5134649277

> <CNNaffinity_variance>
0.1305484325

$$$$
[H]c1nc(N([H])C([H])([H])c2c([H])nc([H])c([H])c2[H])nc(-c2c([H])c([H])c3c(c([H])nn3[H])c2[H])c1[H]


 25 28  0  0  0  0  0  0  0  0999 V2000
  -88.7805   27.3558    0.5979 C   0  0  0  0  0  0  0  0  0  0  0  0
  -88.1573   26.4643    1.3865 N   0  0  0  0  0  0  0  0  0  0  0  0
  -86.9250   26.6460    1.8691 C   0  0  0  0  0  0  0  0  0  0  0  0
  -86.2682   27.8231    1.5280 C   0  0  0  0  0  0  0  0  0  0  0  0
  -86.8860   28.7518    0.7215 C   0  0  0  0  0  0  0  0  0  0  0  0
  -88.1318   28.4839    0.2803 N   0  0  0  0  0  0  0  0  0  0  0  0
  -86.2144   30.0004    0.3479 C   0  0  0  0  0  0  0  0  0  0  0  0
  -86.9937   31.0510   -0.1315 C   0  0  0  0  0  0  0  0  0  0  0  0
  -86.4323   32.2615   -0.5046 C   0  0  0  0  0  0  0  0  0  0  0  0
  -85.0801   32.4656   -0.4133 C   0  0  0  0  0  0  0  0  0  0  0  0
  -84.2516   33.5047   -0.6911 N   0  0  0  0  0  0  0  0  0  0  0  0
  -82.9966   33.1760   -0.4170 N   0  0  0  0  0  0  0  0  0  0  0  0
  -83.0007   31.9104    0.0447 C   0  0  0  0  0  0  0  0  0  0  0  0
  -84.2986   31.4513    0.0531 C   0  0  0  0  0  0  0  0  0  0  0  0
  -84.8698   30.2273    0.4300 C   0  0  0  0  0  0  0  0  0  0  0  0
  -84.5274   34.4355   -1.0649 H   0  0  0  0  0  0  0  0  0  0  0  0
  -90.1068   27.0865    0.1194 N   0  0  0  0  0  0  0  0  0  0  0  0
  -90.8657   26.9358    0.8042 H   0  0  0  0  0  0  0  0  0  0  0  0
  -90.4122   27.0200   -1.2909 C   0  0  0  0  0  0  0  0  0  0  0  0
  -90.9301   28.2942   -1.8241 C   0  0  0  0  0  0  0  0  0  0  0  0
  -90.1037   29.0951   -2.6085 C   0  0  0  0  0  0  0  0  0  0  0  0
  -90.5549   30.2795   -3.1257 C   0  0  0  0  0  0  0  0  0  0  0  0
  -91.8593   30.6551   -2.8436 C   0  0  0  0  0  0  0  0  0  0  0  0
  -92.6503   29.8683   -2.0811 N   0  0  0  0  0  0  0  0  0  0  0  0
  -92.2171   28.7168   -1.5762 C   0  0  0  0  0  0  0  0  0  0  0  0
 19 17  1  0  0  0
 17  1  1  0  0  0
  1  2  2  0  0  0
  2  3  1  0  0  0
  3  4  2  0  0  0
  4  5  1  0  0  0
  5  6  2  0  0  0
  5  7  1  0  0  0
  7  8  2  0  0  0
  8  9  1  0  0  0
  9 10  2  0  0  0
 10 11  1  0  0  0
 11 12  1  0  0  0
 12 13  2  0  0  0
 13 14  1  0  0  0
 14 15  2  0  0  0
 19 20  1  0  0  0
 20 21  2  0  0  0
 21 22  1  0  0  0
 22 23  2  0  0  0
 23 24  1  0  0  0
 24 25  2  0  0  0
  6  1  1  0  0  0
 15  7  1  0  0  0
 25 20  1  0  0  0
 14 10  1  0  0  0
 17 18  1  0  0  0
 11 16  1  0  0  0
M  END
> <minimizedAffinity>
-7.14695

> <CNNscore>
0.2858794928

> <CNNaffinity>
6.1347832680

> <CNN_VS>
1.7538087368

> <CNNaffinity_variance>
0.4179667532

$$$$
[H]c1nc(N(C([H])([H])[H])C([H])([H])c2nc(C([H])([H])[H])c([H])s2)c2c([H])c(-c3c([H])c([H])c4c(c3[H])OC([H])([H])O4)c([H])c([H])c2n1


 28 32  0  0  0  0  0  0  0  0999 V2000
  -85.3491   27.8516    1.7996 C   0  0  0  0  0  0  0  0  0  0  0  0
  -84.4166   27.1217    2.4892 N   0  0  0  0  0  0  0  0  0  0  0  0
  -83.1908   27.6127    2.7114 C   0  0  0  0  0  0  0  0  0  0  0  0
  -82.8524   28.8311    2.2619 N   0  0  0  0  0  0  0  0  0  0  0  0
  -83.6930   29.6027    1.5872 C   0  0  0  0  0  0  0  0  0  0  0  0
  -83.3684   30.8629    1.1205 C   0  0  0  0  0  0  0  0  0  0  0  0
  -84.3164   31.5884    0.4357 C   0  0  0  0  0  0  0  0  0  0  0  0
  -85.5855   31.1263    0.1855 C   0  0  0  0  0  0  0  0  0  0  0  0
  -85.9028   29.8559    0.6596 C   0  0  0  0  0  0  0  0  0  0  0  0
  -84.9816   29.0986    1.3483 C   0  0  0  0  0  0  0  0  0  0  0  0
  -86.5737   31.9198   -0.5455 C   0  0  0  0  0  0  0  0  0  0  0  0
  -87.9085   31.5779   -0.4777 C   0  0  0  0  0  0  0  0  0  0  0  0
  -88.8930   32.2809   -1.1400 C   0  0  0  0  0  0  0  0  0  0  0  0
  -88.5178   33.3747   -1.9033 C   0  0  0  0  0  0  0  0  0  0  0  0
  -89.2975   34.2431   -2.6604 O   0  0  0  0  0  0  0  0  0  0  0  0
  -88.4339   35.0738   -3.3919 C   0  0  0  0  0  0  0  0  0  0  0  0
  -87.1687   34.8621   -2.8236 O   0  0  0  0  0  0  0  0  0  0  0  0
  -87.1873   33.7536   -1.9993 C   0  0  0  0  0  0  0  0  0  0  0  0
  -86.2372   33.0141   -1.3145 C   0  0  0  0  0  0  0  0  0  0  0  0
  -86.8215   26.3787    0.4453 C   0  0  0  0  0  0  0  0  0  0  0  0
  -86.6354   27.2963    1.5559 N   0  0  0  0  0  0  0  0  0  0  0  0
  -87.7231   27.6506    2.4083 C   0  0  0  0  0  0  0  0  0  0  0  0
  -89.0329   27.6194    1.6555 C   0  0  0  0  0  0  0  0  0  0  0  0
  -89.4725   28.5085    0.7794 N   0  0  0  0  0  0  0  0  0  0  0  0
  -90.6244   28.3434    0.2128 C   0  0  0  0  0  0  0  0  0  0  0  0
  -91.1631   29.3453   -0.8009 C   0  0  0  0  0  0  0  0  0  0  0  0
  -91.3469   27.2259    0.5604 C   0  0  0  0  0  0  0  0  0  0  0  0
  -90.3059   26.4835    1.6904 S   0  0  0  0  0  0  0  0  0  0  0  0
 20 21  1  0  0  0
 21 22  1  0  0  0
 22 23  1  0  0  0
 23 24  2  0  0  0
 24 25  1  0  0  0
 25 26  1  0  0  0
 25 27  2  0  0  0
 27 28  1  0  0  0
 21  1  1  0  0  0
  1  2  2  0  0  0
  2  3  1  0  0  0
  3  4  2  0  0  0
  4  5  1  0  0  0
  5  6  2  0  0  0
  6  7  1  0  0  0
  7  8  2  0  0  0
  8  9  1  0  0  0
  9 10  2  0  0  0
  8 11  1  0  0  0
 11 12  2  0  0  0
 12 13  1  0  0  0
 13 14  2  0  0  0
 14 15  1  0  0  0
 15 16  1  0  0  0
 16 17  1  0  0  0
 17 18  1  0  0  0
 18 19  2  0  0  0
 28 23  1  0  0  0
 10  1  1  0  0  0
 19 11  1  0  0  0
 10  5  1  0  0  0
 18 14  1  0  0  0
M  END
> <minimizedAffinity>
-9.87310

> <CNNscore>
0.5371308923

> <CNNaffinity>
6.9301543236

> <CNN_VS>
3.7223999500

> <CNNaffinity_variance>
0.0524188764

$$$$
[H]c1nc(N(C([H])([H])[H])C([H])([H])c2nc(C([H])([H])[H])c([H])s2)c2c([H])c(-c3c([H])c([H])c4c(c3[H])OC([H])([H])O4)c([H])c([H])c2n1


 28 32  0  0  0  0  0  0  0  0999 V2000
  -84.7815   32.4429   -0.5052 C   0  0  0  0  0  0  0  0  0  0  0  0
  -83.6683   33.2398   -0.5680 N   0  0  0  0  0  0  0  0  0  0  0  0
  -82.5483   32.9036    0.0844 C   0  0  0  0  0  0  0  0  0  0  0  0
  -82.4953   31.7779    0.8130 N   0  0  0  0  0  0  0  0  0  0  0  0
  -83.5251   30.9511    0.9267 C   0  0  0  0  0  0  0  0  0  0  0  0
  -83.4911   29.7835    1.6661 C   0  0  0  0  0  0  0  0  0  0  0  0
  -84.6135   28.9885    1.7150 C   0  0  0  0  0  0  0  0  0  0  0  0
  -85.7830   29.2923    1.0617 C   0  0  0  0  0  0  0  0  0  0  0  0
  -85.8074   30.4705    0.3197 C   0  0  0  0  0  0  0  0  0  0  0  0
  -84.7052   31.2930    0.2468 C   0  0  0  0  0  0  0  0  0  0  0  0
  -86.9615   28.4281    1.1312 C   0  0  0  0  0  0  0  0  0  0  0  0
  -86.8775   27.2102    1.7737 C   0  0  0  0  0  0  0  0  0  0  0  0
  -87.9476   26.3463    1.8774 C   0  0  0  0  0  0  0  0  0  0  0  0
  -89.1537   26.7244    1.3098 C   0  0  0  0  0  0  0  0  0  0  0  0
  -90.3705   26.0514    1.2711 O   0  0  0  0  0  0  0  0  0  0  0  0
  -91.2332   26.7658    0.4247 C   0  0  0  0  0  0  0  0  0  0  0  0
  -90.5919   27.9964    0.2177 O   0  0  0  0  0  0  0  0  0  0  0  0
  -89.2825   27.9398    0.6546 C   0  0  0  0  0  0  0  0  0  0  0  0
  -88.1774   28.7713    0.5784 C   0  0  0  0  0  0  0  0  0  0  0  0
  -85.8787   33.3198   -2.5543 C   0  0  0  0  0  0  0  0  0  0  0  0
  -85.9657   32.8360   -1.1873 N   0  0  0  0  0  0  0  0  0  0  0  0
  -87.2214   32.7481   -0.5161 C   0  0  0  0  0  0  0  0  0  0  0  0
  -88.3272   32.3899   -1.4815 C   0  0  0  0  0  0  0  0  0  0  0  0
  -88.8022   31.1821   -1.7401 N   0  0  0  0  0  0  0  0  0  0  0  0
  -89.7588   31.0335   -2.5991 C   0  0  0  0  0  0  0  0  0  0  0  0
  -90.3315   29.6588   -2.9221 C   0  0  0  0  0  0  0  0  0  0  0  0
  -90.2416   32.1662   -3.2118 C   0  0  0  0  0  0  0  0  0  0  0  0
  -89.2742   33.3784   -2.5003 S   0  0  0  0  0  0  0  0  0  0  0  0
 20 21  1  0  0  0
 21 22  1  0  0  0
 22 23  1  0  0  0
 23 24  2  0  0  0
 24 25  1  0  0  0
 25 26  1  0  0  0
 25 27  2  0  0  0
 27 28  1  0  0  0
 21  1  1  0  0  0
  1  2  2  0  0  0
  2  3  1  0  0  0
  3  4  2  0  0  0
  4  5  1  0  0  0
  5  6  2  0  0  0
  6  7  1  0  0  0
  7  8  2  0  0  0
  8  9  1  0  0  0
  9 10  2  0  0  0
  8 11  1  0  0  0
 11 12  2  0  0  0
 12 13  1  0  0  0
 13 14  2  0  0  0
 14 15  1  0  0  0
 15 16  1  0  0  0
 16 17  1  0  0  0
 17 18  1  0  0  0
 18 19  2  0  0  0
 28 23  1  0  0  0
 10  1  1  0  0  0
 19 11  1  0  0  0
 10  5  1  0  0  0
 18 14  1  0  0  0
M  END
> <minimizedAffinity>
-8.37371

> <CNNscore>
0.5108412504

> <CNNaffinity>
6.8599166870

> <CNN_VS>
3.5043284893

> <CNNaffinity_variance>
0.1179605871

$$$$
[H]c1nc(N(C([H])([H])[H])C([H])([H])c2nc(C([H])([H])[H])c([H])s2)c2c([H])c(-c3c([H])c([H])c4c(c3[H])OC([H])([H])O4)c([H])c([H])c2n1


 28 32  0  0  0  0  0  0  0  0999 V2000
  -85.5153   27.8368    1.6892 C   0  0  0  0  0  0  0  0  0  0  0  0
  -84.6063   27.0938    2.3961 N   0  0  0  0  0  0  0  0  0  0  0  0
  -83.3978   27.5898    2.6904 C   0  0  0  0  0  0  0  0  0  0  0  0
  -83.0542   28.8263    2.2977 N   0  0  0  0  0  0  0  0  0  0  0  0
  -83.8725   29.6114    1.6114 C   0  0  0  0  0  0  0  0  0  0  0  0
  -83.5423   30.8900    1.2024 C   0  0  0  0  0  0  0  0  0  0  0  0
  -84.4669   31.6283    0.4995 C   0  0  0  0  0  0  0  0  0  0  0  0
  -85.7177   31.1616    0.1762 C   0  0  0  0  0  0  0  0  0  0  0  0
  -86.0409   29.8725    0.5926 C   0  0  0  0  0  0  0  0  0  0  0  0
  -85.1427   29.1021    1.2971 C   0  0  0  0  0  0  0  0  0  0  0  0
  -86.6812   31.9690   -0.5723 C   0  0  0  0  0  0  0  0  0  0  0  0
  -88.0267   31.6752   -0.4908 C   0  0  0  0  0  0  0  0  0  0  0  0
  -88.9894   32.3939   -1.1683 C   0  0  0  0  0  0  0  0  0  0  0  0
  -88.5801   33.4533   -1.9620 C   0  0  0  0  0  0  0  0  0  0  0  0
  -89.3328   34.3276   -2.7393 O   0  0  0  0  0  0  0  0  0  0  0  0
  -88.4444   35.1082   -3.4958 C   0  0  0  0  0  0  0  0  0  0  0  0
  -87.1847   34.8682   -2.9264 O   0  0  0  0  0  0  0  0  0  0  0  0
  -87.2378   33.7834   -2.0726 C   0  0  0  0  0  0  0  0  0  0  0  0
  -86.3107   33.0300   -1.3716 C   0  0  0  0  0  0  0  0  0  0  0  0
  -87.9619   27.7058    2.1000 C   0  0  0  0  0  0  0  0  0  0  0  0
  -86.7825   27.2765    1.3686 N   0  0  0  0  0  0  0  0  0  0  0  0
  -86.8737   26.3007    0.3320 C   0  0  0  0  0  0  0  0  0  0  0  0
  -87.9636   26.6570   -0.6521 C   0  0  0  0  0  0  0  0  0  0  0  0
  -89.0782   25.9838   -0.8885 N   0  0  0  0  0  0  0  0  0  0  0  0
  -89.9220   26.4185   -1.7683 C   0  0  0  0  0  0  0  0  0  0  0  0
  -91.2158   25.6709   -2.0668 C   0  0  0  0  0  0  0  0  0  0  0  0
  -89.6071   27.5845   -2.4262 C   0  0  0  0  0  0  0  0  0  0  0  0
  -88.1024   27.9774   -1.7241 S   0  0  0  0  0  0  0  0  0  0  0  0
 20 21  1  0  0  0
 21 22  1  0  0  0
 22 23  1  0  0  0
 23 24  2  0  0  0
 24 25  1  0  0  0
 25 26  1  0  0  0
 25 27  2  0  0  0
 27 28  1  0  0  0
 21  1  1  0  0  0
  1  2  2  0  0  0
  2  3  1  0  0  0
  3  4  2  0  0  0
  4  5  1  0  0  0
  5  6  2  0  0  0
  6  7  1  0  0  0
  7  8  2  0  0  0
  8  9  1  0  0  0
  9 10  2  0  0  0
  8 11  1  0  0  0
 11 12  2  0  0  0
 12 13  1  0  0  0
 13 14  2  0  0  0
 14 15  1  0  0  0
 15 16  1  0  0  0
 16 17  1  0  0  0
 17 18  1  0  0  0
 18 19  2  0  0  0
 28 23  1  0  0  0
 10  1  1  0  0  0
 19 11  1  0  0  0
 10  5  1  0  0  0
 18 14  1  0  0  0
M  END
> <minimizedAffinity>
-9.81566

> <CNNscore>
0.3820832670

> <CNNaffinity>
6.6484084129

> <CNN_VS>
2.5402455330

> <CNNaffinity_variance>
0.2325274944

$$$$
[H]c1nc(N(C([H])([H])[H])C([H])([H])c2nc(C([H])([H])[H])c([H])s2)c2c([H])c(-c3c([H])c([H])c4c(c3[H])OC([H])([H])O4)c([H])c([H])c2n1


 28 32  0  0  0  0  0  0  0  0999 V2000
  -85.4078   27.8449    1.7722 C   0  0  0  0  0  0  0  0  0  0  0  0
  -84.4890   27.1035    2.4680 N   0  0  0  0  0  0  0  0  0  0  0  0
  -83.2660   27.5883    2.7176 C   0  0  0  0  0  0  0  0  0  0  0  0
  -82.9170   28.8116    2.2900 N   0  0  0  0  0  0  0  0  0  0  0  0
  -83.7440   29.5942    1.6114 C   0  0  0  0  0  0  0  0  0  0  0  0
  -83.4084   30.8596    1.1669 C   0  0  0  0  0  0  0  0  0  0  0  0
  -84.3428   31.5965    0.4756 C   0  0  0  0  0  0  0  0  0  0  0  0
  -85.6085   31.1411    0.1977 C   0  0  0  0  0  0  0  0  0  0  0  0
  -85.9370   29.8654    0.6494 C   0  0  0  0  0  0  0  0  0  0  0  0
  -85.0295   29.0967    1.3438 C   0  0  0  0  0  0  0  0  0  0  0  0
  -86.5821   31.9468   -0.5396 C   0  0  0  0  0  0  0  0  0  0  0  0
  -87.9274   31.6626   -0.4275 C   0  0  0  0  0  0  0  0  0  0  0  0
  -88.8993   32.3803   -1.0928 C   0  0  0  0  0  0  0  0  0  0  0  0
  -88.4998   33.4287   -1.9058 C   0  0  0  0  0  0  0  0  0  0  0  0
  -89.2628   34.2996   -2.6769 O   0  0  0  0  0  0  0  0  0  0  0  0
  -88.3852   35.0665   -3.4595 C   0  0  0  0  0  0  0  0  0  0  0  0
  -87.1157   34.8244   -2.9135 O   0  0  0  0  0  0  0  0  0  0  0  0
  -87.1580   33.7489   -2.0473 C   0  0  0  0  0  0  0  0  0  0  0  0
  -86.2215   32.9970   -1.3574 C   0  0  0  0  0  0  0  0  0  0  0  0
  -87.8198   27.6611    2.3378 C   0  0  0  0  0  0  0  0  0  0  0  0
  -86.6911   27.2962    1.4993 N   0  0  0  0  0  0  0  0  0  0  0  0
  -86.8481   26.3953    0.4045 C   0  0  0  0  0  0  0  0  0  0  0  0
  -87.7190   26.9992   -0.6726 C   0  0  0  0  0  0  0  0  0  0  0  0
  -87.4009   27.9816   -1.5003 N   0  0  0  0  0  0  0  0  0  0  0  0
  -88.2602   28.3933   -2.3761 C   0  0  0  0  0  0  0  0  0  0  0  0
  -87.9294   29.5212   -3.3458 C   0  0  0  0  0  0  0  0  0  0  0  0
  -89.4873   27.7727   -2.4000 C   0  0  0  0  0  0  0  0  0  0  0  0
  -89.3158   26.6278   -1.1464 S   0  0  0  0  0  0  0  0  0  0  0  0
 20 21  1  0  0  0
 21 22  1  0  0  0
 22 23  1  0  0  0
 23 24  2  0  0  0
 24 25  1  0  0  0
 25 26  1  0  0  0
 25 27  2  0  0  0
 27 28  1  0  0  0
 21  1  1  0  0  0
  1  2  2  0  0  0
  2  3  1  0  0  0
  3  4  2  0  0  0
  4  5  1  0  0  0
  5  6  2  0  0  0
  6  7  1  0  0  0
  7  8  2  0  0  0
  8  9  1  0  0  0
  9 10  2  0  0  0
  8 11  1  0  0  0
 11 12  2  0  0  0
 12 13  1  0  0  0
 13 14  2  0  0  0
 14 15  1  0  0  0
 15 16  1  0  0  0
 16 17  1  0  0  0
 17 18  1  0  0  0
 18 19  2  0  0  0
 28 23  1  0  0  0
 10  1  1  0  0  0
 19 11  1  0  0  0
 10  5  1  0  0  0
 18 14  1  0  0  0
M  END
> <minimizedAffinity>
-10.16228

> <CNNscore>
0.3527950346

> <CNNaffinity>
6.5841827393

> <CNN_VS>
2.3228669167

> <CNNaffinity_variance>
0.2732261717

$$$$
[H]c1nc(N(C([H])([H])[H])C([H])([H])c2nc(C([H])([H])[H])c([H])s2)c2c([H])c(-c3c([H])c([H])c4c(c3[H])OC([H])([H])O4)c([H])c([H])c2n1


 28 32  0  0  0  0  0  0  0  0999 V2000
  -85.5390   27.8263    1.7517 C   0  0  0  0  0  0  0  0  0  0  0  0
  -84.6259   27.0882    2.4585 N   0  0  0  0  0  0  0  0  0  0  0  0
  -83.4095   27.5793    2.7269 C   0  0  0  0  0  0  0  0  0  0  0  0
  -83.0616   28.8059    2.3079 N   0  0  0  0  0  0  0  0  0  0  0  0
  -83.8833   29.5857    1.6197 C   0  0  0  0  0  0  0  0  0  0  0  0
  -83.5488   30.8543    1.1837 C   0  0  0  0  0  0  0  0  0  0  0  0
  -84.4774   31.5878    0.4812 C   0  0  0  0  0  0  0  0  0  0  0  0
  -85.7364   31.1259    0.1838 C   0  0  0  0  0  0  0  0  0  0  0  0
  -86.0639   29.8470    0.6272 C   0  0  0  0  0  0  0  0  0  0  0  0
  -85.1619   29.0815    1.3323 C   0  0  0  0  0  0  0  0  0  0  0  0
  -86.7040   31.9281   -0.5650 C   0  0  0  0  0  0  0  0  0  0  0  0
  -88.0459   31.6145   -0.4999 C   0  0  0  0  0  0  0  0  0  0  0  0
  -89.0121   32.3272   -1.1787 C   0  0  0  0  0  0  0  0  0  0  0  0
  -88.6103   33.4013   -1.9564 C   0  0  0  0  0  0  0  0  0  0  0  0
  -89.3678   34.2736   -2.7312 O   0  0  0  0  0  0  0  0  0  0  0  0
  -88.4833   35.0753   -3.4701 C   0  0  0  0  0  0  0  0  0  0  0  0
  -87.2259   34.8465   -2.8911 O   0  0  0  0  0  0  0  0  0  0  0  0
  -87.2718   33.7514   -2.0502 C   0  0  0  0  0  0  0  0  0  0  0  0
  -86.3409   33.0033   -1.3486 C   0  0  0  0  0  0  0  0  0  0  0  0
  -86.9476   26.3095    0.3781 C   0  0  0  0  0  0  0  0  0  0  0  0
  -86.8150   27.2710    1.4589 N   0  0  0  0  0  0  0  0  0  0  0  0
  -87.9452   27.6686    2.2333 C   0  0  0  0  0  0  0  0  0  0  0  0
  -89.0279   26.6154    2.1907 C   0  0  0  0  0  0  0  0  0  0  0  0
  -89.1618   25.5738    2.9961 N   0  0  0  0  0  0  0  0  0  0  0  0
  -90.1491   24.7530    2.8332 C   0  0  0  0  0  0  0  0  0  0  0  0
  -90.3360   23.5435    3.7410 C   0  0  0  0  0  0  0  0  0  0  0  0
  -91.0268   25.0135    1.8070 C   0  0  0  0  0  0  0  0  0  0  0  0
  -90.3621   26.4374    1.1418 S   0  0  0  0  0  0  0  0  0  0  0  0
 20 21  1  0  0  0
 21 22  1  0  0  0
 22 23  1  0  0  0
 23 24  2  0  0  0
 24 25  1  0  0  0
 25 26  1  0  0  0
 25 27  2  0  0  0
 27 28  1  0  0  0
 21  1  1  0  0  0
  1  2  2  0  0  0
  2  3  1  0  0  0
  3  4  2  0  0  0
  4  5  1  0  0  0
  5  6  2  0  0  0
  6  7  1  0  0  0
  7  8  2  0  0  0
  8  9  1  0  0  0
  9 10  2  0  0  0
  8 11  1  0  0  0
 11 12  2  0  0  0
 12 13  1  0  0  0
 13 14  2  0  0  0
 14 15  1  0  0  0
 15 16  1  0  0  0
 16 17  1  0  0  0
 17 18  1  0  0  0
 18 19  2  0  0  0
 28 23  1  0  0  0
 10  1  1  0  0  0
 19 11  1  0  0  0
 10  5  1  0  0  0
 18 14  1  0  0  0
M  END
> <minimizedAffinity>
-9.98501

> <CNNscore>
0.3384826779

> <CNNaffinity>
6.7037644386

> <CNN_VS>
2.2691080570

> <CNNaffinity_variance>
0.1226841062

$$$$
[H]c1nc(N(C([H])([H])[H])C([H])([H])c2nc(C([H])([H])[H])c([H])s2)c2c([H])c(-c3c([H])c([H])c4c(c3[H])OC([H])([H])O4)c([H])c([H])c2n1


 28 32  0  0  0  0  0  0  0  0999 V2000
  -86.7436   27.8495    1.1202 C   0  0  0  0  0  0  0  0  0  0  0  0
  -86.0127   26.9595    1.8631 N   0  0  0  0  0  0  0  0  0  0  0  0
  -84.7824   27.2718    2.2894 C   0  0  0  0  0  0  0  0  0  0  0  0
  -84.2415   28.4646    1.9965 N   0  0  0  0  0  0  0  0  0  0  0  0
  -84.8792   29.3829    1.2844 C   0  0  0  0  0  0  0  0  0  0  0  0
  -84.3445   30.6200    0.9763 C   0  0  0  0  0  0  0  0  0  0  0  0
  -85.0917   31.5073    0.2358 C   0  0  0  0  0  0  0  0  0  0  0  0
  -86.3572   31.2311   -0.2215 C   0  0  0  0  0  0  0  0  0  0  0  0
  -86.8871   29.9824    0.0940 C   0  0  0  0  0  0  0  0  0  0  0  0
  -86.1704   29.0669    0.8320 C   0  0  0  0  0  0  0  0  0  0  0  0
  -87.1293   32.1940   -1.0070 C   0  0  0  0  0  0  0  0  0  0  0  0
  -88.5078   32.1543   -0.9715 C   0  0  0  0  0  0  0  0  0  0  0  0
  -89.2979   33.0306   -1.6857 C   0  0  0  0  0  0  0  0  0  0  0  0
  -88.6736   33.9878   -2.4692 C   0  0  0  0  0  0  0  0  0  0  0  0
  -89.2253   34.9773   -3.2764 O   0  0  0  0  0  0  0  0  0  0  0  0
  -88.1830   35.5725   -4.0047 C   0  0  0  0  0  0  0  0  0  0  0  0
  -87.0092   35.1106   -3.3903 O   0  0  0  0  0  0  0  0  0  0  0  0
  -87.2904   34.0635   -2.5341 C   0  0  0  0  0  0  0  0  0  0  0  0
  -86.5425   33.1599   -1.7975 C   0  0  0  0  0  0  0  0  0  0  0  0
  -88.1688   26.5014   -0.4039 C   0  0  0  0  0  0  0  0  0  0  0  0
  -88.0379   27.4829    0.6591 N   0  0  0  0  0  0  0  0  0  0  0  0
  -89.1877   28.0864    1.2495 C   0  0  0  0  0  0  0  0  0  0  0  0
  -89.6957   27.2623    2.4098 C   0  0  0  0  0  0  0  0  0  0  0  0
  -89.7325   25.9423    2.4971 N   0  0  0  0  0  0  0  0  0  0  0  0
  -90.1997   25.3774    3.5637 C   0  0  0  0  0  0  0  0  0  0  0  0
  -90.2573   23.8609    3.7004 C   0  0  0  0  0  0  0  0  0  0  0  0
  -90.6435   26.1992    4.5732 C   0  0  0  0  0  0  0  0  0  0  0  0
  -90.3538   27.7439    3.9088 S   0  0  0  0  0  0  0  0  0  0  0  0
 20 21  1  0  0  0
 21 22  1  0  0  0
 22 23  1  0  0  0
 23 24  2  0  0  0
 24 25  1  0  0  0
 25 26  1  0  0  0
 25 27  2  0  0  0
 27 28  1  0  0  0
 21  1  1  0  0  0
  1  2  2  0  0  0
  2  3  1  0  0  0
  3  4  2  0  0  0
  4  5  1  0  0  0
  5  6  2  0  0  0
  6  7  1  0  0  0
  7  8  2  0  0  0
  8  9  1  0  0  0
  9 10  2  0  0  0
  8 11  1  0  0  0
 11 12  2  0  0  0
 12 13  1  0  0  0
 13 14  2  0  0  0
 14 15  1  0  0  0
 15 16  1  0  0  0
 16 17  1  0  0  0
 17 18  1  0  0  0
 18 19  2  0  0  0
 28 23  1  0  0  0
 10  1  1  0  0  0
 19 11  1  0  0  0
 10  5  1  0  0  0
 18 14  1  0  0  0
M  END
> <minimizedAffinity>
-9.21433

> <CNNscore>
0.3381170630

> <CNNaffinity>
6.6205801964

> <CNN_VS>
2.2385311127

> <CNNaffinity_variance>
0.2099238336

$$$$
[H]c1nc(N(C([H])([H])[H])C([H])([H])c2nc(C([H])([H])[H])c([H])s2)c2c([H])c(-c3c([H])c([H])c4c(c3[H])OC([H])([H])O4)c([H])c([H])c2n1


 28 32  0  0  0  0  0  0  0  0999 V2000
  -88.7022   32.2226   -2.4390 C   0  0  0  0  0  0  0  0  0  0  0  0
  -89.1382   33.3037   -3.1596 N   0  0  0  0  0  0  0  0  0  0  0  0
  -88.4673   34.4622   -3.1291 C   0  0  0  0  0  0  0  0  0  0  0  0
  -87.3534   34.5859   -2.3908 N   0  0  0  0  0  0  0  0  0  0  0  0
  -86.8628   33.5909   -1.6652 C   0  0  0  0  0  0  0  0  0  0  0  0
  -85.7142   33.6937   -0.9028 C   0  0  0  0  0  0  0  0  0  0  0  0
  -85.2833   32.5984   -0.1896 C   0  0  0  0  0  0  0  0  0  0  0  0
  -85.9379   31.3907   -0.1916 C   0  0  0  0  0  0  0  0  0  0  0  0
  -87.0938   31.2972   -0.9626 C   0  0  0  0  0  0  0  0  0  0  0  0
  -87.5577   32.3710   -1.6896 C   0  0  0  0  0  0  0  0  0  0  0  0
  -85.4566   30.2423    0.5764 C   0  0  0  0  0  0  0  0  0  0  0  0
  -86.3373   29.2415    0.9314 C   0  0  0  0  0  0  0  0  0  0  0  0
  -85.9528   28.1313    1.6539 C   0  0  0  0  0  0  0  0  0  0  0  0
  -84.6251   28.0241    2.0354 C   0  0  0  0  0  0  0  0  0  0  0  0
  -83.9833   27.0236    2.7579 O   0  0  0  0  0  0  0  0  0  0  0  0
  -82.6803   27.4627    3.0414 C   0  0  0  0  0  0  0  0  0  0  0  0
  -82.4988   28.5910    2.2273 O   0  0  0  0  0  0  0  0  0  0  0  0
  -83.7061   29.0069    1.6999 C   0  0  0  0  0  0  0  0  0  0  0  0
  -84.1432   30.1019    0.9732 C   0  0  0  0  0  0  0  0  0  0  0  0
  -88.9357   29.8737   -3.2134 C   0  0  0  0  0  0  0  0  0  0  0  0
  -89.4474   31.0118   -2.4696 N   0  0  0  0  0  0  0  0  0  0  0  0
  -90.6869   30.9354   -1.7677 C   0  0  0  0  0  0  0  0  0  0  0  0
  -90.7861   29.6478   -0.9831 C   0  0  0  0  0  0  0  0  0  0  0  0
  -90.1990   29.3669    0.1692 N   0  0  0  0  0  0  0  0  0  0  0  0
  -90.3812   28.2115    0.7232 C   0  0  0  0  0  0  0  0  0  0  0  0
  -89.7225   27.8526    2.0496 C   0  0  0  0  0  0  0  0  0  0  0  0
  -91.1945   27.3163    0.0685 C   0  0  0  0  0  0  0  0  0  0  0  0
  -91.6448   28.2106   -1.3132 S   0  0  0  0  0  0  0  0  0  0  0  0
 20 21  1  0  0  0
 21 22  1  0  0  0
 22 23  1  0  0  0
 23 24  2  0  0  0
 24 25  1  0  0  0
 25 26  1  0  0  0
 25 27  2  0  0  0
 27 28  1  0  0  0
 21  1  1  0  0  0
  1  2  2  0  0  0
  2  3  1  0  0  0
  3  4  2  0  0  0
  4  5  1  0  0  0
  5  6  2  0  0  0
  6  7  1  0  0  0
  7  8  2  0  0  0
  8  9  1  0  0  0
  9 10  2  0  0  0
  8 11  1  0  0  0
 11 12  2  0  0  0
 12 13  1  0  0  0
 13 14  2  0  0  0
 14 15  1  0  0  0
 15 16  1  0  0  0
 16 17  1  0  0  0
 17 18  1  0  0  0
 18 19  2  0  0  0
 28 23  1  0  0  0
 10  1  1  0  0  0
 19 11  1  0  0  0
 10  5  1  0  0  0
 18 14  1  0  0  0
M  END
> <minimizedAffinity>
-8.68221

> <CNNscore>
0.2807092965

> <CNNaffinity>
6.4856767654

> <CNN_VS>
1.8205897808

> <CNNaffinity_variance>
0.1751750112

$$$$
[H]c1nc(N(C([H])([H])[H])C([H])([H])c2nc(C([H])([H])[H])c([H])s2)c2c([H])c(-c3c([H])c([H])c4c(c3[H])OC([H])([H])O4)c([H])c([H])c2n1


 28 32  0  0  0  0  0  0  0  0999 V2000
  -89.1325   31.7213   -2.2286 C   0  0  0  0  0  0  0  0  0  0  0  0
  -89.9541   32.5273   -2.9725 N   0  0  0  0  0  0  0  0  0  0  0  0
  -89.6105   33.7933   -3.2412 C   0  0  0  0  0  0  0  0  0  0  0  0
  -88.4528   34.2969   -2.7861 N   0  0  0  0  0  0  0  0  0  0  0  0
  -87.6005   33.5866   -2.0607 C   0  0  0  0  0  0  0  0  0  0  0  0
  -86.4001   34.0824   -1.5870 C   0  0  0  0  0  0  0  0  0  0  0  0
  -85.5809   33.2603   -0.8474 C   0  0  0  0  0  0  0  0  0  0  0  0
  -85.8913   31.9561   -0.5482 C   0  0  0  0  0  0  0  0  0  0  0  0
  -87.1026   31.4659   -1.0297 C   0  0  0  0  0  0  0  0  0  0  0  0
  -87.9500   32.2574   -1.7726 C   0  0  0  0  0  0  0  0  0  0  0  0
  -85.0007   31.1044    0.2406 C   0  0  0  0  0  0  0  0  0  0  0  0
  -83.6781   31.4629    0.3997 C   0  0  0  0  0  0  0  0  0  0  0  0
  -82.7835   30.7083    1.1296 C   0  0  0  0  0  0  0  0  0  0  0  0
  -83.2399   29.5432    1.7245 C   0  0  0  0  0  0  0  0  0  0  0  0
  -82.5579   28.6131    2.5023 O   0  0  0  0  0  0  0  0  0  0  0  0
  -83.4103   27.5179    2.7139 C   0  0  0  0  0  0  0  0  0  0  0  0
  -84.6735   27.9628    2.2957 O   0  0  0  0  0  0  0  0  0  0  0  0
  -84.5615   29.1453    1.5903 C   0  0  0  0  0  0  0  0  0  0  0  0
  -85.4196   29.9387    0.8468 C   0  0  0  0  0  0  0  0  0  0  0  0
  -90.3551   30.1264   -0.7681 C   0  0  0  0  0  0  0  0  0  0  0  0
  -89.5331   30.3884   -1.9368 N   0  0  0  0  0  0  0  0  0  0  0  0
  -89.1202   29.3294   -2.7988 C   0  0  0  0  0  0  0  0  0  0  0  0
  -89.0029   28.0282   -2.0396 C   0  0  0  0  0  0  0  0  0  0  0  0
  -88.1243   27.7299   -1.0959 N   0  0  0  0  0  0  0  0  0  0  0  0
  -88.1496   26.5645   -0.5336 C   0  0  0  0  0  0  0  0  0  0  0  0
  -87.1547   26.1856    0.5566 C   0  0  0  0  0  0  0  0  0  0  0  0
  -89.1112   25.6774   -0.9575 C   0  0  0  0  0  0  0  0  0  0  0  0
  -89.9202   26.5934   -2.1484 S   0  0  0  0  0  0  0  0  0  0  0  0
 20 21  1  0  0  0
 21 22  1  0  0  0
 22 23  1  0  0  0
 23 24  2  0  0  0
 24 25  1  0  0  0
 25 26  1  0  0  0
 25 27  2  0  0  0
 27 28  1  0  0  0
 21  1  1  0  0  0
  1  2  2  0  0  0
  2  3  1  0  0  0
  3  4  2  0  0  0
  4  5  1  0  0  0
  5  6  2  0  0  0
  6  7  1  0  0  0
  7  8  2  0  0  0
  8  9  1  0  0  0
  9 10  2  0  0  0
  8 11  1  0  0  0
 11 12  2  0  0  0
 12 13  1  0  0  0
 13 14  2  0  0  0
 14 15  1  0  0  0
 15 16  1  0  0  0
 16 17  1  0  0  0
 17 18  1  0  0  0
 18 19  2  0  0  0
 28 23  1  0  0  0
 10  1  1  0  0  0
 19 11  1  0  0  0
 10  5  1  0  0  0
 18 14  1  0  0  0
M  END
> <minimizedAffinity>
-9.10091

> <CNNscore>
0.2488554120

> <CNNaffinity>
6.2846269608

> <CNN_VS>
1.5639634132

> <CNNaffinity_variance>
0.4160572886

$$$$
[H]c1nc(N(C([H])([H])[H])C([H])([H])c2nc(C([H])([H])[H])c([H])s2)c2c([H])c(-c3c([H])c([H])c4c(c3[H])OC([H])([H])O4)c([H])c([H])c2n1


 28 32  0  0  0  0  0  0  0  0999 V2000
  -86.2390   32.2971   -0.9838 C   0  0  0  0  0  0  0  0  0  0  0  0
  -85.3736   33.3465   -1.1509 N   0  0  0  0  0  0  0  0  0  0  0  0
  -84.1739   33.3457   -0.5561 C   0  0  0  0  0  0  0  0  0  0  0  0
  -83.7963   32.3151    0.2160 N   0  0  0  0  0  0  0  0  0  0  0  0
  -84.5710   31.2611    0.4301 C   0  0  0  0  0  0  0  0  0  0  0  0
  -84.2004   30.1858    1.2160 C   0  0  0  0  0  0  0  0  0  0  0  0
  -85.0759   29.1351    1.3698 C   0  0  0  0  0  0  0  0  0  0  0  0
  -86.3150   29.0920    0.7786 C   0  0  0  0  0  0  0  0  0  0  0  0
  -86.6792   30.1798   -0.0110 C   0  0  0  0  0  0  0  0  0  0  0  0
  -85.8315   31.2505   -0.1887 C   0  0  0  0  0  0  0  0  0  0  0  0
  -87.2257   27.9613    0.9595 C   0  0  0  0  0  0  0  0  0  0  0  0
  -87.4854   27.1181   -0.1010 C   0  0  0  0  0  0  0  0  0  0  0  0
  -88.3321   26.0339   -0.0017 C   0  0  0  0  0  0  0  0  0  0  0  0
  -88.9436   25.7882    1.2171 C   0  0  0  0  0  0  0  0  0  0  0  0
  -89.8280   24.7787    1.5833 O   0  0  0  0  0  0  0  0  0  0  0  0
  -90.3044   25.0674    2.8720 C   0  0  0  0  0  0  0  0  0  0  0  0
  -89.4644   26.0880    3.3427 O   0  0  0  0  0  0  0  0  0  0  0  0
  -88.7108   26.6103    2.3093 C   0  0  0  0  0  0  0  0  0  0  0  0
  -87.8518   27.6861    2.1571 C   0  0  0  0  0  0  0  0  0  0  0  0
  -88.6681   32.8010   -0.8533 C   0  0  0  0  0  0  0  0  0  0  0  0
  -87.5169   32.3348   -1.6066 N   0  0  0  0  0  0  0  0  0  0  0  0
  -87.6463   31.9133   -2.9633 C   0  0  0  0  0  0  0  0  0  0  0  0
  -87.9766   33.0811   -3.8636 C   0  0  0  0  0  0  0  0  0  0  0  0
  -87.2930   34.2066   -3.9958 N   0  0  0  0  0  0  0  0  0  0  0  0
  -87.7050   35.1213   -4.8135 C   0  0  0  0  0  0  0  0  0  0  0  0
  -86.9441   36.4292   -4.9927 C   0  0  0  0  0  0  0  0  0  0  0  0
  -88.8589   34.8683   -5.5178 C   0  0  0  0  0  0  0  0  0  0  0  0
  -89.2739   33.3146   -4.9473 S   0  0  0  0  0  0  0  0  0  0  0  0
 20 21  1  0  0  0
 21 22  1  0  0  0
 22 23  1  0  0  0
 23 24  2  0  0  0
 24 25  1  0  0  0
 25 26  1  0  0  0
 25 27  2  0  0  0
 27 28  1  0  0  0
 21  1  1  0  0  0
  1  2  2  0  0  0
  2  3  1  0  0  0
  3  4  2  0  0  0
  4  5  1  0  0  0
  5  6  2  0  0  0
  6  7  1  0  0  0
  7  8  2  0  0  0
  8  9  1  0  0  0
  9 10  2  0  0  0
  8 11  1  0  0  0
 11 12  2  0  0  0
 12 13  1  0  0  0
 13 14  2  0  0  0
 14 15  1  0  0  0
 15 16  1  0  0  0
 16 17  1  0  0  0
 17 18  1  0  0  0
 18 19  2  0  0  0
 28 23  1  0  0  0
 10  1  1  0  0  0
 19 11  1  0  0  0
 10  5  1  0  0  0
 18 14  1  0  0  0
M  END
> <minimizedAffinity>
-8.64290

> <CNNscore>
0.2341122776

> <CNNaffinity>
6.4691681862

> <CNN_VS>
1.5145117044

> <CNNaffinity_variance>
0.2279770821

$$$$
[H]N=C(OC([H])([H])[H])c1nc2c([H])c([H])c3nc([H])nc(N([H])c4c([H])c([H])c(O[H])c([N+](=O)[O-])c4[H])c3c2s1


 31 34  0  0  0  0  0  0  0  0999 V2000
  -86.3838   32.6367   -1.1275 C   0  0  0  0  0  0  0  0  0  0  0  0
  -85.1321   32.7206   -0.7394 N   0  0  0  0  0  0  0  0  0  0  0  0
  -84.6163   31.7784    0.0037 C   0  0  0  0  0  0  0  0  0  0  0  0
  -83.2930   31.7495    0.4917 C   0  0  0  0  0  0  0  0  0  0  0  0
  -82.8857   30.7051    1.2648 C   0  0  0  0  0  0  0  0  0  0  0  0
  -83.6909   29.6323    1.6233 C   0  0  0  0  0  0  0  0  0  0  0  0
  -83.2672   28.6352    2.3823 N   0  0  0  0  0  0  0  0  0  0  0  0
  -84.1192   27.6433    2.6839 C   0  0  0  0  0  0  0  0  0  0  0  0
  -85.3598   27.6780    2.2202 N   0  0  0  0  0  0  0  0  0  0  0  0
  -85.8785   28.6687    1.4307 C   0  0  0  0  0  0  0  0  0  0  0  0
  -84.9795   29.6680    1.1427 C   0  0  0  0  0  0  0  0  0  0  0  0
  -85.4246   30.7253    0.3491 C   0  0  0  0  0  0  0  0  0  0  0  0
  -86.8775   31.1741   -0.4272 S   0  0  0  0  0  0  0  0  0  0  0  0
  -87.1586   33.5824   -1.9636 C   0  0  0  0  0  0  0  0  0  0  0  0
  -86.5342   34.3464   -2.7764 N   0  0  0  0  0  0  0  0  0  0  0  0
  -85.5178   34.3583   -2.8997 H   0  0  0  0  0  0  0  0  0  0  0  0
  -89.3919   32.9278   -2.7424 C   0  0  0  0  0  0  0  0  0  0  0  0
  -88.5309   33.6442   -1.8730 O   0  0  0  0  0  0  0  0  0  0  0  0
  -87.1872   28.5782    0.9425 N   0  0  0  0  0  0  0  0  0  0  0  0
  -87.6015   29.1908    0.2647 H   0  0  0  0  0  0  0  0  0  0  0  0
  -88.0353   27.5083    1.4211 C   0  0  0  0  0  0  0  0  0  0  0  0
  -88.1867   26.3006    0.8109 C   0  0  0  0  0  0  0  0  0  0  0  0
  -89.0400   25.3475    1.3150 C   0  0  0  0  0  0  0  0  0  0  0  0
  -89.8020   25.5536    2.4802 C   0  0  0  0  0  0  0  0  0  0  0  0
  -90.6288   24.5239    2.9034 O   0  0  0  0  0  0  0  0  0  0  0  0
  -89.6540   26.7630    3.0973 C   0  0  0  0  0  0  0  0  0  0  0  0
  -88.7832   27.7213    2.5724 C   0  0  0  0  0  0  0  0  0  0  0  0
  -91.2016   24.5146    3.6950 H   0  0  0  0  0  0  0  0  0  0  0  0
  -90.3614   27.0761    4.2732 N   0  0  0  0  0  0  0  0  0  0  0  0
  -91.2010   26.2450    4.9321 O   0  0  0  0  0  0  0  0  0  0  0  0
  -90.2210   28.2321    4.7867 O   0  0  0  0  0  0  0  0  0  0  0  0
 17 18  1  0  0  0
 18 14  1  0  0  0
 14 15  2  0  0  0
 14  1  1  0  0  0
  1  2  2  0  0  0
  2  3  1  0  0  0
  3  4  2  0  0  0
  4  5  1  0  0  0
  5  6  2  0  0  0
  6  7  1  0  0  0
  7  8  2  0  0  0
  8  9  1  0  0  0
  9 10  2  0  0  0
 10 19  1  0  0  0
 19 21  1  0  0  0
 21 22  2  0  0  0
 22 23  1  0  0  0
 23 24  2  0  0  0
 24 25  1  0  0  0
 24 26  1  0  0  0
 26 27  2  0  0  0
 26 29  1  0  0  0
 29 30  1  0  0  0
 29 31  2  0  0  0
 10 11  1  0  0  0
 11 12  2  0  0  0
 12 13  1  0  0  0
 13  1  1  0  0  0
 12  3  1  0  0  0
 11  6  1  0  0  0
 27 21  1  0  0  0
 15 16  1  0  0  0
 19 20  1  0  0  0
 25 28  1  0  0  0
M  CHG 1  29   1
M  CHG 1  30  -1
M  END
> <minimizedAffinity>
-9.37535

> <CNNscore>
0.9316514134

> <CNNaffinity>
7.4587302208

> <CNN_VS>
6.9489364624

> <CNNaffinity_variance>
0.1808398664

$$$$
[H]N=C(OC([H])([H])[H])c1nc2c([H])c([H])c3nc([H])nc(N([H])c4c([H])c([H])c(O[H])c([N+](=O)[O-])c4[H])c3c2s1


 31 34  0  0  0  0  0  0  0  0999 V2000
  -87.0533   28.0975    1.6990 C   0  0  0  0  0  0  0  0  0  0  0  0
  -85.7669   28.1537    1.9569 N   0  0  0  0  0  0  0  0  0  0  0  0
  -85.0587   29.1605    1.5200 C   0  0  0  0  0  0  0  0  0  0  0  0
  -83.6737   29.3385    1.7206 C   0  0  0  0  0  0  0  0  0  0  0  0
  -83.0565   30.4361    1.2024 C   0  0  0  0  0  0  0  0  0  0  0  0
  -83.6982   31.4258    0.4700 C   0  0  0  0  0  0  0  0  0  0  0  0
  -83.0684   32.4778   -0.0265 N   0  0  0  0  0  0  0  0  0  0  0  0
  -83.7699   33.3809   -0.7287 C   0  0  0  0  0  0  0  0  0  0  0  0
  -85.0704   33.2062   -0.9112 N   0  0  0  0  0  0  0  0  0  0  0  0
  -85.7984   32.1500   -0.4333 C   0  0  0  0  0  0  0  0  0  0  0  0
  -85.0486   31.2447    0.2796 C   0  0  0  0  0  0  0  0  0  0  0  0
  -85.7075   30.1299    0.7982 C   0  0  0  0  0  0  0  0  0  0  0  0
  -87.3000   29.5146    0.8023 S   0  0  0  0  0  0  0  0  0  0  0  0
  -88.0316   27.0580    2.0944 C   0  0  0  0  0  0  0  0  0  0  0  0
  -87.7353   25.8275    1.9153 N   0  0  0  0  0  0  0  0  0  0  0  0
  -86.8557   25.4936    1.5111 H   0  0  0  0  0  0  0  0  0  0  0  0
  -90.4816   26.9254    2.1461 C   0  0  0  0  0  0  0  0  0  0  0  0
  -89.2442   27.4034    2.6471 O   0  0  0  0  0  0  0  0  0  0  0  0
  -87.1829   32.0922   -0.6307 N   0  0  0  0  0  0  0  0  0  0  0  0
  -87.8625   31.8485    0.0659 H   0  0  0  0  0  0  0  0  0  0  0  0
  -87.7139   32.4263   -1.9342 C   0  0  0  0  0  0  0  0  0  0  0  0
  -87.7248   31.5913   -3.0095 C   0  0  0  0  0  0  0  0  0  0  0  0
  -88.2203   31.9990   -4.2257 C   0  0  0  0  0  0  0  0  0  0  0  0
  -88.7433   33.2885   -4.4364 C   0  0  0  0  0  0  0  0  0  0  0  0
  -89.2205   33.5946   -5.7020 O   0  0  0  0  0  0  0  0  0  0  0  0
  -88.7357   34.1308   -3.3612 C   0  0  0  0  0  0  0  0  0  0  0  0
  -88.2284   33.7016   -2.1321 C   0  0  0  0  0  0  0  0  0  0  0  0
  -89.6224   34.4362   -5.9934 H   0  0  0  0  0  0  0  0  0  0  0  0
  -89.2399   35.4415   -3.4547 N   0  0  0  0  0  0  0  0  0  0  0  0
  -88.5489   36.5724   -3.1835 O   0  0  0  0  0  0  0  0  0  0  0  0
  -90.4459   35.6123   -3.8237 O   0  0  0  0  0  0  0  0  0  0  0  0
 17 18  1  0  0  0
 18 14  1  0  0  0
 14 15  2  0  0  0
 14  1  1  0  0  0
  1  2  2  0  0  0
  2  3  1  0  0  0
  3  4  2  0  0  0
  4  5  1  0  0  0
  5  6  2  0  0  0
  6  7  1  0  0  0
  7  8  2  0  0  0
  8  9  1  0  0  0
  9 10  2  0  0  0
 10 19  1  0  0  0
 19 21  1  0  0  0
 21 22  2  0  0  0
 22 23  1  0  0  0
 23 24  2  0  0  0
 24 25  1  0  0  0
 24 26  1  0  0  0
 26 27  2  0  0  0
 26 29  1  0  0  0
 29 30  1  0  0  0
 29 31  2  0  0  0
 10 11  1  0  0  0
 11 12  2  0  0  0
 12 13  1  0  0  0
 13  1  1  0  0  0
 12  3  1  0  0  0
 11  6  1  0  0  0
 27 21  1  0  0  0
 15 16  1  0  0  0
 19 20  1  0  0  0
 25 28  1  0  0  0
M  CHG 1  29   1
M  CHG 1  30  -1
M  END
> <minimizedAffinity>
-8.30337

> <CNNscore>
0.5905112028

> <CNNaffinity>
7.0075430870

> <CNN_VS>
4.1380329132

> <CNNaffinity_variance>
0.1494448185

$$$$
[H]N=C(OC([H])([H])[H])c1nc2c([H])c([H])c3nc([H])nc(N([H])c4c([H])c([H])c(O[H])c([N+](=O)[O-])c4[H])c3c2s1


 31 34  0  0  0  0  0  0  0  0999 V2000
  -86.2897   33.1550   -1.4634 C   0  0  0  0  0  0  0  0  0  0  0  0
  -84.9891   33.2326   -1.2997 N   0  0  0  0  0  0  0  0  0  0  0  0
  -84.3757   32.3648   -0.5402 C   0  0  0  0  0  0  0  0  0  0  0  0
  -82.9901   32.3393   -0.2764 C   0  0  0  0  0  0  0  0  0  0  0  0
  -82.4808   31.3782    0.5429 C   0  0  0  0  0  0  0  0  0  0  0  0
  -83.2366   30.3900    1.1592 C   0  0  0  0  0  0  0  0  0  0  0  0
  -82.7125   29.4735    1.9561 N   0  0  0  0  0  0  0  0  0  0  0  0
  -83.5224   28.5607    2.5143 C   0  0  0  0  0  0  0  0  0  0  0  0
  -84.8222   28.5914    2.2600 N   0  0  0  0  0  0  0  0  0  0  0  0
  -85.4453   29.5019    1.4496 C   0  0  0  0  0  0  0  0  0  0  0  0
  -84.5866   30.4217    0.8961 C   0  0  0  0  0  0  0  0  0  0  0  0
  -85.1365   31.3947    0.0613 C   0  0  0  0  0  0  0  0  0  0  0  0
  -86.6894   31.8079   -0.5155 S   0  0  0  0  0  0  0  0  0  0  0  0
  -87.1739   34.0260   -2.2718 C   0  0  0  0  0  0  0  0  0  0  0  0
  -86.6481   34.8457   -3.0999 N   0  0  0  0  0  0  0  0  0  0  0  0
  -85.6413   34.9520   -3.2538 H   0  0  0  0  0  0  0  0  0  0  0  0
  -89.4320   34.2069   -3.2160 C   0  0  0  0  0  0  0  0  0  0  0  0
  -88.5426   33.9601   -2.1395 O   0  0  0  0  0  0  0  0  0  0  0  0
  -86.8191   29.4083    1.1981 N   0  0  0  0  0  0  0  0  0  0  0  0
  -87.5079   30.0905    1.4562 H   0  0  0  0  0  0  0  0  0  0  0  0
  -87.3188   28.2506    0.4890 C   0  0  0  0  0  0  0  0  0  0  0  0
  -87.1269   26.9583    0.8723 C   0  0  0  0  0  0  0  0  0  0  0  0
  -87.6091   25.9116    0.1222 C   0  0  0  0  0  0  0  0  0  0  0  0
  -88.3245   26.1039   -1.0744 C   0  0  0  0  0  0  0  0  0  0  0  0
  -88.7689   24.9780   -1.7510 O   0  0  0  0  0  0  0  0  0  0  0  0
  -88.5208   27.3982   -1.4640 C   0  0  0  0  0  0  0  0  0  0  0  0
  -88.0242   28.4509   -0.6910 C   0  0  0  0  0  0  0  0  0  0  0  0
  -89.2862   24.9534   -2.5796 H   0  0  0  0  0  0  0  0  0  0  0  0
  -89.2282   27.7092   -2.6404 N   0  0  0  0  0  0  0  0  0  0  0  0
  -90.1138   26.8990   -3.2643 O   0  0  0  0  0  0  0  0  0  0  0  0
  -89.0420   28.8421   -3.1894 O   0  0  0  0  0  0  0  0  0  0  0  0
 17 18  1  0  0  0
 18 14  1  0  0  0
 14 15  2  0  0  0
 14  1  1  0  0  0
  1  2  2  0  0  0
  2  3  1  0  0  0
  3  4  2  0  0  0
  4  5  1  0  0  0
  5  6  2  0  0  0
  6  7  1  0  0  0
  7  8  2  0  0  0
  8  9  1  0  0  0
  9 10  2  0  0  0
 10 19  1  0  0  0
 19 21  1  0  0  0
 21 22  2  0  0  0
 22 23  1  0  0  0
 23 24  2  0  0  0
 24 25  1  0  0  0
 24 26  1  0  0  0
 26 27  2  0  0  0
 26 29  1  0  0  0
 29 30  1  0  0  0
 29 31  2  0  0  0
 10 11  1  0  0  0
 11 12  2  0  0  0
 12 13  1  0  0  0
 13  1  1  0  0  0
 12  3  1  0  0  0
 11  6  1  0  0  0
 27 21  1  0  0  0
 15 16  1  0  0  0
 19 20  1  0  0  0
 25 28  1  0  0  0
M  CHG 1  29   1
M  CHG 1  30  -1
M  END
> <minimizedAffinity>
-9.33997

> <CNNscore>
0.5561707020

> <CNNaffinity>
6.9462347031

> <CNN_VS>
3.8632922173

> <CNNaffinity_variance>
0.1286157668

$$$$
[H]N=C(OC([H])([H])[H])c1nc2c([H])c([H])c3nc([H])nc(N([H])c4c([H])c([H])c(O[H])c([N+](=O)[O-])c4[H])c3c2s1


 31 34  0  0  0  0  0  0  0  0999 V2000
  -86.3231   32.8053   -1.2908 C   0  0  0  0  0  0  0  0  0  0  0  0
  -85.1027   32.9451   -0.8268 N   0  0  0  0  0  0  0  0  0  0  0  0
  -84.5795   32.0108   -0.0789 C   0  0  0  0  0  0  0  0  0  0  0  0
  -83.2872   32.0389    0.4863 C   0  0  0  0  0  0  0  0  0  0  0  0
  -82.8683   30.9959    1.2549 C   0  0  0  0  0  0  0  0  0  0  0  0
  -83.6322   29.8713    1.5369 C   0  0  0  0  0  0  0  0  0  0  0  0
  -83.1988   28.8768    2.2938 N   0  0  0  0  0  0  0  0  0  0  0  0
  -84.0106   27.8322    2.5183 C   0  0  0  0  0  0  0  0  0  0  0  0
  -85.2221   27.8136    1.9826 N   0  0  0  0  0  0  0  0  0  0  0  0
  -85.7482   28.7975    1.1894 C   0  0  0  0  0  0  0  0  0  0  0  0
  -84.8907   29.8517    0.9815 C   0  0  0  0  0  0  0  0  0  0  0  0
  -85.3470   30.9061    0.1903 C   0  0  0  0  0  0  0  0  0  0  0  0
  -86.7749   31.2986   -0.6592 S   0  0  0  0  0  0  0  0  0  0  0  0
  -87.0993   33.7319   -2.1468 C   0  0  0  0  0  0  0  0  0  0  0  0
  -86.4792   34.4541   -3.0001 N   0  0  0  0  0  0  0  0  0  0  0  0
  -85.4654   34.4441   -3.1436 H   0  0  0  0  0  0  0  0  0  0  0  0
  -89.2842   34.4375   -3.0135 C   0  0  0  0  0  0  0  0  0  0  0  0
  -88.4683   33.8204   -2.0317 O   0  0  0  0  0  0  0  0  0  0  0  0
  -87.0194   28.6509    0.6220 N   0  0  0  0  0  0  0  0  0  0  0  0
  -87.3851   29.1924   -0.1392 H   0  0  0  0  0  0  0  0  0  0  0  0
  -87.8985   27.6261    1.1412 C   0  0  0  0  0  0  0  0  0  0  0  0
  -88.3679   27.5746    2.4182 C   0  0  0  0  0  0  0  0  0  0  0  0
  -89.1758   26.5456    2.8414 C   0  0  0  0  0  0  0  0  0  0  0  0
  -89.5671   25.4924    1.9938 C   0  0  0  0  0  0  0  0  0  0  0  0
  -90.3872   24.5068    2.5222 O   0  0  0  0  0  0  0  0  0  0  0  0
  -89.0999   25.5387    0.7112 C   0  0  0  0  0  0  0  0  0  0  0  0
  -88.2795   26.5909    0.2965 C   0  0  0  0  0  0  0  0  0  0  0  0
  -90.7495   23.7282    2.0562 H   0  0  0  0  0  0  0  0  0  0  0  0
  -89.4326   24.5420   -0.2253 N   0  0  0  0  0  0  0  0  0  0  0  0
  -89.7558   23.2617    0.0683 O   0  0  0  0  0  0  0  0  0  0  0  0
  -89.4396   24.8381   -1.4630 O   0  0  0  0  0  0  0  0  0  0  0  0
 17 18  1  0  0  0
 18 14  1  0  0  0
 14 15  2  0  0  0
 14  1  1  0  0  0
  1  2  2  0  0  0
  2  3  1  0  0  0
  3  4  2  0  0  0
  4  5  1  0  0  0
  5  6  2  0  0  0
  6  7  1  0  0  0
  7  8  2  0  0  0
  8  9  1  0  0  0
  9 10  2  0  0  0
 10 19  1  0  0  0
 19 21  1  0  0  0
 21 22  2  0  0  0
 22 23  1  0  0  0
 23 24  2  0  0  0
 24 25  1  0  0  0
 24 26  1  0  0  0
 26 27  2  0  0  0
 26 29  1  0  0  0
 29 30  1  0  0  0
 29 31  2  0  0  0
 10 11  1  0  0  0
 11 12  2  0  0  0
 12 13  1  0  0  0
 13  1  1  0  0  0
 12  3  1  0  0  0
 11  6  1  0  0  0
 27 21  1  0  0  0
 15 16  1  0  0  0
 19 20  1  0  0  0
 25 28  1  0  0  0
M  CHG 1  29   1
M  CHG 1  30  -1
M  END
> <minimizedAffinity>
-8.88814

> <CNNscore>
0.5535324812

> <CNNaffinity>
7.0466966629

> <CNN_VS>
3.9005753994

> <CNNaffinity_variance>
0.1231215224

$$$$
[H]N=C(OC([H])([H])[H])c1nc2c([H])c([H])c3nc([H])nc(N([H])c4c([H])c([H])c(O[H])c([N+](=O)[O-])c4[H])c3c2s1


 31 34  0  0  0  0  0  0  0  0999 V2000
  -87.1217   27.0523    1.8965 C   0  0  0  0  0  0  0  0  0  0  0  0
  -85.8714   26.8808    2.2594 N   0  0  0  0  0  0  0  0  0  0  0  0
  -85.0017   27.8369    2.0707 C   0  0  0  0  0  0  0  0  0  0  0  0
  -83.6329   27.7800    2.4074 C   0  0  0  0  0  0  0  0  0  0  0  0
  -82.8334   28.8514    2.1487 C   0  0  0  0  0  0  0  0  0  0  0  0
  -83.2680   30.0327    1.5626 C   0  0  0  0  0  0  0  0  0  0  0  0
  -82.4641   31.0542    1.3177 N   0  0  0  0  0  0  0  0  0  0  0  0
  -82.9716   32.1542    0.7407 C   0  0  0  0  0  0  0  0  0  0  0  0
  -84.2585   32.1994    0.4290 N   0  0  0  0  0  0  0  0  0  0  0  0
  -85.1580   31.1908    0.6472 C   0  0  0  0  0  0  0  0  0  0  0  0
  -84.6041   30.0800    1.2380 C   0  0  0  0  0  0  0  0  0  0  0  0
  -85.4469   28.9975    1.4908 C   0  0  0  0  0  0  0  0  0  0  0  0
  -87.0962   28.6224    1.2584 S   0  0  0  0  0  0  0  0  0  0  0  0
  -88.2577   26.1096    2.0176 C   0  0  0  0  0  0  0  0  0  0  0  0
  -88.5532   25.3636    1.0224 N   0  0  0  0  0  0  0  0  0  0  0  0
  -88.0567   25.3644    0.1269 H   0  0  0  0  0  0  0  0  0  0  0  0
  -89.6275   27.1558    3.7647 C   0  0  0  0  0  0  0  0  0  0  0  0
  -88.9899   26.0318    3.1808 O   0  0  0  0  0  0  0  0  0  0  0  0
  -86.5116   31.3643    0.3358 N   0  0  0  0  0  0  0  0  0  0  0  0
  -87.2833   31.1185    0.9278 H   0  0  0  0  0  0  0  0  0  0  0  0
  -86.8616   31.9657   -0.9325 C   0  0  0  0  0  0  0  0  0  0  0  0
  -86.8609   33.3030   -1.1883 C   0  0  0  0  0  0  0  0  0  0  0  0
  -87.2392   33.7958   -2.4150 C   0  0  0  0  0  0  0  0  0  0  0  0
  -87.6452   32.9620   -3.4737 C   0  0  0  0  0  0  0  0  0  0  0  0
  -88.0029   33.5636   -4.6708 O   0  0  0  0  0  0  0  0  0  0  0  0
  -87.6474   31.6194   -3.2234 C   0  0  0  0  0  0  0  0  0  0  0  0
  -87.2607   31.1341   -1.9715 C   0  0  0  0  0  0  0  0  0  0  0  0
  -88.2895   33.1187   -5.4922 H   0  0  0  0  0  0  0  0  0  0  0  0
  -88.0286   30.6915   -4.2107 N   0  0  0  0  0  0  0  0  0  0  0  0
  -88.4409   30.9978   -5.4622 O   0  0  0  0  0  0  0  0  0  0  0  0
  -87.9934   29.4496   -3.9347 O   0  0  0  0  0  0  0  0  0  0  0  0
 17 18  1  0  0  0
 18 14  1  0  0  0
 14 15  2  0  0  0
 14  1  1  0  0  0
  1  2  2  0  0  0
  2  3  1  0  0  0
  3  4  2  0  0  0
  4  5  1  0  0  0
  5  6  2  0  0  0
  6  7  1  0  0  0
  7  8  2  0  0  0
  8  9  1  0  0  0
  9 10  2  0  0  0
 10 19  1  0  0  0
 19 21  1  0  0  0
 21 22  2  0  0  0
 22 23  1  0  0  0
 23 24  2  0  0  0
 24 25  1  0  0  0
 24 26  1  0  0  0
 26 27  2  0  0  0
 26 29  1  0  0  0
 29 30  1  0  0  0
 29 31  2  0  0  0
 10 11  1  0  0  0
 11 12  2  0  0  0
 12 13  1  0  0  0
 13  1  1  0  0  0
 12  3  1  0  0  0
 11  6  1  0  0  0
 27 21  1  0  0  0
 15 16  1  0  0  0
 19 20  1  0  0  0
 25 28  1  0  0  0
M  CHG 1  29   1
M  CHG 1  30  -1
M  END
> <minimizedAffinity>
-9.82141

> <CNNscore>
0.4863209128

> <CNNaffinity>
6.9853148460

> <CNN_VS>
3.3971047401

> <CNNaffinity_variance>
0.0459519401

$$$$
[H]N=C(OC([H])([H])[H])c1nc2c([H])c([H])c3nc([H])nc(N([H])c4c([H])c([H])c(O[H])c([N+](=O)[O-])c4[H])c3c2s1


 31 34  0  0  0  0  0  0  0  0999 V2000
  -87.1427   33.4068   -1.6893 C   0  0  0  0  0  0  0  0  0  0  0  0
  -85.8578   33.6537   -1.5777 N   0  0  0  0  0  0  0  0  0  0  0  0
  -85.1044   32.8690   -0.8547 C   0  0  0  0  0  0  0  0  0  0  0  0
  -83.7176   33.0243   -0.6479 C   0  0  0  0  0  0  0  0  0  0  0  0
  -83.0526   32.1330    0.1380 C   0  0  0  0  0  0  0  0  0  0  0  0
  -83.6457   31.0496    0.7723 C   0  0  0  0  0  0  0  0  0  0  0  0
  -82.9728   30.2046    1.5359 N   0  0  0  0  0  0  0  0  0  0  0  0
  -83.6317   29.1894    2.1153 C   0  0  0  0  0  0  0  0  0  0  0  0
  -84.9339   29.0506    1.9146 N   0  0  0  0  0  0  0  0  0  0  0  0
  -85.7046   29.8766    1.1416 C   0  0  0  0  0  0  0  0  0  0  0  0
  -84.9980   30.9053    0.5649 C   0  0  0  0  0  0  0  0  0  0  0  0
  -85.7054   31.8031   -0.2347 C   0  0  0  0  0  0  0  0  0  0  0  0
  -87.3220   32.0123   -0.7425 S   0  0  0  0  0  0  0  0  0  0  0  0
  -88.1667   34.1594   -2.4501 C   0  0  0  0  0  0  0  0  0  0  0  0
  -89.3820   33.7647   -2.4119 N   0  0  0  0  0  0  0  0  0  0  0  0
  -89.7134   32.9512   -1.8857 H   0  0  0  0  0  0  0  0  0  0  0  0
  -87.4150   35.1919   -4.5458 C   0  0  0  0  0  0  0  0  0  0  0  0
  -87.8234   35.2684   -3.1900 O   0  0  0  0  0  0  0  0  0  0  0  0
  -87.0635   29.6048    0.9452 N   0  0  0  0  0  0  0  0  0  0  0  0
  -87.8056   30.2788    0.9846 H   0  0  0  0  0  0  0  0  0  0  0  0
  -87.4640   28.2493    0.6371 C   0  0  0  0  0  0  0  0  0  0  0  0
  -87.2201   27.6126   -0.5414 C   0  0  0  0  0  0  0  0  0  0  0  0
  -87.6645   26.3309   -0.7663 C   0  0  0  0  0  0  0  0  0  0  0  0
  -88.3896   25.6014    0.1943 C   0  0  0  0  0  0  0  0  0  0  0  0
  -88.7869   24.3142   -0.1348 O   0  0  0  0  0  0  0  0  0  0  0  0
  -88.6369   26.2345    1.3790 C   0  0  0  0  0  0  0  0  0  0  0  0
  -88.1790   27.5372    1.5921 C   0  0  0  0  0  0  0  0  0  0  0  0
  -89.2795   23.6864    0.4291 H   0  0  0  0  0  0  0  0  0  0  0  0
  -89.3472   25.5985    2.4144 N   0  0  0  0  0  0  0  0  0  0  0  0
  -90.3120   24.6646    2.2495 O   0  0  0  0  0  0  0  0  0  0  0  0
  -89.0831   25.9053    3.6209 O   0  0  0  0  0  0  0  0  0  0  0  0
 17 18  1  0  0  0
 18 14  1  0  0  0
 14 15  2  0  0  0
 14  1  1  0  0  0
  1  2  2  0  0  0
  2  3  1  0  0  0
  3  4  2  0  0  0
  4  5  1  0  0  0
  5  6  2  0  0  0
  6  7  1  0  0  0
  7  8  2  0  0  0
  8  9  1  0  0  0
  9 10  2  0  0  0
 10 19  1  0  0  0
 19 21  1  0  0  0
 21 22  2  0  0  0
 22 23  1  0  0  0
 23 24  2  0  0  0
 24 25  1  0  0  0
 24 26  1  0  0  0
 26 27  2  0  0  0
 26 29  1  0  0  0
 29 30  1  0  0  0
 29 31  2  0  0  0
 10 11  1  0  0  0
 11 12  2  0  0  0
 12 13  1  0  0  0
 13  1  1  0  0  0
 12  3  1  0  0  0
 11  6  1  0  0  0
 27 21  1  0  0  0
 15 16  1  0  0  0
 19 20  1  0  0  0
 25 28  1  0  0  0
M  CHG 1  29   1
M  CHG 1  30  -1
M  END
> <minimizedAffinity>
-8.92740

> <CNNscore>
0.4622953832

> <CNNaffinity>
6.9458551407

> <CNN_VS>
3.2110366821

> <CNNaffinity_variance>
0.1244278774

$$$$
[H]N=C(OC([H])([H])[H])c1nc2c([H])c([H])c3nc([H])nc(N([H])c4c([H])c([H])c(O[H])c([N+](=O)[O-])c4[H])c3c2s1


 31 34  0  0  0  0  0  0  0  0999 V2000
  -88.1570   31.8527   -1.0551 C   0  0  0  0  0  0  0  0  0  0  0  0
  -86.9801   32.2591   -0.6377 N   0  0  0  0  0  0  0  0  0  0  0  0
  -86.2064   31.4415    0.0249 C   0  0  0  0  0  0  0  0  0  0  0  0
  -84.9274   31.7518    0.5328 C   0  0  0  0  0  0  0  0  0  0  0  0
  -84.2276   30.8026    1.2137 C   0  0  0  0  0  0  0  0  0  0  0  0
  -84.6834   29.5138    1.4567 C   0  0  0  0  0  0  0  0  0  0  0  0
  -83.9818   28.6158    2.1283 N   0  0  0  0  0  0  0  0  0  0  0  0
  -84.5065   27.3960    2.3213 C   0  0  0  0  0  0  0  0  0  0  0  0
  -85.7078   27.1129    1.8397 N   0  0  0  0  0  0  0  0  0  0  0  0
  -86.4989   27.9801    1.1353 C   0  0  0  0  0  0  0  0  0  0  0  0
  -85.9312   29.2195    0.9575 C   0  0  0  0  0  0  0  0  0  0  0  0
  -86.6712   30.1718    0.2566 C   0  0  0  0  0  0  0  0  0  0  0  0
  -88.1987   30.2510   -0.5019 S   0  0  0  0  0  0  0  0  0  0  0  0
  -89.1804   32.6073   -1.8148 C   0  0  0  0  0  0  0  0  0  0  0  0
  -90.3133   32.0601   -2.0411 N   0  0  0  0  0  0  0  0  0  0  0  0
  -90.5774   31.1201   -1.7327 H   0  0  0  0  0  0  0  0  0  0  0  0
  -89.4521   34.3789   -3.4912 C   0  0  0  0  0  0  0  0  0  0  0  0
  -88.9235   33.8795   -2.2739 O   0  0  0  0  0  0  0  0  0  0  0  0
  -87.7293   27.5604    0.6166 N   0  0  0  0  0  0  0  0  0  0  0  0
  -88.0535   27.7196   -0.3193 H   0  0  0  0  0  0  0  0  0  0  0  0
  -88.6254   26.8127    1.4714 C   0  0  0  0  0  0  0  0  0  0  0  0
  -89.2625   25.6626    1.1176 C   0  0  0  0  0  0  0  0  0  0  0  0
  -90.1258   25.0296    1.9807 C   0  0  0  0  0  0  0  0  0  0  0  0
  -90.4032   25.5210    3.2700 C   0  0  0  0  0  0  0  0  0  0  0  0
  -91.2872   24.8020    4.0603 O   0  0  0  0  0  0  0  0  0  0  0  0
  -89.7666   26.6741    3.6310 C   0  0  0  0  0  0  0  0  0  0  0  0
  -88.8926   27.3057    2.7425 C   0  0  0  0  0  0  0  0  0  0  0  0
  -91.5639   25.0089    4.9744 H   0  0  0  0  0  0  0  0  0  0  0  0
  -89.9635   27.2528    4.8989 N   0  0  0  0  0  0  0  0  0  0  0  0
  -89.9432   26.5908    6.0785 O   0  0  0  0  0  0  0  0  0  0  0  0
  -90.1814   28.5042    4.9773 O   0  0  0  0  0  0  0  0  0  0  0  0
 17 18  1  0  0  0
 18 14  1  0  0  0
 14 15  2  0  0  0
 14  1  1  0  0  0
  1  2  2  0  0  0
  2  3  1  0  0  0
  3  4  2  0  0  0
  4  5  1  0  0  0
  5  6  2  0  0  0
  6  7  1  0  0  0
  7  8  2  0  0  0
  8  9  1  0  0  0
  9 10  2  0  0  0
 10 19  1  0  0  0
 19 21  1  0  0  0
 21 22  2  0  0  0
 22 23  1  0  0  0
 23 24  2  0  0  0
 24 25  1  0  0  0
 24 26  1  0  0  0
 26 27  2  0  0  0
 26 29  1  0  0  0
 29 30  1  0  0  0
 29 31  2  0  0  0
 10 11  1  0  0  0
 11 12  2  0  0  0
 12 13  1  0  0  0
 13  1  1  0  0  0
 12  3  1  0  0  0
 11  6  1  0  0  0
 27 21  1  0  0  0
 15 16  1  0  0  0
 19 20  1  0  0  0
 25 28  1  0  0  0
M  CHG 1  29   1
M  CHG 1  30  -1
M  END
> <minimizedAffinity>
-9.03443

> <CNNscore>
0.3979753554

> <CNNaffinity>
6.6716308594

> <CNN_VS>
2.6551446915

> <CNNaffinity_variance>
0.1313633621

$$$$
[H]N=C(OC([H])([H])[H])c1nc2c([H])c([H])c3nc([H])nc(N([H])c4c([H])c([H])c(O[H])c([N+](=O)[O-])c4[H])c3c2s1


 31 34  0  0  0  0  0  0  0  0999 V2000
  -87.0165   27.3795    1.8831 C   0  0  0  0  0  0  0  0  0  0  0  0
  -85.7434   27.3577    2.2039 N   0  0  0  0  0  0  0  0  0  0  0  0
  -84.9733   28.3620    1.8807 C   0  0  0  0  0  0  0  0  0  0  0  0
  -83.5938   28.4614    2.1586 C   0  0  0  0  0  0  0  0  0  0  0  0
  -82.9067   29.5665    1.7575 C   0  0  0  0  0  0  0  0  0  0  0  0
  -83.4697   30.6374    1.0764 C   0  0  0  0  0  0  0  0  0  0  0  0
  -82.7732   31.6949    0.6938 N   0  0  0  0  0  0  0  0  0  0  0  0
  -83.4009   32.6798    0.0333 C   0  0  0  0  0  0  0  0  0  0  0  0
  -84.6970   32.5786   -0.2223 N   0  0  0  0  0  0  0  0  0  0  0  0
  -85.4908   31.5228    0.1368 C   0  0  0  0  0  0  0  0  0  0  0  0
  -84.8154   30.5326    0.8100 C   0  0  0  0  0  0  0  0  0  0  0  0
  -85.5448   29.4122    1.2083 C   0  0  0  0  0  0  0  0  0  0  0  0
  -87.1597   28.8708    1.0903 S   0  0  0  0  0  0  0  0  0  0  0  0
  -88.0554   26.3580    2.1499 C   0  0  0  0  0  0  0  0  0  0  0  0
  -88.2915   25.4676    1.2635 N   0  0  0  0  0  0  0  0  0  0  0  0
  -87.8095   25.4012    0.3626 H   0  0  0  0  0  0  0  0  0  0  0  0
  -89.3773   25.1984    3.8619 C   0  0  0  0  0  0  0  0  0  0  0  0
  -88.7610   26.3603    3.3320 O   0  0  0  0  0  0  0  0  0  0  0  0
  -86.8651   31.5428   -0.1283 N   0  0  0  0  0  0  0  0  0  0  0  0
  -87.5912   31.6301    0.5584 H   0  0  0  0  0  0  0  0  0  0  0  0
  -87.3095   31.4522   -1.5020 C   0  0  0  0  0  0  0  0  0  0  0  0
  -86.9260   32.2917   -2.5029 C   0  0  0  0  0  0  0  0  0  0  0  0
  -87.4217   32.1561   -3.7783 C   0  0  0  0  0  0  0  0  0  0  0  0
  -88.3446   31.1533   -4.1294 C   0  0  0  0  0  0  0  0  0  0  0  0
  -88.7775   31.1042   -5.4459 O   0  0  0  0  0  0  0  0  0  0  0  0
  -88.7328   30.3075   -3.1297 C   0  0  0  0  0  0  0  0  0  0  0  0
  -88.2204   30.4586   -1.8387 C   0  0  0  0  0  0  0  0  0  0  0  0
  -89.4000   30.4616   -5.8388 H   0  0  0  0  0  0  0  0  0  0  0  0
  -89.6465   29.2636   -3.3677 N   0  0  0  0  0  0  0  0  0  0  0  0
  -90.8554   29.3949   -3.9604 O   0  0  0  0  0  0  0  0  0  0  0  0
  -89.3393   28.0825   -3.0069 O   0  0  0  0  0  0  0  0  0  0  0  0
 17 18  1  0  0  0
 18 14  1  0  0  0
 14 15  2  0  0  0
 14  1  1  0  0  0
  1  2  2  0  0  0
  2  3  1  0  0  0
  3  4  2  0  0  0
  4  5  1  0  0  0
  5  6  2  0  0  0
  6  7  1  0  0  0
  7  8  2  0  0  0
  8  9  1  0  0  0
  9 10  2  0  0  0
 10 19  1  0  0  0
 19 21  1  0  0  0
 21 22  2  0  0  0
 22 23  1  0  0  0
 23 24  2  0  0  0
 24 25  1  0  0  0
 24 26  1  0  0  0
 26 27  2  0  0  0
 26 29  1  0  0  0
 29 30  1  0  0  0
 29 31  2  0  0  0
 10 11  1  0  0  0
 11 12  2  0  0  0
 12 13  1  0  0  0
 13  1  1  0  0  0
 12  3  1  0  0  0
 11  6  1  0  0  0
 27 21  1  0  0  0
 15 16  1  0  0  0
 19 20  1  0  0  0
 25 28  1  0  0  0
M  CHG 1  29   1
M  CHG 1  30  -1
M  END
> <minimizedAffinity>
-9.28117

> <CNNscore>
0.3428114355

> <CNNaffinity>
6.8375091553

> <CNN_VS>
2.3439762592

> <CNNaffinity_variance>
0.0814616382

$$$$
[H]N=C(OC([H])([H])[H])c1nc2c([H])c([H])c3nc([H])nc(N([H])c4c([H])c([H])c(O[H])c([N+](=O)[O-])c4[H])c3c2s1


 31 34  0  0  0  0  0  0  0  0999 V2000
  -87.2981   26.9790    1.9583 C   0  0  0  0  0  0  0  0  0  0  0  0
  -86.0398   26.9270    2.3303 N   0  0  0  0  0  0  0  0  0  0  0  0
  -85.2333   27.9120    2.0381 C   0  0  0  0  0  0  0  0  0  0  0  0
  -83.8641   27.9786    2.3715 C   0  0  0  0  0  0  0  0  0  0  0  0
  -83.1349   29.0663    1.9980 C   0  0  0  0  0  0  0  0  0  0  0  0
  -83.6440   30.1495    1.2943 C   0  0  0  0  0  0  0  0  0  0  0  0
  -82.9072   31.1893    0.9397 N   0  0  0  0  0  0  0  0  0  0  0  0
  -83.4838   32.1882    0.2539 C   0  0  0  0  0  0  0  0  0  0  0  0
  -84.7705   32.1178   -0.0539 N   0  0  0  0  0  0  0  0  0  0  0  0
  -85.6035   31.0819    0.2733 C   0  0  0  0  0  0  0  0  0  0  0  0
  -84.9799   30.0767    0.9737 C   0  0  0  0  0  0  0  0  0  0  0  0
  -85.7516   28.9748    1.3426 C   0  0  0  0  0  0  0  0  0  0  0  0
  -87.3730   28.4723    1.1597 S   0  0  0  0  0  0  0  0  0  0  0  0
  -88.3712   25.9832    2.1832 C   0  0  0  0  0  0  0  0  0  0  0  0
  -88.8230   25.3227    1.1863 N   0  0  0  0  0  0  0  0  0  0  0  0
  -88.4957   25.4282    0.2218 H   0  0  0  0  0  0  0  0  0  0  0  0
  -89.8373   26.6229    4.0444 C   0  0  0  0  0  0  0  0  0  0  0  0
  -88.8803   25.7662    3.4437 O   0  0  0  0  0  0  0  0  0  0  0  0
  -86.9650   31.1347   -0.0472 N   0  0  0  0  0  0  0  0  0  0  0  0
  -87.7163   31.2348    0.6100 H   0  0  0  0  0  0  0  0  0  0  0  0
  -87.3551   31.0615   -1.4383 C   0  0  0  0  0  0  0  0  0  0  0  0
  -87.6419   29.9116   -2.1086 C   0  0  0  0  0  0  0  0  0  0  0  0
  -87.9742   29.9264   -3.4428 C   0  0  0  0  0  0  0  0  0  0  0  0
  -88.0405   31.1150   -4.1936 C   0  0  0  0  0  0  0  0  0  0  0  0
  -88.3892   31.0164   -5.5322 O   0  0  0  0  0  0  0  0  0  0  0  0
  -87.7544   32.2720   -3.5266 C   0  0  0  0  0  0  0  0  0  0  0  0
  -87.4181   32.2404   -2.1708 C   0  0  0  0  0  0  0  0  0  0  0  0
  -88.4895   31.7488   -6.1712 H   0  0  0  0  0  0  0  0  0  0  0  0
  -87.7959   33.5203   -4.1755 N   0  0  0  0  0  0  0  0  0  0  0  0
  -88.6314   33.8556   -5.1853 O   0  0  0  0  0  0  0  0  0  0  0  0
  -86.9918   34.4341   -3.8042 O   0  0  0  0  0  0  0  0  0  0  0  0
 17 18  1  0  0  0
 18 14  1  0  0  0
 14 15  2  0  0  0
 14  1  1  0  0  0
  1  2  2  0  0  0
  2  3  1  0  0  0
  3  4  2  0  0  0
  4  5  1  0  0  0
  5  6  2  0  0  0
  6  7  1  0  0  0
  7  8  2  0  0  0
  8  9  1  0  0  0
  9 10  2  0  0  0
 10 19  1  0  0  0
 19 21  1  0  0  0
 21 22  2  0  0  0
 22 23  1  0  0  0
 23 24  2  0  0  0
 24 25  1  0  0  0
 24 26  1  0  0  0
 26 27  2  0  0  0
 26 29  1  0  0  0
 29 30  1  0  0  0
 29 31  2  0  0  0
 10 11  1  0  0  0
 11 12  2  0  0  0
 12 13  1  0  0  0
 13  1  1  0  0  0
 12  3  1  0  0  0
 11  6  1  0  0  0
 27 21  1  0  0  0
 15 16  1  0  0  0
 19 20  1  0  0  0
 25 28  1  0  0  0
M  CHG 1  29   1
M  CHG 1  30  -1
M  END
> <minimizedAffinity>
-9.71993

> <CNNscore>
0.2595709264

> <CNNaffinity>
6.7145528793

> <CNN_VS>
1.7429027557

> <CNNaffinity_variance>
0.1623495370

$$$$
[H]/C(=C(/[H])c1c([H])c([H])c([H])c([H])c1[H])c1nc([H])c([H])c(-c2c([H])n([H])c3c([H])nc([H])c([H])c23)n1


 24 27  0  0  0  0  0  0  0  0999 V2000
  -85.3910   33.3675   -1.0655 C   0  0  0  0  0  0  0  0  0  0  0  0
  -84.0932   33.7284   -0.8981 N   0  0  0  0  0  0  0  0  0  0  0  0
  -83.1986   32.9581   -0.2591 C   0  0  0  0  0  0  0  0  0  0  0  0
  -83.6515   31.7500    0.2384 C   0  0  0  0  0  0  0  0  0  0  0  0
  -84.9708   31.3479    0.0864 C   0  0  0  0  0  0  0  0  0  0  0  0
  -85.7796   32.1826   -0.5623 N   0  0  0  0  0  0  0  0  0  0  0  0
  -85.3779   30.0599    0.6376 C   0  0  0  0  0  0  0  0  0  0  0  0
  -86.6365   29.4690    0.5263 C   0  0  0  0  0  0  0  0  0  0  0  0
  -86.6395   28.2983    1.1520 N   0  0  0  0  0  0  0  0  0  0  0  0
  -85.4273   28.0836    1.6787 C   0  0  0  0  0  0  0  0  0  0  0  0
  -84.8775   27.0572    2.4149 C   0  0  0  0  0  0  0  0  0  0  0  0
  -83.6059   27.0746    2.8376 N   0  0  0  0  0  0  0  0  0  0  0  0
  -82.7941   28.1194    2.5542 C   0  0  0  0  0  0  0  0  0  0  0  0
  -83.3333   29.1603    1.8138 C   0  0  0  0  0  0  0  0  0  0  0  0
  -84.6292   29.1751    1.3656 C   0  0  0  0  0  0  0  0  0  0  0  0
  -87.4752   27.6574    1.2111 H   0  0  0  0  0  0  0  0  0  0  0  0
  -87.4174   33.7491   -2.2981 C   0  0  0  0  0  0  0  0  0  0  0  0
  -86.3209   34.2367   -1.7649 C   0  0  0  0  0  0  0  0  0  0  0  0
  -88.4153   34.4916   -3.0119 C   0  0  0  0  0  0  0  0  0  0  0  0
  -89.5218   33.8629   -3.5311 C   0  0  0  0  0  0  0  0  0  0  0  0
  -90.4831   34.5974   -4.2225 C   0  0  0  0  0  0  0  0  0  0  0  0
  -90.3474   35.9547   -4.3988 C   0  0  0  0  0  0  0  0  0  0  0  0
  -89.2367   36.5871   -3.8780 C   0  0  0  0  0  0  0  0  0  0  0  0
  -88.3025   35.8522   -3.2021 C   0  0  0  0  0  0  0  0  0  0  0  0
 17 18  2  0  0  0
 18  1  1  0  0  0
  1  2  2  0  0  0
  2  3  1  0  0  0
  3  4  2  0  0  0
  4  5  1  0  0  0
  5  6  2  0  0  0
  5  7  1  0  0  0
  7  8  2  0  0  0
  8  9  1  0  0  0
  9 10  1  0  0  0
 10 11  2  0  0  0
 11 12  1  0  0  0
 12 13  2  0  0  0
 13 14  1  0  0  0
 14 15  2  0  0  0
 17 19  1  0  0  0
 19 20  2  0  0  0
 20 21  1  0  0  0
 21 22  2  0  0  0
 22 23  1  0  0  0
 23 24  2  0  0  0
  6  1  1  0  0  0
 15  7  1  0  0  0
 24 19  1  0  0  0
 15 10  1  0  0  0
  9 16  1  0  0  0
M  END
> <minimizedAffinity>
-8.52081

> <CNNscore>
0.9346200228

> <CNNaffinity>
6.8684182167

> <CNN_VS>
6.4193611145

> <CNNaffinity_variance>
0.0792267248

$$$$
[H]/C(=C(/[H])c1c([H])c([H])c([H])c([H])c1[H])c1nc([H])c([H])c(-c2c([H])n([H])c3c([H])nc([H])c([H])c23)n1


 24 27  0  0  0  0  0  0  0  0999 V2000
  -85.0880   32.9190   -0.5139 C   0  0  0  0  0  0  0  0  0  0  0  0
  -83.8082   33.3405   -0.6785 N   0  0  0  0  0  0  0  0  0  0  0  0
  -82.7475   32.6314   -0.2615 C   0  0  0  0  0  0  0  0  0  0  0  0
  -83.0044   31.4228    0.3593 C   0  0  0  0  0  0  0  0  0  0  0  0
  -84.2992   30.9597    0.5450 C   0  0  0  0  0  0  0  0  0  0  0  0
  -85.2825   31.7365    0.0960 N   0  0  0  0  0  0  0  0  0  0  0  0
  -84.4948   29.6751    1.2083 C   0  0  0  0  0  0  0  0  0  0  0  0
  -83.6797   29.1155    2.1921 C   0  0  0  0  0  0  0  0  0  0  0  0
  -84.1672   27.9376    2.5623 N   0  0  0  0  0  0  0  0  0  0  0  0
  -85.2804   27.6880    1.8612 C   0  0  0  0  0  0  0  0  0  0  0  0
  -86.1743   26.6401    1.8354 C   0  0  0  0  0  0  0  0  0  0  0  0
  -87.2404   26.6223    1.0237 N   0  0  0  0  0  0  0  0  0  0  0  0
  -87.4883   27.6510    0.1803 C   0  0  0  0  0  0  0  0  0  0  0  0
  -86.5974   28.7133    0.1948 C   0  0  0  0  0  0  0  0  0  0  0  0
  -85.4972   28.7641    1.0118 C   0  0  0  0  0  0  0  0  0  0  0  0
  -83.7301   27.3159    3.2937 H   0  0  0  0  0  0  0  0  0  0  0  0
  -86.6243   33.6204   -2.2225 C   0  0  0  0  0  0  0  0  0  0  0  0
  -86.2026   33.7234   -0.9831 C   0  0  0  0  0  0  0  0  0  0  0  0
  -87.7080   34.3513   -2.8122 C   0  0  0  0  0  0  0  0  0  0  0  0
  -88.9130   33.7401   -3.0644 C   0  0  0  0  0  0  0  0  0  0  0  0
  -89.9571   34.4630   -3.6380 C   0  0  0  0  0  0  0  0  0  0  0  0
  -89.8065   35.7914   -3.9612 C   0  0  0  0  0  0  0  0  0  0  0  0
  -88.5970   36.4062   -3.7085 C   0  0  0  0  0  0  0  0  0  0  0  0
  -87.5824   35.6830   -3.1452 C   0  0  0  0  0  0  0  0  0  0  0  0
 17 18  2  0  0  0
 18  1  1  0  0  0
  1  2  2  0  0  0
  2  3  1  0  0  0
  3  4  2  0  0  0
  4  5  1  0  0  0
  5  6  2  0  0  0
  5  7  1  0  0  0
  7  8  2  0  0  0
  8  9  1  0  0  0
  9 10  1  0  0  0
 10 11  2  0  0  0
 11 12  1  0  0  0
 12 13  2  0  0  0
 13 14  1  0  0  0
 14 15  2  0  0  0
 17 19  1  0  0  0
 19 20  2  0  0  0
 20 21  1  0  0  0
 21 22  2  0  0  0
 22 23  1  0  0  0
 23 24  2  0  0  0
  6  1  1  0  0  0
 15  7  1  0  0  0
 24 19  1  0  0  0
 15 10  1  0  0  0
  9 16  1  0  0  0
M  END
> <minimizedAffinity>
-8.84480

> <CNNscore>
0.8242981434

> <CNNaffinity>
6.6249456406

> <CNN_VS>
5.4609303474

> <CNNaffinity_variance>
0.0694196671

$$$$
[H]/C(=C(/[H])c1c([H])c([H])c([H])c([H])c1[H])c1nc([H])c([H])c(-c2c([H])n([H])c3c([H])nc([H])c([H])c23)n1


 24 27  0  0  0  0  0  0  0  0999 V2000
  -85.1113   27.6092    1.9854 C   0  0  0  0  0  0  0  0  0  0  0  0
  -84.0360   27.1120    2.6481 N   0  0  0  0  0  0  0  0  0  0  0  0
  -82.8640   27.7615    2.7276 C   0  0  0  0  0  0  0  0  0  0  0  0
  -82.7816   28.9887    2.0958 C   0  0  0  0  0  0  0  0  0  0  0  0
  -83.8597   29.5286    1.4090 C   0  0  0  0  0  0  0  0  0  0  0  0
  -84.9779   28.8067    1.3883 N   0  0  0  0  0  0  0  0  0  0  0  0
  -83.7002   30.8285    0.7662 C   0  0  0  0  0  0  0  0  0  0  0  0
  -82.5178   31.5597    0.6526 C   0  0  0  0  0  0  0  0  0  0  0  0
  -82.7527   32.6951    0.0063 N   0  0  0  0  0  0  0  0  0  0  0  0
  -84.0508   32.7507   -0.3173 C   0  0  0  0  0  0  0  0  0  0  0  0
  -84.8285   33.6767   -0.9773 C   0  0  0  0  0  0  0  0  0  0  0  0
  -86.1409   33.4999   -1.1828 N   0  0  0  0  0  0  0  0  0  0  0  0
  -86.7687   32.3849   -0.7427 C   0  0  0  0  0  0  0  0  0  0  0  0
  -85.9990   31.4435   -0.0765 C   0  0  0  0  0  0  0  0  0  0  0  0
  -84.6550   31.5922    0.1508 C   0  0  0  0  0  0  0  0  0  0  0  0
  -82.0181   33.4215   -0.2065 H   0  0  0  0  0  0  0  0  0  0  0  0
  -87.0630   26.8316    0.8204 C   0  0  0  0  0  0  0  0  0  0  0  0
  -86.3585   26.8673    1.9281 C   0  0  0  0  0  0  0  0  0  0  0  0
  -88.3050   26.1411    0.6281 C   0  0  0  0  0  0  0  0  0  0  0  0
  -88.6903   25.7229   -0.6232 C   0  0  0  0  0  0  0  0  0  0  0  0
  -89.9001   25.0530   -0.7948 C   0  0  0  0  0  0  0  0  0  0  0  0
  -90.7273   24.7978    0.2739 C   0  0  0  0  0  0  0  0  0  0  0  0
  -90.3416   25.2172    1.5309 C   0  0  0  0  0  0  0  0  0  0  0  0
  -89.1516   25.8732    1.6826 C   0  0  0  0  0  0  0  0  0  0  0  0
 17 18  2  0  0  0
 18  1  1  0  0  0
  1  2  2  0  0  0
  2  3  1  0  0  0
  3  4  2  0  0  0
  4  5  1  0  0  0
  5  6  2  0  0  0
  5  7  1  0  0  0
  7  8  2  0  0  0
  8  9  1  0  0  0
  9 10  1  0  0  0
 10 11  2  0  0  0
 11 12  1  0  0  0
 12 13  2  0  0  0
 13 14  1  0  0  0
 14 15  2  0  0  0
 17 19  1  0  0  0
 19 20  2  0  0  0
 20 21  1  0  0  0
 21 22  2  0  0  0
 22 23  1  0  0  0
 23 24  2  0  0  0
  6  1  1  0  0  0
 15  7  1  0  0  0
 24 19  1  0  0  0
 15 10  1  0  0  0
  9 16  1  0  0  0
M  END
> <minimizedAffinity>
-9.30817

> <CNNscore>
0.7643545866

> <CNNaffinity>
6.9564414024

> <CNN_VS>
5.3171877861

> <CNNaffinity_variance>
0.1818473339

$$$$
[H]/C(=C(/[H])c1c([H])c([H])c([H])c([H])c1[H])c1nc([H])c([H])c(-c2c([H])n([H])c3c([H])nc([H])c([H])c23)n1


 24 27  0  0  0  0  0  0  0  0999 V2000
  -88.7793   32.1730   -1.9294 C   0  0  0  0  0  0  0  0  0  0  0  0
  -89.9222   31.5422   -1.5572 N   0  0  0  0  0  0  0  0  0  0  0  0
  -89.9436   30.5352   -0.6699 C   0  0  0  0  0  0  0  0  0  0  0  0
  -88.7310   30.1477   -0.1299 C   0  0  0  0  0  0  0  0  0  0  0  0
  -87.5427   30.7691   -0.4864 C   0  0  0  0  0  0  0  0  0  0  0  0
  -87.6273   31.7572   -1.3743 N   0  0  0  0  0  0  0  0  0  0  0  0
  -86.3007   30.3073    0.1241 C   0  0  0  0  0  0  0  0  0  0  0  0
  -86.0869   29.0756    0.7426 C   0  0  0  0  0  0  0  0  0  0  0  0
  -84.8361   29.0050    1.1817 N   0  0  0  0  0  0  0  0  0  0  0  0
  -84.2041   30.1461    0.8791 C   0  0  0  0  0  0  0  0  0  0  0  0
  -82.9241   30.6100    1.0895 C   0  0  0  0  0  0  0  0  0  0  0  0
  -82.5205   31.8209    0.6815 N   0  0  0  0  0  0  0  0  0  0  0  0
  -83.3680   32.6538    0.0342 C   0  0  0  0  0  0  0  0  0  0  0  0
  -84.6601   32.2009   -0.1850 C   0  0  0  0  0  0  0  0  0  0  0  0
  -85.1061   30.9687    0.2187 C   0  0  0  0  0  0  0  0  0  0  0  0
  -84.4283   28.1728    1.6853 H   0  0  0  0  0  0  0  0  0  0  0  0
  -87.9482   34.2470   -2.8121 C   0  0  0  0  0  0  0  0  0  0  0  0
  -88.8085   33.2583   -2.8942 C   0  0  0  0  0  0  0  0  0  0  0  0
  -87.8671   35.3749   -3.6940 C   0  0  0  0  0  0  0  0  0  0  0  0
  -87.5992   35.2038   -5.0312 C   0  0  0  0  0  0  0  0  0  0  0  0
  -87.5233   36.3093   -5.8761 C   0  0  0  0  0  0  0  0  0  0  0  0
  -87.7130   37.5838   -5.3953 C   0  0  0  0  0  0  0  0  0  0  0  0
  -87.9821   37.7570   -4.0528 C   0  0  0  0  0  0  0  0  0  0  0  0
  -88.0533   36.6620   -3.2369 C   0  0  0  0  0  0  0  0  0  0  0  0
 17 18  2  0  0  0
 18  1  1  0  0  0
  1  2  2  0  0  0
  2  3  1  0  0  0
  3  4  2  0  0  0
  4  5  1  0  0  0
  5  6  2  0  0  0
  5  7  1  0  0  0
  7  8  2  0  0  0
  8  9  1  0  0  0
  9 10  1  0  0  0
 10 11  2  0  0  0
 11 12  1  0  0  0
 12 13  2  0  0  0
 13 14  1  0  0  0
 14 15  2  0  0  0
 17 19  1  0  0  0
 19 20  2  0  0  0
 20 21  1  0  0  0
 21 22  2  0  0  0
 22 23  1  0  0  0
 23 24  2  0  0  0
  6  1  1  0  0  0
 15  7  1  0  0  0
 24 19  1  0  0  0
 15 10  1  0  0  0
  9 16  1  0  0  0
M  END
> <minimizedAffinity>
-7.56901

> <CNNscore>
0.4922808111

> <CNNaffinity>
6.4036035538

> <CNN_VS>
3.1523711681

> <CNNaffinity_variance>
0.2111239880

$$$$
[H]/C(=C(/[H])c1c([H])c([H])c([H])c([H])c1[H])c1nc([H])c([H])c(-c2c([H])n([H])c3c([H])nc([H])c([H])c23)n1


 24 27  0  0  0  0  0  0  0  0999 V2000
  -86.9230   27.0812    1.3645 C   0  0  0  0  0  0  0  0  0  0  0  0
  -85.8071   26.7540    2.0649 N   0  0  0  0  0  0  0  0  0  0  0  0
  -84.7715   27.5937    2.2206 C   0  0  0  0  0  0  0  0  0  0  0  0
  -84.8778   28.8390    1.6290 C   0  0  0  0  0  0  0  0  0  0  0  0
  -86.0029   29.2085    0.9057 C   0  0  0  0  0  0  0  0  0  0  0  0
  -86.9755   28.3047    0.8093 N   0  0  0  0  0  0  0  0  0  0  0  0
  -86.0457   30.5391    0.3091 C   0  0  0  0  0  0  0  0  0  0  0  0
  -87.1810   31.2095   -0.1459 C   0  0  0  0  0  0  0  0  0  0  0  0
  -86.8379   32.3985   -0.6263 N   0  0  0  0  0  0  0  0  0  0  0  0
  -85.5124   32.5486   -0.5092 C   0  0  0  0  0  0  0  0  0  0  0  0
  -84.6364   33.5600   -0.8369 C   0  0  0  0  0  0  0  0  0  0  0  0
  -83.3179   33.4713   -0.6148 N   0  0  0  0  0  0  0  0  0  0  0  0
  -82.7818   32.3649   -0.0494 C   0  0  0  0  0  0  0  0  0  0  0  0
  -83.6511   31.3381    0.2861 C   0  0  0  0  0  0  0  0  0  0  0  0
  -85.0045   31.3956    0.0730 C   0  0  0  0  0  0  0  0  0  0  0  0
  -87.5182   33.0960   -1.0302 H   0  0  0  0  0  0  0  0  0  0  0  0
  -88.3703   25.6956    0.0392 C   0  0  0  0  0  0  0  0  0  0  0  0
  -88.0174   26.1367    1.2247 C   0  0  0  0  0  0  0  0  0  0  0  0
  -89.4268   24.7667   -0.2393 C   0  0  0  0  0  0  0  0  0  0  0  0
  -89.7006   24.3798   -1.5294 C   0  0  0  0  0  0  0  0  0  0  0  0
  -90.7304   23.4763   -1.7847 C   0  0  0  0  0  0  0  0  0  0  0  0
  -91.4882   22.9568   -0.7612 C   0  0  0  0  0  0  0  0  0  0  0  0
  -91.2142   23.3445    0.5347 C   0  0  0  0  0  0  0  0  0  0  0  0
  -90.2004   24.2318    0.7685 C   0  0  0  0  0  0  0  0  0  0  0  0
 17 18  2  0  0  0
 18  1  1  0  0  0
  1  2  2  0  0  0
  2  3  1  0  0  0
  3  4  2  0  0  0
  4  5  1  0  0  0
  5  6  2  0  0  0
  5  7  1  0  0  0
  7  8  2  0  0  0
  8  9  1  0  0  0
  9 10  1  0  0  0
 10 11  2  0  0  0
 11 12  1  0  0  0
 12 13  2  0  0  0
 13 14  1  0  0  0
 14 15  2  0  0  0
 17 19  1  0  0  0
 19 20  2  0  0  0
 20 21  1  0  0  0
 21 22  2  0  0  0
 22 23  1  0  0  0
 23 24  2  0  0  0
  6  1  1  0  0  0
 15  7  1  0  0  0
 24 19  1  0  0  0
 15 10  1  0  0  0
  9 16  1  0  0  0
M  END
> <minimizedAffinity>
-8.07806

> <CNNscore>
0.4148283005

> <CNNaffinity>
6.3501076698

> <CNN_VS>
2.6342043877

> <CNNaffinity_variance>
0.1812671125

$$$$
[H]/C(=C(/[H])c1c([H])c([H])c([H])c([H])c1[H])c1nc([H])c([H])c(-c2c([H])n([H])c3c([H])nc([H])c([H])c23)n1


 24 27  0  0  0  0  0  0  0  0999 V2000
  -88.3423   32.0416   -1.6118 C   0  0  0  0  0  0  0  0  0  0  0  0
  -88.9689   30.9484   -2.1167 N   0  0  0  0  0  0  0  0  0  0  0  0
  -88.5422   29.6953   -1.8937 C   0  0  0  0  0  0  0  0  0  0  0  0
  -87.4120   29.5463   -1.1110 C   0  0  0  0  0  0  0  0  0  0  0  0
  -86.7453   30.6403   -0.5781 C   0  0  0  0  0  0  0  0  0  0  0  0
  -87.2475   31.8411   -0.8572 N   0  0  0  0  0  0  0  0  0  0  0  0
  -85.5591   30.4074    0.2386 C   0  0  0  0  0  0  0  0  0  0  0  0
  -84.4939   31.2881    0.4268 C   0  0  0  0  0  0  0  0  0  0  0  0
  -83.5940   30.7382    1.2330 N   0  0  0  0  0  0  0  0  0  0  0  0
  -84.0185   29.5199    1.5917 C   0  0  0  0  0  0  0  0  0  0  0  0
  -83.4980   28.5287    2.3945 C   0  0  0  0  0  0  0  0  0  0  0  0
  -84.1293   27.3653    2.6037 N   0  0  0  0  0  0  0  0  0  0  0  0
  -85.3256   27.1105    2.0249 C   0  0  0  0  0  0  0  0  0  0  0  0
  -85.8624   28.0988    1.2139 C   0  0  0  0  0  0  0  0  0  0  0  0
  -85.2439   29.2997    0.9784 C   0  0  0  0  0  0  0  0  0  0  0  0
  -82.6961   31.2056    1.5293 H   0  0  0  0  0  0  0  0  0  0  0  0
  -88.4385   34.0404   -2.9410 C   0  0  0  0  0  0  0  0  0  0  0  0
  -88.8435   33.3777   -1.8821 C   0  0  0  0  0  0  0  0  0  0  0  0
  -88.8510   35.3593   -3.3241 C   0  0  0  0  0  0  0  0  0  0  0  0
  -87.9742   36.4159   -3.2618 C   0  0  0  0  0  0  0  0  0  0  0  0
  -88.3892   37.6920   -3.6373 C   0  0  0  0  0  0  0  0  0  0  0  0
  -89.6732   37.9202   -4.0744 C   0  0  0  0  0  0  0  0  0  0  0  0
  -90.5547   36.8602   -4.1373 C   0  0  0  0  0  0  0  0  0  0  0  0
  -90.1319   35.6142   -3.7654 C   0  0  0  0  0  0  0  0  0  0  0  0
 17 18  2  0  0  0
 18  1  1  0  0  0
  1  2  2  0  0  0
  2  3  1  0  0  0
  3  4  2  0  0  0
  4  5  1  0  0  0
  5  6  2  0  0  0
  5  7  1  0  0  0
  7  8  2  0  0  0
  8  9  1  0  0  0
  9 10  1  0  0  0
 10 11  2  0  0  0
 11 12  1  0  0  0
 12 13  2  0  0  0
 13 14  1  0  0  0
 14 15  2  0  0  0
 17 19  1  0  0  0
 19 20  2  0  0  0
 20 21  1  0  0  0
 21 22  2  0  0  0
 22 23  1  0  0  0
 23 24  2  0  0  0
  6  1  1  0  0  0
 15  7  1  0  0  0
 24 19  1  0  0  0
 15 10  1  0  0  0
  9 16  1  0  0  0
M  END
> <minimizedAffinity>
-8.23895

> <CNNscore>
0.3713634312

> <CNNaffinity>
6.3328609467

> <CNN_VS>
2.3517930508

> <CNNaffinity_variance>
0.4360904694

$$$$
[H]/C(=C(/[H])c1c([H])c([H])c([H])c([H])c1[H])c1nc([H])c([H])c(-c2c([H])n([H])c3c([H])nc([H])c([H])c23)n1


 24 27  0  0  0  0  0  0  0  0999 V2000
  -87.8109   33.1229   -1.9195 C   0  0  0  0  0  0  0  0  0  0  0  0
  -89.1481   32.9078   -1.8293 N   0  0  0  0  0  0  0  0  0  0  0  0
  -89.6784   31.8999   -1.1188 C   0  0  0  0  0  0  0  0  0  0  0  0
  -88.7961   31.0621   -0.4617 C   0  0  0  0  0  0  0  0  0  0  0  0
  -87.4231   31.2509   -0.5309 C   0  0  0  0  0  0  0  0  0  0  0  0
  -86.9968   32.2788   -1.2614 N   0  0  0  0  0  0  0  0  0  0  0  0
  -86.5524   30.3273    0.1882 C   0  0  0  0  0  0  0  0  0  0  0  0
  -86.8775   29.0392    0.6130 C   0  0  0  0  0  0  0  0  0  0  0  0
  -85.8379   28.4957    1.2342 N   0  0  0  0  0  0  0  0  0  0  0  0
  -84.8274   29.3742    1.2407 C   0  0  0  0  0  0  0  0  0  0  0  0
  -83.5424   29.3433    1.7364 C   0  0  0  0  0  0  0  0  0  0  0  0
  -82.6982   30.3769    1.6147 N   0  0  0  0  0  0  0  0  0  0  0  0
  -83.0790   31.5145    0.9888 C   0  0  0  0  0  0  0  0  0  0  0  0
  -84.3697   31.5607    0.4844 C   0  0  0  0  0  0  0  0  0  0  0  0
  -85.2589   30.5223    0.5913 C   0  0  0  0  0  0  0  0  0  0  0  0
  -85.8326   27.5255    1.6480 H   0  0  0  0  0  0  0  0  0  0  0  0
  -88.0431   35.2631   -2.9856 C   0  0  0  0  0  0  0  0  0  0  0  0
  -87.2860   34.2284   -2.7016 C   0  0  0  0  0  0  0  0  0  0  0  0
  -87.6529   36.4156   -3.7446 C   0  0  0  0  0  0  0  0  0  0  0  0
  -86.9598   36.2790   -4.9236 C   0  0  0  0  0  0  0  0  0  0  0  0
  -86.5872   37.4080   -5.6504 C   0  0  0  0  0  0  0  0  0  0  0  0
  -86.9020   38.6718   -5.2084 C   0  0  0  0  0  0  0  0  0  0  0  0
  -87.5981   38.8103   -4.0247 C   0  0  0  0  0  0  0  0  0  0  0  0
  -87.9563   37.6926   -3.3233 C   0  0  0  0  0  0  0  0  0  0  0  0
 17 18  2  0  0  0
 18  1  1  0  0  0
  1  2  2  0  0  0
  2  3  1  0  0  0
  3  4  2  0  0  0
  4  5  1  0  0  0
  5  6  2  0  0  0
  5  7  1  0  0  0
  7  8  2  0  0  0
  8  9  1  0  0  0
  9 10  1  0  0  0
 10 11  2  0  0  0
 11 12  1  0  0  0
 12 13  2  0  0  0
 13 14  1  0  0  0
 14 15  2  0  0  0
 17 19  1  0  0  0
 19 20  2  0  0  0
 20 21  1  0  0  0
 21 22  2  0  0  0
 22 23  1  0  0  0
 23 24  2  0  0  0
  6  1  1  0  0  0
 15  7  1  0  0  0
 24 19  1  0  0  0
 15 10  1  0  0  0
  9 16  1  0  0  0
M  END
> <minimizedAffinity>
-7.75469

> <CNNscore>
0.3525499105

> <CNNaffinity>
6.2209863663

> <CNN_VS>
2.1932082176

> <CNNaffinity_variance>
0.1837174743

$$$$
[H]/C(=C(/[H])c1c([H])c([H])c([H])c([H])c1[H])c1nc([H])c([H])c(-c2c([H])n([H])c3c([H])nc([H])c([H])c23)n1


 24 27  0  0  0  0  0  0  0  0999 V2000
  -89.3235   28.7335    0.1759 C   0  0  0  0  0  0  0  0  0  0  0  0
  -90.0261   29.7722   -0.3439 N   0  0  0  0  0  0  0  0  0  0  0  0
  -89.4635   30.9510   -0.6533 C   0  0  0  0  0  0  0  0  0  0  0  0
  -88.1067   31.0801   -0.4201 C   0  0  0  0  0  0  0  0  0  0  0  0
  -87.3562   30.0403    0.1100 C   0  0  0  0  0  0  0  0  0  0  0  0
  -88.0069   28.9117    0.3832 N   0  0  0  0  0  0  0  0  0  0  0  0
  -85.9290   30.2482    0.3294 C   0  0  0  0  0  0  0  0  0  0  0  0
  -85.0428   29.3566    0.9338 C   0  0  0  0  0  0  0  0  0  0  0  0
  -83.8247   29.8835    0.9608 N   0  0  0  0  0  0  0  0  0  0  0  0
  -83.8632   31.0969    0.3957 C   0  0  0  0  0  0  0  0  0  0  0  0
  -82.9146   32.0675    0.1598 C   0  0  0  0  0  0  0  0  0  0  0  0
  -83.2072   33.2306   -0.4381 N   0  0  0  0  0  0  0  0  0  0  0  0
  -84.4690   33.5055   -0.8424 C   0  0  0  0  0  0  0  0  0  0  0  0
  -85.4350   32.5380   -0.6118 C   0  0  0  0  0  0  0  0  0  0  0  0
  -85.1705   31.3380   -0.0031 C   0  0  0  0  0  0  0  0  0  0  0  0
  -82.9778   29.4039    1.3674 H   0  0  0  0  0  0  0  0  0  0  0  0
  -89.2896   26.3605    0.5486 C   0  0  0  0  0  0  0  0  0  0  0  0
  -89.9787   27.4770    0.4942 C   0  0  0  0  0  0  0  0  0  0  0  0
  -89.8088   25.0581    0.8498 C   0  0  0  0  0  0  0  0  0  0  0  0
  -89.6832   24.0262   -0.0493 C   0  0  0  0  0  0  0  0  0  0  0  0
  -90.1928   22.7659    0.2572 C   0  0  0  0  0  0  0  0  0  0  0  0
  -90.8265   22.5292    1.4547 C   0  0  0  0  0  0  0  0  0  0  0  0
  -90.9532   23.5645    2.3584 C   0  0  0  0  0  0  0  0  0  0  0  0
  -90.4478   24.7952    2.0426 C   0  0  0  0  0  0  0  0  0  0  0  0
 17 18  2  0  0  0
 18  1  1  0  0  0
  1  2  2  0  0  0
  2  3  1  0  0  0
  3  4  2  0  0  0
  4  5  1  0  0  0
  5  6  2  0  0  0
  5  7  1  0  0  0
  7  8  2  0  0  0
  8  9  1  0  0  0
  9 10  1  0  0  0
 10 11  2  0  0  0
 11 12  1  0  0  0
 12 13  2  0  0  0
 13 14  1  0  0  0
 14 15  2  0  0  0
 17 19  1  0  0  0
 19 20  2  0  0  0
 20 21  1  0  0  0
 21 22  2  0  0  0
 22 23  1  0  0  0
 23 24  2  0  0  0
  6  1  1  0  0  0
 15  7  1  0  0  0
 24 19  1  0  0  0
 15 10  1  0  0  0
  9 16  1  0  0  0
M  END
> <minimizedAffinity>
-7.50185

> <CNNscore>
0.2206884921

> <CNNaffinity>
6.0290651321

> <CNN_VS>
1.3305453062

> <CNNaffinity_variance>
0.1809624732

$$$$
[H]/C(=C(/[H])c1c([H])c([H])c([H])c([H])c1[H])c1nc([H])c([H])c(-c2c([H])n([H])c3c([H])nc([H])c([H])c23)n1


 24 27  0  0  0  0  0  0  0  0999 V2000
  -89.6054   29.9447   -1.2991 C   0  0  0  0  0  0  0  0  0  0  0  0
  -89.8444   31.2706   -1.4653 N   0  0  0  0  0  0  0  0  0  0  0  0
  -88.9781   32.2215   -1.0816 C   0  0  0  0  0  0  0  0  0  0  0  0
  -87.7998   31.7982   -0.4947 C   0  0  0  0  0  0  0  0  0  0  0  0
  -87.5211   30.4516   -0.3085 C   0  0  0  0  0  0  0  0  0  0  0  0
  -88.4443   29.5868   -0.7230 N   0  0  0  0  0  0  0  0  0  0  0  0
  -86.2575   30.0784    0.3179 C   0  0  0  0  0  0  0  0  0  0  0  0
  -85.9915   28.8990    1.0133 C   0  0  0  0  0  0  0  0  0  0  0  0
  -84.7355   28.9049    1.4431 N   0  0  0  0  0  0  0  0  0  0  0  0
  -84.1504   30.0469    1.0602 C   0  0  0  0  0  0  0  0  0  0  0  0
  -82.8877   30.5719    1.2266 C   0  0  0  0  0  0  0  0  0  0  0  0
  -82.5343   31.7680    0.7363 N   0  0  0  0  0  0  0  0  0  0  0  0
  -83.4184   32.5238    0.0449 C   0  0  0  0  0  0  0  0  0  0  0  0
  -84.6937   32.0087   -0.1310 C   0  0  0  0  0  0  0  0  0  0  0  0
  -85.0886   30.7895    0.3569 C   0  0  0  0  0  0  0  0  0  0  0  0
  -84.2919   28.1237    1.9957 H   0  0  0  0  0  0  0  0  0  0  0  0
  -90.1805   27.7771   -2.1604 C   0  0  0  0  0  0  0  0  0  0  0  0
  -90.5753   28.9538   -1.7315 C   0  0  0  0  0  0  0  0  0  0  0  0
  -91.0278   26.7127   -2.6141 C   0  0  0  0  0  0  0  0  0  0  0  0
  -91.9572   26.9274   -3.6036 C   0  0  0  0  0  0  0  0  0  0  0  0
  -92.7737   25.8835   -4.0343 C   0  0  0  0  0  0  0  0  0  0  0  0
  -92.6684   24.6274   -3.4840 C   0  0  0  0  0  0  0  0  0  0  0  0
  -91.7355   24.4105   -2.4904 C   0  0  0  0  0  0  0  0  0  0  0  0
  -90.9420   25.4452   -2.0789 C   0  0  0  0  0  0  0  0  0  0  0  0
 17 18  2  0  0  0
 18  1  1  0  0  0
  1  2  2  0  0  0
  2  3  1  0  0  0
  3  4  2  0  0  0
  4  5  1  0  0  0
  5  6  2  0  0  0
  5  7  1  0  0  0
  7  8  2  0  0  0
  8  9  1  0  0  0
  9 10  1  0  0  0
 10 11  2  0  0  0
 11 12  1  0  0  0
 12 13  2  0  0  0
 13 14  1  0  0  0
 14 15  2  0  0  0
 17 19  1  0  0  0
 19 20  2  0  0  0
 20 21  1  0  0  0
 21 22  2  0  0  0
 22 23  1  0  0  0
 23 24  2  0  0  0
  6  1  1  0  0  0
 15  7  1  0  0  0
 24 19  1  0  0  0
 15 10  1  0  0  0
  9 16  1  0  0  0
M  END
> <minimizedAffinity>
-7.23921

> <CNNscore>
0.2136157453

> <CNNaffinity>
5.8842959404

> <CNN_VS>
1.2569782734

> <CNNaffinity_variance>
0.1586553901

$$$$
[H]c1c([H])c([H])c2c(c1[H])c1c3c(c4c5c([H])c([H])c([H])c([H])c5n5c4c1n2[C@@]1(C([H])([H])[H])O[C@]5([H])C([H])([H])[C@@]([H])(N([H])C([H])([H])[H])[C@@]1([H])OC([H])([H])[H])C(=O)N([H])C3([H])[H]


 37 44  0  0  0  0  0  0  0  0999 V2000
  -89.5523   28.7651   -2.5427 C   0  0  0  0  0  0  0  0  0  0  0  0
  -89.8103   30.2040   -2.6219 C   0  0  0  0  0  0  0  0  0  0  0  0
  -89.7952   30.8727   -1.3046 C   0  0  0  0  0  0  0  0  0  0  0  0
  -89.8583   30.2020   -0.1862 O   0  0  0  0  0  0  0  0  0  0  0  0
  -89.2688   28.9519   -0.0180 C   0  0  0  0  0  0  0  0  0  0  0  0
  -90.0428   28.4349    1.2019 C   0  0  0  0  0  0  0  0  0  0  0  0
  -89.5354   28.1204   -1.1853 C   0  0  0  0  0  0  0  0  0  0  0  0
  -87.8457   29.1642    0.2998 N   0  0  0  0  0  0  0  0  0  0  0  0
  -87.0338   28.3612    0.9849 C   0  0  0  0  0  0  0  0  0  0  0  0
  -87.2090   27.1316    1.5565 C   0  0  0  0  0  0  0  0  0  0  0  0
  -86.1882   26.4915    2.2230 C   0  0  0  0  0  0  0  0  0  0  0  0
  -84.9235   27.0760    2.3431 C   0  0  0  0  0  0  0  0  0  0  0  0
  -84.7446   28.2983    1.7760 C   0  0  0  0  0  0  0  0  0  0  0  0
  -85.7676   28.9252    1.1154 C   0  0  0  0  0  0  0  0  0  0  0  0
  -85.8216   30.1329    0.4711 C   0  0  0  0  0  0  0  0  0  0  0  0
  -84.8867   31.1483    0.2581 C   0  0  0  0  0  0  0  0  0  0  0  0
  -83.4719   31.2434    0.6847 C   0  0  0  0  0  0  0  0  0  0  0  0
  -82.9730   32.4900    0.2055 N   0  0  0  0  0  0  0  0  0  0  0  0
  -84.0303   33.1543   -0.4942 C   0  0  0  0  0  0  0  0  0  0  0  0
  -83.8558   34.2606   -1.0090 O   0  0  0  0  0  0  0  0  0  0  0  0
  -85.2065   32.3061   -0.4496 C   0  0  0  0  0  0  0  0  0  0  0  0
  -86.4916   32.4051   -0.9332 C   0  0  0  0  0  0  0  0  0  0  0  0
  -87.1761   33.3540   -1.6709 C   0  0  0  0  0  0  0  0  0  0  0  0
  -86.8139   34.5674   -2.1847 C   0  0  0  0  0  0  0  0  0  0  0  0
  -87.7423   35.3030   -2.8950 C   0  0  0  0  0  0  0  0  0  0  0  0
  -89.0151   34.8300   -3.0876 C   0  0  0  0  0  0  0  0  0  0  0  0
  -89.3944   33.6087   -2.5755 C   0  0  0  0  0  0  0  0  0  0  0  0
  -88.4684   32.8883   -1.8740 C   0  0  0  0  0  0  0  0  0  0  0  0
  -88.5804   31.7123   -1.2927 N   0  0  0  0  0  0  0  0  0  0  0  0
  -87.4253   31.3776   -0.7133 C   0  0  0  0  0  0  0  0  0  0  0  0
  -87.0886   30.2362   -0.0058 C   0  0  0  0  0  0  0  0  0  0  0  0
  -81.9959   32.8358    0.3541 H   0  0  0  0  0  0  0  0  0  0  0  0
  -87.7996   29.7266   -3.8706 C   0  0  0  0  0  0  0  0  0  0  0  0
  -88.2832   28.5028   -3.2587 N   0  0  0  0  0  0  0  0  0  0  0  0
  -87.5365   28.2028   -2.5961 H   0  0  0  0  0  0  0  0  0  0  0  0
  -88.7143   27.0075   -1.3514 O   0  0  0  0  0  0  0  0  0  0  0  0
  -89.3985   25.8025   -1.2487 C   0  0  0  0  0  0  0  0  0  0  0  0
 33 34  1  0  0  0
 34  1  1  0  0  0
  1  2  1  0  0  0
  2  3  1  0  0  0
  3  4  1  0  0  0
  4  5  1  0  0  0
  5  6  1  0  0  0
  5  7  1  0  0  0
  7 36  1  0  0  0
 36 37  1  0  0  0
  5  8  1  0  0  0
  8  9  1  0  0  0
  9 10  2  0  0  0
 10 11  1  0  0  0
 11 12  2  0  0  0
 12 13  1  0  0  0
 13 14  2  0  0  0
 14 15  1  0  0  0
 15 16  2  0  0  0
 16 17  1  0  0  0
 17 18  1  0  0  0
 18 19  1  0  0  0
 19 20  2  0  0  0
 19 21  1  0  0  0
 21 22  2  0  0  0
 22 23  1  0  0  0
 23 24  2  0  0  0
 24 25  1  0  0  0
 25 26  2  0  0  0
 26 27  1  0  0  0
 27 28  2  0  0  0
 28 29  1  0  0  0
 29 30  1  0  0  0
 30 31  2  0  0  0
  7  1  1  0  0  0
 31  8  1  0  0  0
 29  3  1  0  0  0
 14  9  1  0  0  0
 31 15  1  0  0  0
 21 16  1  0  0  0
 30 22  1  0  0  0
 28 23  1  0  0  0
 34 35  1  0  0  0
 18 32  1  0  0  0
M  END
> <minimizedAffinity>
-11.21869

> <CNNscore>
0.6020357013

> <CNNaffinity>
6.9783277512

> <CNN_VS>
4.2012023926

> <CNNaffinity_variance>
0.0807177424

$$$$
[H]c1c([H])c([H])c2c(c1[H])c1c3c(c4c5c([H])c([H])c([H])c([H])c5n5c4c1n2[C@@]1(C([H])([H])[H])O[C@]5([H])C([H])([H])[C@@]([H])(N([H])C([H])([H])[H])[C@@]1([H])OC([H])([H])[H])C(=O)N([H])C3([H])[H]


 37 44  0  0  0  0  0  0  0  0999 V2000
  -86.2010   32.8846   -0.7263 C   0  0  0  0  0  0  0  0  0  0  0  0
  -86.6066   33.1308   -2.1113 C   0  0  0  0  0  0  0  0  0  0  0  0
  -86.8215   31.8909   -2.8853 C   0  0  0  0  0  0  0  0  0  0  0  0
  -86.3928   30.7303   -2.4681 O   0  0  0  0  0  0  0  0  0  0  0  0
  -86.3609   30.3732   -1.1228 C   0  0  0  0  0  0  0  0  0  0  0  0
  -85.3555   29.2146   -1.1603 C   0  0  0  0  0  0  0  0  0  0  0  0
  -85.8387   31.4806   -0.3314 C   0  0  0  0  0  0  0  0  0  0  0  0
  -87.7069   29.9040   -0.7494 N   0  0  0  0  0  0  0  0  0  0  0  0
  -88.0343   29.0512    0.2196 C   0  0  0  0  0  0  0  0  0  0  0  0
  -87.2982   28.3918    1.1643 C   0  0  0  0  0  0  0  0  0  0  0  0
  -87.8855   27.5471    2.0794 C   0  0  0  0  0  0  0  0  0  0  0  0
  -89.2666   27.3279    2.0800 C   0  0  0  0  0  0  0  0  0  0  0  0
  -90.0026   27.9817    1.1428 C   0  0  0  0  0  0  0  0  0  0  0  0
  -89.4071   28.8197    0.2377 C   0  0  0  0  0  0  0  0  0  0  0  0
  -89.9333   29.5770   -0.7752 C   0  0  0  0  0  0  0  0  0  0  0  0
  -91.2312   29.7683   -1.2542 C   0  0  0  0  0  0  0  0  0  0  0  0
  -92.5108   29.1815   -0.7948 C   0  0  0  0  0  0  0  0  0  0  0  0
  -93.5380   29.7114   -1.6293 N   0  0  0  0  0  0  0  0  0  0  0  0
  -92.9309   30.5957   -2.5771 C   0  0  0  0  0  0  0  0  0  0  0  0
  -93.6083   31.1874   -3.4198 O   0  0  0  0  0  0  0  0  0  0  0  0
  -91.5018   30.6163   -2.3271 C   0  0  0  0  0  0  0  0  0  0  0  0
  -90.4277   31.2619   -2.8968 C   0  0  0  0  0  0  0  0  0  0  0  0
  -90.2820   32.1646   -3.9345 C   0  0  0  0  0  0  0  0  0  0  0  0
  -91.1746   32.7424   -4.7930 C   0  0  0  0  0  0  0  0  0  0  0  0
  -90.7149   33.6280   -5.7479 C   0  0  0  0  0  0  0  0  0  0  0  0
  -89.3805   33.9304   -5.8416 C   0  0  0  0  0  0  0  0  0  0  0  0
  -88.4693   33.3557   -4.9831 C   0  0  0  0  0  0  0  0  0  0  0  0
  -88.9340   32.4805   -4.0415 C   0  0  0  0  0  0  0  0  0  0  0  0
  -88.2774   31.8088   -3.1190 N   0  0  0  0  0  0  0  0  0  0  0  0
  -89.1250   31.0625   -2.4074 C   0  0  0  0  0  0  0  0  0  0  0  0
  -88.8767   30.2141   -1.3419 C   0  0  0  0  0  0  0  0  0  0  0  0
  -94.5548   29.4769   -1.5421 H   0  0  0  0  0  0  0  0  0  0  0  0
  -86.8916   34.7106    0.6697 C   0  0  0  0  0  0  0  0  0  0  0  0
  -87.2730   33.4107    0.1490 N   0  0  0  0  0  0  0  0  0  0  0  0
  -88.1512   33.5678   -0.3903 H   0  0  0  0  0  0  0  0  0  0  0  0
  -86.0979   31.4382    1.0366 O   0  0  0  0  0  0  0  0  0  0  0  0
  -84.9752   31.1348    1.7970 C   0  0  0  0  0  0  0  0  0  0  0  0
 33 34  1  0  0  0
 34  1  1  0  0  0
  1  2  1  0  0  0
  2  3  1  0  0  0
  3  4  1  0  0  0
  4  5  1  0  0  0
  5  6  1  0  0  0
  5  7  1  0  0  0
  7 36  1  0  0  0
 36 37  1  0  0  0
  5  8  1  0  0  0
  8  9  1  0  0  0
  9 10  2  0  0  0
 10 11  1  0  0  0
 11 12  2  0  0  0
 12 13  1  0  0  0
 13 14  2  0  0  0
 14 15  1  0  0  0
 15 16  2  0  0  0
 16 17  1  0  0  0
 17 18  1  0  0  0
 18 19  1  0  0  0
 19 20  2  0  0  0
 19 21  1  0  0  0
 21 22  2  0  0  0
 22 23  1  0  0  0
 23 24  2  0  0  0
 24 25  1  0  0  0
 25 26  2  0  0  0
 26 27  1  0  0  0
 27 28  2  0  0  0
 28 29  1  0  0  0
 29 30  1  0  0  0
 30 31  2  0  0  0
  7  1  1  0  0  0
 31  8  1  0  0  0
 29  3  1  0  0  0
 14  9  1  0  0  0
 31 15  1  0  0  0
 21 16  1  0  0  0
 30 22  1  0  0  0
 28 23  1  0  0  0
 34 35  1  0  0  0
 18 32  1  0  0  0
M  END
> <minimizedAffinity>
-0.48297

> <CNNscore>
0.1802945137

> <CNNaffinity>
6.0447373390

> <CNN_VS>
1.0898330212

> <CNNaffinity_variance>
0.3811166584

$$$$
[H]c1c([H])c([H])c2c(c1[H])c1c3c(c4c5c([H])c([H])c([H])c([H])c5n5c4c1n2[C@@]1(C([H])([H])[H])O[C@]5([H])C([H])([H])[C@@]([H])(N([H])C([H])([H])[H])[C@@]1([H])OC([H])([H])[H])C(=O)N([H])C3([H])[H]


 37 44  0  0  0  0  0  0  0  0999 V2000
  -89.6825   27.3677   -1.9367 C   0  0  0  0  0  0  0  0  0  0  0  0
  -90.5521   28.4622   -2.3716 C   0  0  0  0  0  0  0  0  0  0  0  0
  -90.7657   29.4869   -1.3290 C   0  0  0  0  0  0  0  0  0  0  0  0
  -90.4691   29.2729   -0.0757 O   0  0  0  0  0  0  0  0  0  0  0  0
  -89.3811   28.5018    0.3245 C   0  0  0  0  0  0  0  0  0  0  0  0
  -89.7841   28.1692    1.7673 C   0  0  0  0  0  0  0  0  0  0  0  0
  -89.3134   27.2892   -0.4820 C   0  0  0  0  0  0  0  0  0  0  0  0
  -88.1832   29.3589    0.2858 N   0  0  0  0  0  0  0  0  0  0  0  0
  -87.0664   29.2334    1.0003 C   0  0  0  0  0  0  0  0  0  0  0  0
  -86.6519   28.3123    1.9217 C   0  0  0  0  0  0  0  0  0  0  0  0
  -85.4208   28.4025    2.5317 C   0  0  0  0  0  0  0  0  0  0  0  0
  -84.5391   29.4457    2.2320 C   0  0  0  0  0  0  0  0  0  0  0  0
  -84.9467   30.3636    1.3162 C   0  0  0  0  0  0  0  0  0  0  0  0
  -86.1737   30.2633    0.7159 C   0  0  0  0  0  0  0  0  0  0  0  0
  -86.7877   31.0495   -0.2230 C   0  0  0  0  0  0  0  0  0  0  0  0
  -86.4085   32.2140   -0.8943 C   0  0  0  0  0  0  0  0  0  0  0  0
  -85.1608   33.0053   -0.7958 C   0  0  0  0  0  0  0  0  0  0  0  0
  -85.2878   34.1016   -1.6982 N   0  0  0  0  0  0  0  0  0  0  0  0
  -86.5641   34.0061   -2.3392 C   0  0  0  0  0  0  0  0  0  0  0  0
  -86.9219   34.8414   -3.1719 O   0  0  0  0  0  0  0  0  0  0  0  0
  -87.2419   32.8301   -1.8267 C   0  0  0  0  0  0  0  0  0  0  0  0
  -88.4619   32.2364   -2.0594 C   0  0  0  0  0  0  0  0  0  0  0  0
  -89.5315   32.5188   -2.8895 C   0  0  0  0  0  0  0  0  0  0  0  0
  -89.7683   33.5206   -3.7885 C   0  0  0  0  0  0  0  0  0  0  0  0
  -90.9610   33.5335   -4.4847 C   0  0  0  0  0  0  0  0  0  0  0  0
  -91.9030   32.5573   -4.2833 C   0  0  0  0  0  0  0  0  0  0  0  0
  -91.6781   31.5415   -3.3805 C   0  0  0  0  0  0  0  0  0  0  0  0
  -90.4946   31.5374   -2.6963 C   0  0  0  0  0  0  0  0  0  0  0  0
  -90.0467   30.6904   -1.7934 N   0  0  0  0  0  0  0  0  0  0  0  0
  -88.8343   31.0643   -1.3784 C   0  0  0  0  0  0  0  0  0  0  0  0
  -87.9931   30.4689   -0.4540 C   0  0  0  0  0  0  0  0  0  0  0  0
  -84.5571   34.8367   -1.8472 H   0  0  0  0  0  0  0  0  0  0  0  0
  -88.3720   28.6898   -3.4515 C   0  0  0  0  0  0  0  0  0  0  0  0
  -88.4663   27.4066   -2.7803 N   0  0  0  0  0  0  0  0  0  0  0  0
  -87.6057   27.3276   -2.1974 H   0  0  0  0  0  0  0  0  0  0  0  0
  -88.0955   26.6132   -0.4797 O   0  0  0  0  0  0  0  0  0  0  0  0
  -88.1386   25.4104    0.2146 C   0  0  0  0  0  0  0  0  0  0  0  0
 33 34  1  0  0  0
 34  1  1  0  0  0
  1  2  1  0  0  0
  2  3  1  0  0  0
  3  4  1  0  0  0
  4  5  1  0  0  0
  5  6  1  0  0  0
  5  7  1  0  0  0
  7 36  1  0  0  0
 36 37  1  0  0  0
  5  8  1  0  0  0
  8  9  1  0  0  0
  9 10  2  0  0  0
 10 11  1  0  0  0
 11 12  2  0  0  0
 12 13  1  0  0  0
 13 14  2  0  0  0
 14 15  1  0  0  0
 15 16  2  0  0  0
 16 17  1  0  0  0
 17 18  1  0  0  0
 18 19  1  0  0  0
 19 20  2  0  0  0
 19 21  1  0  0  0
 21 22  2  0  0  0
 22 23  1  0  0  0
 23 24  2  0  0  0
 24 25  1  0  0  0
 25 26  2  0  0  0
 26 27  1  0  0  0
 27 28  2  0  0  0
 28 29  1  0  0  0
 29 30  1  0  0  0
 30 31  2  0  0  0
  7  1  1  0  0  0
 31  8  1  0  0  0
 29  3  1  0  0  0
 14  9  1  0  0  0
 31 15  1  0  0  0
 21 16  1  0  0  0
 30 22  1  0  0  0
 28 23  1  0  0  0
 34 35  1  0  0  0
 18 32  1  0  0  0
M  END
> <minimizedAffinity>
-9.66163

> <CNNscore>
0.1802358478

> <CNNaffinity>
6.2458000183

> <CNN_VS>
1.1257170439

> <CNNaffinity_variance>
0.3880366981

$$$$
[H]c1c([H])c([H])c2c(c1[H])c1c3c(c4c5c([H])c([H])c([H])c([H])c5n5c4c1n2[C@@]1(C([H])([H])[H])O[C@]5([H])C([H])([H])[C@@]([H])(N([H])C([H])([H])[H])[C@@]1([H])OC([H])([H])[H])C(=O)N([H])C3([H])[H]


 37 44  0  0  0  0  0  0  0  0999 V2000
  -89.7710   29.1640   -2.4250 C   0  0  0  0  0  0  0  0  0  0  0  0
  -89.1360   30.4794   -2.3259 C   0  0  0  0  0  0  0  0  0  0  0  0
  -89.1473   31.0309   -0.9554 C   0  0  0  0  0  0  0  0  0  0  0  0
  -89.9119   30.5407   -0.0173 O   0  0  0  0  0  0  0  0  0  0  0  0
  -90.2126   29.1850    0.0839 C   0  0  0  0  0  0  0  0  0  0  0  0
  -91.4684   29.2376    0.9640 C   0  0  0  0  0  0  0  0  0  0  0  0
  -90.5318   28.6514   -1.2347 C   0  0  0  0  0  0  0  0  0  0  0  0
  -89.0947   28.5267    0.7826 N   0  0  0  0  0  0  0  0  0  0  0  0
  -89.1294   27.4100    1.5072 C   0  0  0  0  0  0  0  0  0  0  0  0
  -90.1289   26.5252    1.8025 C   0  0  0  0  0  0  0  0  0  0  0  0
  -89.9056   25.4176    2.5895 C   0  0  0  0  0  0  0  0  0  0  0  0
  -88.6403   25.1509    3.1218 C   0  0  0  0  0  0  0  0  0  0  0  0
  -87.6433   26.0276    2.8305 C   0  0  0  0  0  0  0  0  0  0  0  0
  -87.8775   27.1259    2.0463 C   0  0  0  0  0  0  0  0  0  0  0  0
  -87.0445   28.1264    1.6200 C   0  0  0  0  0  0  0  0  0  0  0  0
  -85.6896   28.3973    1.8231 C   0  0  0  0  0  0  0  0  0  0  0  0
  -84.6769   27.6506    2.6039 C   0  0  0  0  0  0  0  0  0  0  0  0
  -83.4467   28.3605    2.4814 N   0  0  0  0  0  0  0  0  0  0  0  0
  -83.6744   29.5087    1.6576 C   0  0  0  0  0  0  0  0  0  0  0  0
  -82.7620   30.2948    1.3957 O   0  0  0  0  0  0  0  0  0  0  0  0
  -85.0700   29.5123    1.2608 C   0  0  0  0  0  0  0  0  0  0  0  0
  -85.8563   30.3394    0.4909 C   0  0  0  0  0  0  0  0  0  0  0  0
  -85.6257   31.4988   -0.2272 C   0  0  0  0  0  0  0  0  0  0  0  0
  -84.5088   32.2616   -0.4228 C   0  0  0  0  0  0  0  0  0  0  0  0
  -84.5942   33.3917   -1.2122 C   0  0  0  0  0  0  0  0  0  0  0  0
  -85.7810   33.7525   -1.7970 C   0  0  0  0  0  0  0  0  0  0  0  0
  -86.9149   32.9933   -1.6087 C   0  0  0  0  0  0  0  0  0  0  0  0
  -86.8203   31.8767   -0.8258 C   0  0  0  0  0  0  0  0  0  0  0  0
  -87.7441   30.9984   -0.4963 N   0  0  0  0  0  0  0  0  0  0  0  0
  -87.2193   30.0581    0.2926 C   0  0  0  0  0  0  0  0  0  0  0  0
  -87.8166   28.9464    0.8618 C   0  0  0  0  0  0  0  0  0  0  0  0
  -82.5455   28.0696    2.9282 H   0  0  0  0  0  0  0  0  0  0  0  0
  -87.5224   28.9068   -3.2232 C   0  0  0  0  0  0  0  0  0  0  0  0
  -88.7254   28.1970   -2.8295 N   0  0  0  0  0  0  0  0  0  0  0  0
  -88.4477   27.5912   -2.0279 H   0  0  0  0  0  0  0  0  0  0  0  0
  -90.4759   27.2662   -1.3705 O   0  0  0  0  0  0  0  0  0  0  0  0
  -91.7173   26.6892   -1.6084 C   0  0  0  0  0  0  0  0  0  0  0  0
 33 34  1  0  0  0
 34  1  1  0  0  0
  1  2  1  0  0  0
  2  3  1  0  0  0
  3  4  1  0  0  0
  4  5  1  0  0  0
  5  6  1  0  0  0
  5  7  1  0  0  0
  7 36  1  0  0  0
 36 37  1  0  0  0
  5  8  1  0  0  0
  8  9  1  0  0  0
  9 10  2  0  0  0
 10 11  1  0  0  0
 11 12  2  0  0  0
 12 13  1  0  0  0
 13 14  2  0  0  0
 14 15  1  0  0  0
 15 16  2  0  0  0
 16 17  1  0  0  0
 17 18  1  0  0  0
 18 19  1  0  0  0
 19 20  2  0  0  0
 19 21  1  0  0  0
 21 22  2  0  0  0
 22 23  1  0  0  0
 23 24  2  0  0  0
 24 25  1  0  0  0
 25 26  2  0  0  0
 26 27  1  0  0  0
 27 28  2  0  0  0
 28 29  1  0  0  0
 29 30  1  0  0  0
 30 31  2  0  0  0
  7  1  1  0  0  0
 31  8  1  0  0  0
 29  3  1  0  0  0
 14  9  1  0  0  0
 31 15  1  0  0  0
 21 16  1  0  0  0
 30 22  1  0  0  0
 28 23  1  0  0  0
 34 35  1  0  0  0
 18 32  1  0  0  0
M  END
> <minimizedAffinity>
-9.72661

> <CNNscore>
0.1500860453

> <CNNaffinity>
6.3706941605

> <CNN_VS>
0.9561523199

> <CNNaffinity_variance>
0.2586153448

$$$$
[H]c1c([H])c([H])c2c(c1[H])c1c3c(c4c5c([H])c([H])c([H])c([H])c5n5c4c1n2[C@@]1(C([H])([H])[H])O[C@]5([H])C([H])([H])[C@@]([H])(N([H])C([H])([H])[H])[C@@]1([H])OC([H])([H])[H])C(=O)N([H])C3([H])[H]


 37 44  0  0  0  0  0  0  0  0999 V2000
  -90.5570   27.8098    0.6091 C   0  0  0  0  0  0  0  0  0  0  0  0
  -89.2343   27.2890    0.9591 C   0  0  0  0  0  0  0  0  0  0  0  0
  -88.3026   27.2455   -0.1866 C   0  0  0  0  0  0  0  0  0  0  0  0
  -88.7150   27.3610   -1.4200 O   0  0  0  0  0  0  0  0  0  0  0  0
  -89.7808   28.1771   -1.7894 C   0  0  0  0  0  0  0  0  0  0  0  0
  -90.1434   27.5714   -3.1518 C   0  0  0  0  0  0  0  0  0  0  0  0
  -90.8789   28.0108   -0.8451 C   0  0  0  0  0  0  0  0  0  0  0  0
  -89.2676   29.5510   -1.9322 N   0  0  0  0  0  0  0  0  0  0  0  0
  -89.7539   30.5287   -2.6944 C   0  0  0  0  0  0  0  0  0  0  0  0
  -90.8413   30.6100   -3.5191 C   0  0  0  0  0  0  0  0  0  0  0  0
  -91.1396   31.7620   -4.2117 C   0  0  0  0  0  0  0  0  0  0  0  0
  -90.3383   32.9025   -4.0991 C   0  0  0  0  0  0  0  0  0  0  0  0
  -89.2563   32.8265   -3.2800 C   0  0  0  0  0  0  0  0  0  0  0  0
  -88.9697   31.6750   -2.5961 C   0  0  0  0  0  0  0  0  0  0  0  0
  -87.9577   31.3691   -1.7249 C   0  0  0  0  0  0  0  0  0  0  0  0
  -86.8701   32.0906   -1.2278 C   0  0  0  0  0  0  0  0  0  0  0  0
  -86.4473   33.4831   -1.5015 C   0  0  0  0  0  0  0  0  0  0  0  0
  -85.2689   33.7212   -0.7352 N   0  0  0  0  0  0  0  0  0  0  0  0
  -84.9606   32.5271   -0.0085 C   0  0  0  0  0  0  0  0  0  0  0  0
  -83.9795   32.4706    0.7354 O   0  0  0  0  0  0  0  0  0  0  0  0
  -85.9648   31.5299   -0.3281 C   0  0  0  0  0  0  0  0  0  0  0  0
  -86.1914   30.2264    0.0523 C   0  0  0  0  0  0  0  0  0  0  0  0
  -85.5549   29.3444    0.9067 C   0  0  0  0  0  0  0  0  0  0  0  0
  -84.4389   29.4526    1.6880 C   0  0  0  0  0  0  0  0  0  0  0  0
  -84.0427   28.3716    2.4508 C   0  0  0  0  0  0  0  0  0  0  0  0
  -84.7540   27.1991    2.4312 C   0  0  0  0  0  0  0  0  0  0  0  0
  -85.8807   27.0756    1.6484 C   0  0  0  0  0  0  0  0  0  0  0  0
  -86.2648   28.1510    0.8971 C   0  0  0  0  0  0  0  0  0  0  0  0
  -87.2879   28.2850    0.0794 N   0  0  0  0  0  0  0  0  0  0  0  0
  -87.2890   29.5087   -0.4539 C   0  0  0  0  0  0  0  0  0  0  0  0
  -88.1758   30.0829   -1.3486 C   0  0  0  0  0  0  0  0  0  0  0  0
  -84.7393   34.6244   -0.7244 H   0  0  0  0  0  0  0  0  0  0  0  0
  -91.1274   28.7711    2.7328 C   0  0  0  0  0  0  0  0  0  0  0  0
  -90.7508   29.0691    1.3633 N   0  0  0  0  0  0  0  0  0  0  0  0
  -89.8603   29.6076    1.4249 H   0  0  0  0  0  0  0  0  0  0  0  0
  -91.8465   29.0129   -0.8403 O   0  0  0  0  0  0  0  0  0  0  0  0
  -92.9704   28.6919   -1.5916 C   0  0  0  0  0  0  0  0  0  0  0  0
 33 34  1  0  0  0
 34  1  1  0  0  0
  1  2  1  0  0  0
  2  3  1  0  0  0
  3  4  1  0  0  0
  4  5  1  0  0  0
  5  6  1  0  0  0
  5  7  1  0  0  0
  7 36  1  0  0  0
 36 37  1  0  0  0
  5  8  1  0  0  0
  8  9  1  0  0  0
  9 10  2  0  0  0
 10 11  1  0  0  0
 11 12  2  0  0  0
 12 13  1  0  0  0
 13 14  2  0  0  0
 14 15  1  0  0  0
 15 16  2  0  0  0
 16 17  1  0  0  0
 17 18  1  0  0  0
 18 19  1  0  0  0
 19 20  2  0  0  0
 19 21  1  0  0  0
 21 22  2  0  0  0
 22 23  1  0  0  0
 23 24  2  0  0  0
 24 25  1  0  0  0
 25 26  2  0  0  0
 26 27  1  0  0  0
 27 28  2  0  0  0
 28 29  1  0  0  0
 29 30  1  0  0  0
 30 31  2  0  0  0
  7  1  1  0  0  0
 31  8  1  0  0  0
 29  3  1  0  0  0
 14  9  1  0  0  0
 31 15  1  0  0  0
 21 16  1  0  0  0
 30 22  1  0  0  0
 28 23  1  0  0  0
 34 35  1  0  0  0
 18 32  1  0  0  0
M  END
> <minimizedAffinity>
-10.58240

> <CNNscore>
0.1370756626

> <CNNaffinity>
6.3205161095

> <CNN_VS>
0.8663889170

> <CNNaffinity_variance>
0.3558930159

$$$$
[H]c1c([H])c([H])c2c(c1[H])c1c3c(c4c5c([H])c([H])c([H])c([H])c5n5c4c1n2[C@@]1(C([H])([H])[H])O[C@]5([H])C([H])([H])[C@@]([H])(N([H])C([H])([H])[H])[C@@]1([H])OC([H])([H])[H])C(=O)N([H])C3([H])[H]


 37 44  0  0  0  0  0  0  0  0999 V2000
  -89.0132   26.2023   -0.5611 C   0  0  0  0  0  0  0  0  0  0  0  0
  -90.3362   26.7608   -0.8458 C   0  0  0  0  0  0  0  0  0  0  0  0
  -90.6944   27.8907    0.0361 C   0  0  0  0  0  0  0  0  0  0  0  0
  -90.0392   28.1461    1.1362 O   0  0  0  0  0  0  0  0  0  0  0  0
  -88.6677   27.9441    1.2656 C   0  0  0  0  0  0  0  0  0  0  0  0
  -88.5299   27.9013    2.7932 C   0  0  0  0  0  0  0  0  0  0  0  0
  -88.3016   26.6597    0.6810 C   0  0  0  0  0  0  0  0  0  0  0  0
  -87.9839   29.1192    0.6976 N   0  0  0  0  0  0  0  0  0  0  0  0
  -86.7787   29.5921    1.0096 C   0  0  0  0  0  0  0  0  0  0  0  0
  -85.8076   29.1638    1.8714 C   0  0  0  0  0  0  0  0  0  0  0  0
  -84.6174   29.8412    2.0146 C   0  0  0  0  0  0  0  0  0  0  0  0
  -84.3517   31.0013    1.2804 C   0  0  0  0  0  0  0  0  0  0  0  0
  -85.3141   31.4306    0.4220 C   0  0  0  0  0  0  0  0  0  0  0  0
  -86.4942   30.7482    0.2880 C   0  0  0  0  0  0  0  0  0  0  0  0
  -87.5883   30.9813   -0.5027 C   0  0  0  0  0  0  0  0  0  0  0  0
  -87.9042   31.9730   -1.4340 C   0  0  0  0  0  0  0  0  0  0  0  0
  -87.1158   33.1441   -1.8807 C   0  0  0  0  0  0  0  0  0  0  0  0
  -87.9034   33.8348   -2.8478 N   0  0  0  0  0  0  0  0  0  0  0  0
  -89.1385   33.1285   -3.0040 C   0  0  0  0  0  0  0  0  0  0  0  0
  -90.0026   33.5239   -3.7889 O   0  0  0  0  0  0  0  0  0  0  0  0
  -89.1182   31.9788   -2.1192 C   0  0  0  0  0  0  0  0  0  0  0  0
  -89.9972   30.9576   -1.8371 C   0  0  0  0  0  0  0  0  0  0  0  0
  -91.2546   30.6101   -2.2967 C   0  0  0  0  0  0  0  0  0  0  0  0
  -92.0981   31.1787   -3.2093 C   0  0  0  0  0  0  0  0  0  0  0  0
  -93.3186   30.5835   -3.4616 C   0  0  0  0  0  0  0  0  0  0  0  0
  -93.6889   29.4355   -2.8091 C   0  0  0  0  0  0  0  0  0  0  0  0
  -92.8490   28.8512   -1.8867 C   0  0  0  0  0  0  0  0  0  0  0  0
  -91.6433   29.4477   -1.6440 C   0  0  0  0  0  0  0  0  0  0  0  0
  -90.6781   29.0925   -0.8220 N   0  0  0  0  0  0  0  0  0  0  0  0
  -89.6699   29.9641   -0.8979 C   0  0  0  0  0  0  0  0  0  0  0  0
  -88.4595   29.9774   -0.2260 C   0  0  0  0  0  0  0  0  0  0  0  0
  -87.6050   34.7074   -3.3438 H   0  0  0  0  0  0  0  0  0  0  0  0
  -88.9369   27.1199   -2.7775 C   0  0  0  0  0  0  0  0  0  0  0  0
  -88.1701   26.4297   -1.7568 N   0  0  0  0  0  0  0  0  0  0  0  0
  -87.3673   27.0560   -1.5333 H   0  0  0  0  0  0  0  0  0  0  0  0
  -86.9531   26.4790    0.3824 O   0  0  0  0  0  0  0  0  0  0  0  0
  -86.1772   26.2021    1.5013 C   0  0  0  0  0  0  0  0  0  0  0  0
 33 34  1  0  0  0
 34  1  1  0  0  0
  1  2  1  0  0  0
  2  3  1  0  0  0
  3  4  1  0  0  0
  4  5  1  0  0  0
  5  6  1  0  0  0
  5  7  1  0  0  0
  7 36  1  0  0  0
 36 37  1  0  0  0
  5  8  1  0  0  0
  8  9  1  0  0  0
  9 10  2  0  0  0
 10 11  1  0  0  0
 11 12  2  0  0  0
 12 13  1  0  0  0
 13 14  2  0  0  0
 14 15  1  0  0  0
 15 16  2  0  0  0
 16 17  1  0  0  0
 17 18  1  0  0  0
 18 19  1  0  0  0
 19 20  2  0  0  0
 19 21  1  0  0  0
 21 22  2  0  0  0
 22 23  1  0  0  0
 23 24  2  0  0  0
 24 25  1  0  0  0
 25 26  2  0  0  0
 26 27  1  0  0  0
 27 28  2  0  0  0
 28 29  1  0  0  0
 29 30  1  0  0  0
 30 31  2  0  0  0
  7  1  1  0  0  0
 31  8  1  0  0  0
 29  3  1  0  0  0
 14  9  1  0  0  0
 31 15  1  0  0  0
 21 16  1  0  0  0
 30 22  1  0  0  0
 28 23  1  0  0  0
 34 35  1  0  0  0
 18 32  1  0  0  0
M  END
> <minimizedAffinity>
-8.69555

> <CNNscore>
0.1289231181

> <CNNaffinity>
6.1831312180

> <CNN_VS>
0.7971485853

> <CNNaffinity_variance>
0.4006763995

$$$$
[H]c1c([H])c([H])c2c(c1[H])c1c3c(c4c5c([H])c([H])c([H])c([H])c5n5c4c1n2[C@@]1(C([H])([H])[H])O[C@]5([H])C([H])([H])[C@@]([H])(N([H])C([H])([H])[H])[C@@]1([H])OC([H])([H])[H])C(=O)N([H])C3([H])[H]


 37 44  0  0  0  0  0  0  0  0999 V2000
  -87.4486   26.1028   -1.4981 C   0  0  0  0  0  0  0  0  0  0  0  0
  -87.5606   26.9192   -2.7082 C   0  0  0  0  0  0  0  0  0  0  0  0
  -88.9360   27.3921   -2.9676 C   0  0  0  0  0  0  0  0  0  0  0  0
  -89.9717   26.8773   -2.3619 O   0  0  0  0  0  0  0  0  0  0  0  0
  -89.9338   26.4302   -1.0438 C   0  0  0  0  0  0  0  0  0  0  0  0
  -91.1627   25.5115   -1.0202 C   0  0  0  0  0  0  0  0  0  0  0  0
  -88.7149   25.6629   -0.8187 C   0  0  0  0  0  0  0  0  0  0  0  0
  -90.1206   27.5991   -0.1663 N   0  0  0  0  0  0  0  0  0  0  0  0
  -90.6203   27.6215    1.0679 C   0  0  0  0  0  0  0  0  0  0  0  0
  -91.0645   26.6387    1.9081 C   0  0  0  0  0  0  0  0  0  0  0  0
  -91.5420   26.9246    3.1675 C   0  0  0  0  0  0  0  0  0  0  0  0
  -91.5925   28.2392    3.6414 C   0  0  0  0  0  0  0  0  0  0  0  0
  -91.1515   29.2197    2.8098 C   0  0  0  0  0  0  0  0  0  0  0  0
  -90.6785   28.9230    1.5590 C   0  0  0  0  0  0  0  0  0  0  0  0
  -90.1844   29.7263    0.5655 C   0  0  0  0  0  0  0  0  0  0  0  0
  -89.9895   31.1048    0.4553 C   0  0  0  0  0  0  0  0  0  0  0  0
  -90.2714   32.1860    1.4272 C   0  0  0  0  0  0  0  0  0  0  0  0
  -89.8860   33.4129    0.8120 N   0  0  0  0  0  0  0  0  0  0  0  0
  -89.3823   33.1177   -0.4949 C   0  0  0  0  0  0  0  0  0  0  0  0
  -88.9804   34.0142   -1.2392 O   0  0  0  0  0  0  0  0  0  0  0  0
  -89.4554   31.6826   -0.6954 C   0  0  0  0  0  0  0  0  0  0  0  0
  -89.1253   30.8300   -1.7246 C   0  0  0  0  0  0  0  0  0  0  0  0
  -88.5767   31.0006   -2.9827 C   0  0  0  0  0  0  0  0  0  0  0  0
  -88.1678   32.1064   -3.6738 C   0  0  0  0  0  0  0  0  0  0  0  0
  -87.6481   31.9534   -4.9442 C   0  0  0  0  0  0  0  0  0  0  0  0
  -87.5395   30.7107   -5.5141 C   0  0  0  0  0  0  0  0  0  0  0  0
  -87.9475   29.5871   -4.8294 C   0  0  0  0  0  0  0  0  0  0  0  0
  -88.4606   29.7490   -3.5728 C   0  0  0  0  0  0  0  0  0  0  0  0
  -88.9137   28.8487   -2.7256 N   0  0  0  0  0  0  0  0  0  0  0  0
  -89.3255   29.4438   -1.6040 C   0  0  0  0  0  0  0  0  0  0  0  0
  -89.8595   28.8895   -0.4532 C   0  0  0  0  0  0  0  0  0  0  0  0
  -89.9681   34.3549    1.2618 H   0  0  0  0  0  0  0  0  0  0  0  0
  -87.3859   27.6498    0.3356 C   0  0  0  0  0  0  0  0  0  0  0  0
  -86.5768   26.8334   -0.5504 N   0  0  0  0  0  0  0  0  0  0  0  0
  -86.0602   26.1712    0.0672 H   0  0  0  0  0  0  0  0  0  0  0  0
  -88.3377   25.4785    0.5095 O   0  0  0  0  0  0  0  0  0  0  0  0
  -88.5907   24.1947    0.9769 C   0  0  0  0  0  0  0  0  0  0  0  0
 33 34  1  0  0  0
 34  1  1  0  0  0
  1  2  1  0  0  0
  2  3  1  0  0  0
  3  4  1  0  0  0
  4  5  1  0  0  0
  5  6  1  0  0  0
  5  7  1  0  0  0
  7 36  1  0  0  0
 36 37  1  0  0  0
  5  8  1  0  0  0
  8  9  1  0  0  0
  9 10  2  0  0  0
 10 11  1  0  0  0
 11 12  2  0  0  0
 12 13  1  0  0  0
 13 14  2  0  0  0
 14 15  1  0  0  0
 15 16  2  0  0  0
 16 17  1  0  0  0
 17 18  1  0  0  0
 18 19  1  0  0  0
 19 20  2  0  0  0
 19 21  1  0  0  0
 21 22  2  0  0  0
 22 23  1  0  0  0
 23 24  2  0  0  0
 24 25  1  0  0  0
 25 26  2  0  0  0
 26 27  1  0  0  0
 27 28  2  0  0  0
 28 29  1  0  0  0
 29 30  1  0  0  0
 30 31  2  0  0  0
  7  1  1  0  0  0
 31  8  1  0  0  0
 29  3  1  0  0  0
 14  9  1  0  0  0
 31 15  1  0  0  0
 21 16  1  0  0  0
 30 22  1  0  0  0
 28 23  1  0  0  0
 34 35  1  0  0  0
 18 32  1  0  0  0
M  END
> <minimizedAffinity>
15.15850

> <CNNscore>
0.0966780782

> <CNNaffinity>
5.3771123886

> <CNN_VS>
0.5198488832

> <CNNaffinity_variance>
0.1757273972

$$$$
[H]c1c([H])c([H])c2c(c1[H])c1c3c(c4c5c([H])c([H])c([H])c([H])c5n5c4c1n2[C@@]1(C([H])([H])[H])O[C@]5([H])C([H])([H])[C@@]([H])(N([H])C([H])([H])[H])[C@@]1([H])OC([H])([H])[H])C(=O)N([H])C3([H])[H]


 37 44  0  0  0  0  0  0  0  0999 V2000
  -89.8740   31.6258   -4.5722 C   0  0  0  0  0  0  0  0  0  0  0  0
  -89.1430   32.4051   -3.5713 C   0  0  0  0  0  0  0  0  0  0  0  0
  -89.6985   32.2722   -2.2089 C   0  0  0  0  0  0  0  0  0  0  0  0
  -90.8845   31.7721   -1.9897 O   0  0  0  0  0  0  0  0  0  0  0  0
  -91.4263   30.7432   -2.7553 C   0  0  0  0  0  0  0  0  0  0  0  0
  -92.9176   30.9027   -2.4307 C   0  0  0  0  0  0  0  0  0  0  0  0
  -91.1786   30.9981   -4.1691 C   0  0  0  0  0  0  0  0  0  0  0  0
  -90.8974   29.4694   -2.2367 N   0  0  0  0  0  0  0  0  0  0  0  0
  -91.4589   28.2639   -2.3060 C   0  0  0  0  0  0  0  0  0  0  0  0
  -92.6161   27.8096   -2.8749 C   0  0  0  0  0  0  0  0  0  0  0  0
  -92.9816   26.4836   -2.8116 C   0  0  0  0  0  0  0  0  0  0  0  0
  -92.1795   25.5419   -2.1594 C   0  0  0  0  0  0  0  0  0  0  0  0
  -91.0277   25.9888   -1.5927 C   0  0  0  0  0  0  0  0  0  0  0  0
  -90.6747   27.3104   -1.6622 C   0  0  0  0  0  0  0  0  0  0  0  0
  -89.5807   27.9803   -1.1816 C   0  0  0  0  0  0  0  0  0  0  0  0
  -88.4542   27.5819   -0.4584 C   0  0  0  0  0  0  0  0  0  0  0  0
  -88.0702   26.2423    0.0424 C   0  0  0  0  0  0  0  0  0  0  0  0
  -86.8239   26.3897    0.7188 N   0  0  0  0  0  0  0  0  0  0  0  0
  -86.4381   27.7663    0.6483 C   0  0  0  0  0  0  0  0  0  0  0  0
  -85.3890   28.1600    1.1616 O   0  0  0  0  0  0  0  0  0  0  0  0
  -87.4618   28.4869   -0.0850 C   0  0  0  0  0  0  0  0  0  0  0  0
  -87.6409   29.7984   -0.4634 C   0  0  0  0  0  0  0  0  0  0  0  0
  -86.9052   30.9589   -0.3053 C   0  0  0  0  0  0  0  0  0  0  0  0
  -85.7139   31.2251    0.3091 C   0  0  0  0  0  0  0  0  0  0  0  0
  -85.2239   32.5163    0.2989 C   0  0  0  0  0  0  0  0  0  0  0  0
  -85.9171   33.5263   -0.3178 C   0  0  0  0  0  0  0  0  0  0  0  0
  -87.1192   33.2728   -0.9410 C   0  0  0  0  0  0  0  0  0  0  0  0
  -87.5958   31.9917   -0.9255 C   0  0  0  0  0  0  0  0  0  0  0  0
  -88.7022   31.4984   -1.4410 N   0  0  0  0  0  0  0  0  0  0  0  0
  -88.7783   30.1893   -1.1911 C   0  0  0  0  0  0  0  0  0  0  0  0
  -89.7541   29.2754   -1.5505 C   0  0  0  0  0  0  0  0  0  0  0  0
  -86.3017   25.6078    1.1797 H   0  0  0  0  0  0  0  0  0  0  0  0
  -87.5892   30.8988   -4.6772 C   0  0  0  0  0  0  0  0  0  0  0  0
  -88.9451   30.6010   -5.1003 N   0  0  0  0  0  0  0  0  0  0  0  0
  -89.1648   29.6608   -4.7073 H   0  0  0  0  0  0  0  0  0  0  0  0
  -91.3055   29.9064   -5.0250 O   0  0  0  0  0  0  0  0  0  0  0  0
  -92.5391   29.8510   -5.6620 C   0  0  0  0  0  0  0  0  0  0  0  0
 33 34  1  0  0  0
 34  1  1  0  0  0
  1  2  1  0  0  0
  2  3  1  0  0  0
  3  4  1  0  0  0
  4  5  1  0  0  0
  5  6  1  0  0  0
  5  7  1  0  0  0
  7 36  1  0  0  0
 36 37  1  0  0  0
  5  8  1  0  0  0
  8  9  1  0  0  0
  9 10  2  0  0  0
 10 11  1  0  0  0
 11 12  2  0  0  0
 12 13  1  0  0  0
 13 14  2  0  0  0
 14 15  1  0  0  0
 15 16  2  0  0  0
 16 17  1  0  0  0
 17 18  1  0  0  0
 18 19  1  0  0  0
 19 20  2  0  0  0
 19 21  1  0  0  0
 21 22  2  0  0  0
 22 23  1  0  0  0
 23 24  2  0  0  0
 24 25  1  0  0  0
 25 26  2  0  0  0
 26 27  1  0  0  0
 27 28  2  0  0  0
 28 29  1  0  0  0
 29 30  1  0  0  0
 30 31  2  0  0  0
  7  1  1  0  0  0
 31  8  1  0  0  0
 29  3  1  0  0  0
 14  9  1  0  0  0
 31 15  1  0  0  0
 21 16  1  0  0  0
 30 22  1  0  0  0
 28 23  1  0  0  0
 34 35  1  0  0  0
 18 32  1  0  0  0
M  END
> <minimizedAffinity>
-9.51048

> <CNNscore>
0.0790762007

> <CNNaffinity>
5.8634591103

> <CNN_VS>
0.4636600614

> <CNNaffinity_variance>
0.2390207052

$$$$
[H]c1c([H])c([H])c2c(c1[H])c1c3c(c4c5c([H])c([H])c([H])c([H])c5n5c4c1n2[C@@]1(C([H])([H])[H])O[C@]5([H])C([H])([H])[C@@]([H])(N([H])C([H])([H])[H])[C@@]1([H])OC([H])([H])[H])C(=O)N([H])C3([H])[H]


 37 44  0  0  0  0  0  0  0  0999 V2000
  -86.5306   29.9788   -0.7796 C   0  0  0  0  0  0  0  0  0  0  0  0
  -86.7719   30.6390   -2.0639 C   0  0  0  0  0  0  0  0  0  0  0  0
  -87.3575   29.7410   -3.0804 C   0  0  0  0  0  0  0  0  0  0  0  0
  -87.3606   28.4430   -2.9393 O   0  0  0  0  0  0  0  0  0  0  0  0
  -87.5066   27.8153   -1.7051 C   0  0  0  0  0  0  0  0  0  0  0  0
  -86.9473   26.4231   -2.0267 C   0  0  0  0  0  0  0  0  0  0  0  0
  -86.6770   28.4847   -0.7107 C   0  0  0  0  0  0  0  0  0  0  0  0
  -88.9464   27.7573   -1.3970 N   0  0  0  0  0  0  0  0  0  0  0  0
  -89.5810   26.8769   -0.6253 C   0  0  0  0  0  0  0  0  0  0  0  0
  -89.1489   25.8215    0.1288 C   0  0  0  0  0  0  0  0  0  0  0  0
  -90.0232   25.0475    0.8584 C   0  0  0  0  0  0  0  0  0  0  0  0
  -91.3966   25.3107    0.8582 C   0  0  0  0  0  0  0  0  0  0  0  0
  -91.8308   26.3594    0.1103 C   0  0  0  0  0  0  0  0  0  0  0  0
  -90.9515   27.1223   -0.6113 C   0  0  0  0  0  0  0  0  0  0  0  0
  -91.1504   28.2116   -1.4177 C   0  0  0  0  0  0  0  0  0  0  0  0
  -92.2877   28.9265   -1.7997 C   0  0  0  0  0  0  0  0  0  0  0  0
  -93.7081   28.7198   -1.4353 C   0  0  0  0  0  0  0  0  0  0  0  0
  -94.4622   29.7306   -2.1000 N   0  0  0  0  0  0  0  0  0  0  0  0
  -93.5547   30.5413   -2.8536 C   0  0  0  0  0  0  0  0  0  0  0  0
  -93.9586   31.4930   -3.5247 O   0  0  0  0  0  0  0  0  0  0  0  0
  -92.2132   30.0259   -2.6536 C   0  0  0  0  0  0  0  0  0  0  0  0
  -90.9620   30.3792   -3.1059 C   0  0  0  0  0  0  0  0  0  0  0  0
  -90.4787   31.3813   -3.9277 C   0  0  0  0  0  0  0  0  0  0  0  0
  -91.0892   32.3960   -4.6099 C   0  0  0  0  0  0  0  0  0  0  0  0
  -90.3196   33.2590   -5.3653 C   0  0  0  0  0  0  0  0  0  0  0  0
  -88.9584   33.1077   -5.4363 C   0  0  0  0  0  0  0  0  0  0  0  0
  -88.3294   32.0896   -4.7540 C   0  0  0  0  0  0  0  0  0  0  0  0
  -89.0997   31.2408   -4.0092 C   0  0  0  0  0  0  0  0  0  0  0  0
  -88.7455   30.2056   -3.2769 N   0  0  0  0  0  0  0  0  0  0  0  0
  -89.8233   29.6531   -2.7157 C   0  0  0  0  0  0  0  0  0  0  0  0
  -89.9186   28.5625   -1.8683 C   0  0  0  0  0  0  0  0  0  0  0  0
  -95.5015   29.8387   -2.0314 H   0  0  0  0  0  0  0  0  0  0  0  0
  -87.6010   32.0261   -0.1294 C   0  0  0  0  0  0  0  0  0  0  0  0
  -87.3998   30.6332    0.2247 N   0  0  0  0  0  0  0  0  0  0  0  0
  -88.3492   30.2028    0.2331 H   0  0  0  0  0  0  0  0  0  0  0  0
  -86.9923   28.2385    0.6236 O   0  0  0  0  0  0  0  0  0  0  0  0
  -85.9670   27.6124    1.3216 C   0  0  0  0  0  0  0  0  0  0  0  0
 33 34  1  0  0  0
 34  1  1  0  0  0
  1  2  1  0  0  0
  2  3  1  0  0  0
  3  4  1  0  0  0
  4  5  1  0  0  0
  5  6  1  0  0  0
  5  7  1  0  0  0
  7 36  1  0  0  0
 36 37  1  0  0  0
  5  8  1  0  0  0
  8  9  1  0  0  0
  9 10  2  0  0  0
 10 11  1  0  0  0
 11 12  2  0  0  0
 12 13  1  0  0  0
 13 14  2  0  0  0
 14 15  1  0  0  0
 15 16  2  0  0  0
 16 17  1  0  0  0
 17 18  1  0  0  0
 18 19  1  0  0  0
 19 20  2  0  0  0
 19 21  1  0  0  0
 21 22  2  0  0  0
 22 23  1  0  0  0
 23 24  2  0  0  0
 24 25  1  0  0  0
 25 26  2  0  0  0
 26 27  1  0  0  0
 27 28  2  0  0  0
 28 29  1  0  0  0
 29 30  1  0  0  0
 30 31  2  0  0  0
  7  1  1  0  0  0
 31  8  1  0  0  0
 29  3  1  0  0  0
 14  9  1  0  0  0
 31 15  1  0  0  0
 21 16  1  0  0  0
 30 22  1  0  0  0
 28 23  1  0  0  0
 34 35  1  0  0  0
 18 32  1  0  0  0
M  END
> <minimizedAffinity>
-4.41110

> <CNNscore>
0.0725894645

> <CNNaffinity>
5.4776391983

> <CNN_VS>
0.3976188898

> <CNNaffinity_variance>
0.1681821644

$$$$
[H]c1sc(-c2c([H])c([H])c3c(c2[H])C([H])([H])C([H])([H])O3)nc1C(=O)N([H])c1nc2c([H])c(C(=O)OC([H])([H])C([H])([H])[H])c([H])c([H])c2n1[H]


 33 37  0  0  0  0  0  0  0  0999 V2000
  -87.2614   32.5827   -2.1106 N   0  0  0  0  0  0  0  0  0  0  0  0
  -86.4315   32.5953   -0.9594 C   0  0  0  0  0  0  0  0  0  0  0  0
  -85.9396   33.6742   -0.5710 O   0  0  0  0  0  0  0  0  0  0  0  0
  -87.7010   31.7071   -2.4820 H   0  0  0  0  0  0  0  0  0  0  0  0
  -88.8959   37.7047   -4.6949 C   0  0  0  0  0  0  0  0  0  0  0  0
  -87.6217   37.6373   -5.1861 C   0  0  0  0  0  0  0  0  0  0  0  0
  -86.7425   36.5943   -4.8890 C   0  0  0  0  0  0  0  0  0  0  0  0
  -87.2177   35.5997   -4.0548 C   0  0  0  0  0  0  0  0  0  0  0  0
  -86.6453   34.4826   -3.5818 N   0  0  0  0  0  0  0  0  0  0  0  0
  -87.5082   33.8115   -2.7915 C   0  0  0  0  0  0  0  0  0  0  0  0
  -88.6352   34.5477   -2.7889 N   0  0  0  0  0  0  0  0  0  0  0  0
  -88.5080   35.6507   -3.5464 C   0  0  0  0  0  0  0  0  0  0  0  0
  -89.3446   36.7025   -3.8670 C   0  0  0  0  0  0  0  0  0  0  0  0
  -85.6617   34.1407   -3.7759 H   0  0  0  0  0  0  0  0  0  0  0  0
  -89.7900   38.8250   -5.0351 C   0  0  0  0  0  0  0  0  0  0  0  0
  -90.3344   39.5208   -4.1500 O   0  0  0  0  0  0  0  0  0  0  0  0
  -90.0629   39.1520   -6.3553 O   0  0  0  0  0  0  0  0  0  0  0  0
  -89.8019   37.6883   -8.2813 C   0  0  0  0  0  0  0  0  0  0  0  0
  -90.7220   38.2825   -7.2497 C   0  0  0  0  0  0  0  0  0  0  0  0
  -86.1263   31.3559   -0.1944 C   0  0  0  0  0  0  0  0  0  0  0  0
  -84.9533   31.1997    0.5048 C   0  0  0  0  0  0  0  0  0  0  0  0
  -85.1449   29.6362    1.1632 S   0  0  0  0  0  0  0  0  0  0  0  0
  -86.6820   29.2749    0.5221 C   0  0  0  0  0  0  0  0  0  0  0  0
  -86.9678   30.3649   -0.1598 N   0  0  0  0  0  0  0  0  0  0  0  0
  -87.4945   28.0498    0.6859 C   0  0  0  0  0  0  0  0  0  0  0  0
  -87.8457   27.3251   -0.4029 C   0  0  0  0  0  0  0  0  0  0  0  0
  -88.6100   26.1762   -0.2278 C   0  0  0  0  0  0  0  0  0  0  0  0
  -88.9971   25.7924    1.0388 C   0  0  0  0  0  0  0  0  0  0  0  0
  -89.7556   24.6995    1.4940 O   0  0  0  0  0  0  0  0  0  0  0  0
  -90.2933   25.0680    2.7628 C   0  0  0  0  0  0  0  0  0  0  0  0
  -89.1808   25.8952    3.3351 C   0  0  0  0  0  0  0  0  0  0  0  0
  -88.6185   26.5571    2.1162 C   0  0  0  0  0  0  0  0  0  0  0  0
  -87.8693   27.6827    1.9400 C   0  0  0  0  0  0  0  0  0  0  0  0
 18 19  1  0  0  0
 19 17  1  0  0  0
 17 15  1  0  0  0
 15 16  2  0  0  0
 15  5  1  0  0  0
  5  6  2  0  0  0
  6  7  1  0  0  0
  7  8  2  0  0  0
  8  9  1  0  0  0
  9 10  1  0  0  0
 10  1  1  0  0  0
  1  2  1  0  0  0
  2  3  2  0  0  0
  2 20  1  0  0  0
 20 21  2  0  0  0
 21 22  1  0  0  0
 22 23  1  0  0  0
 23 24  2  0  0  0
 23 25  1  0  0  0
 25 26  2  0  0  0
 26 27  1  0  0  0
 27 28  2  0  0  0
 28 29  1  0  0  0
 29 30  1  0  0  0
 30 31  1  0  0  0
 31 32  1  0  0  0
 32 33  2  0  0  0
 10 11  2  0  0  0
 11 12  1  0  0  0
 12 13  2  0  0  0
 13  5  1  0  0  0
 12  8  1  0  0  0
 24 20  1  0  0  0
 33 25  1  0  0  0
 32 28  1  0  0  0
  9 14  1  0  0  0
  1  4  1  0  0  0
M  END
> <minimizedAffinity>
-7.37191

> <CNNscore>
0.1415141076

> <CNNaffinity>
6.0031404495

> <CNN_VS>
0.8495290875

> <CNNaffinity_variance>
0.1416955441

$$$$
[H]c1sc(-c2c([H])c([H])c3c(c2[H])C([H])([H])C([H])([H])O3)nc1C(=O)N([H])c1nc2c([H])c(C(=O)OC([H])([H])C([H])([H])[H])c([H])c([H])c2n1[H]


 33 37  0  0  0  0  0  0  0  0999 V2000
  -88.8363   26.2629   -1.7092 N   0  0  0  0  0  0  0  0  0  0  0  0
  -89.9630   25.6087   -1.1464 C   0  0  0  0  0  0  0  0  0  0  0  0
  -90.1218   25.6183    0.0911 O   0  0  0  0  0  0  0  0  0  0  0  0
  -88.6523   26.2871   -2.7404 H   0  0  0  0  0  0  0  0  0  0  0  0
  -85.0770   29.5280    1.5759 C   0  0  0  0  0  0  0  0  0  0  0  0
  -84.9609   28.3505    2.2609 C   0  0  0  0  0  0  0  0  0  0  0  0
  -85.6542   27.1907    1.9096 C   0  0  0  0  0  0  0  0  0  0  0  0
  -86.4890   27.2746    0.8109 C   0  0  0  0  0  0  0  0  0  0  0  0
  -87.2803   26.3669    0.2200 N   0  0  0  0  0  0  0  0  0  0  0  0
  -87.9153   26.9147   -0.8366 C   0  0  0  0  0  0  0  0  0  0  0  0
  -87.4927   28.1920   -0.8830 N   0  0  0  0  0  0  0  0  0  0  0  0
  -86.6198   28.4610    0.1030 C   0  0  0  0  0  0  0  0  0  0  0  0
  -85.9141   29.5853    0.4863 C   0  0  0  0  0  0  0  0  0  0  0  0
  -87.4157   25.3569    0.5092 H   0  0  0  0  0  0  0  0  0  0  0  0
  -84.3256   30.7283    1.9825 C   0  0  0  0  0  0  0  0  0  0  0  0
  -84.8271   31.5909    2.7363 O   0  0  0  0  0  0  0  0  0  0  0  0
  -83.0284   30.9478    1.5430 O   0  0  0  0  0  0  0  0  0  0  0  0
  -83.1542   32.5794   -0.2575 C   0  0  0  0  0  0  0  0  0  0  0  0
  -82.7002   31.2192    0.1980 C   0  0  0  0  0  0  0  0  0  0  0  0
  -90.9687   24.9066   -1.9892 C   0  0  0  0  0  0  0  0  0  0  0  0
  -91.2174   23.5610   -1.8606 C   0  0  0  0  0  0  0  0  0  0  0  0
  -92.4239   23.3144   -3.0430 S   0  0  0  0  0  0  0  0  0  0  0  0
  -92.5422   24.9117   -3.6252 C   0  0  0  0  0  0  0  0  0  0  0  0
  -91.6560   25.5483   -2.8877 N   0  0  0  0  0  0  0  0  0  0  0  0
  -93.4164   25.4525   -4.6888 C   0  0  0  0  0  0  0  0  0  0  0  0
  -94.1964   24.6127   -5.4102 C   0  0  0  0  0  0  0  0  0  0  0  0
  -95.0114   25.1408   -6.4060 C   0  0  0  0  0  0  0  0  0  0  0  0
  -95.0158   26.4988   -6.6446 C   0  0  0  0  0  0  0  0  0  0  0  0
  -95.7271   27.2836   -7.5694 O   0  0  0  0  0  0  0  0  0  0  0  0
  -94.9823   28.4864   -7.7516 C   0  0  0  0  0  0  0  0  0  0  0  0
  -94.4304   28.7130   -6.3757 C   0  0  0  0  0  0  0  0  0  0  0  0
  -94.2086   27.3151   -5.8889 C   0  0  0  0  0  0  0  0  0  0  0  0
  -93.4112   26.7932   -4.9137 C   0  0  0  0  0  0  0  0  0  0  0  0
 18 19  1  0  0  0
 19 17  1  0  0  0
 17 15  1  0  0  0
 15 16  2  0  0  0
 15  5  1  0  0  0
  5  6  2  0  0  0
  6  7  1  0  0  0
  7  8  2  0  0  0
  8  9  1  0  0  0
  9 10  1  0  0  0
 10  1  1  0  0  0
  1  2  1  0  0  0
  2  3  2  0  0  0
  2 20  1  0  0  0
 20 21  2  0  0  0
 21 22  1  0  0  0
 22 23  1  0  0  0
 23 24  2  0  0  0
 23 25  1  0  0  0
 25 26  2  0  0  0
 26 27  1  0  0  0
 27 28  2  0  0  0
 28 29  1  0  0  0
 29 30  1  0  0  0
 30 31  1  0  0  0
 31 32  1  0  0  0
 32 33  2  0  0  0
 10 11  2  0  0  0
 11 12  1  0  0  0
 12 13  2  0  0  0
 13  5  1  0  0  0
 12  8  1  0  0  0
 24 20  1  0  0  0
 33 25  1  0  0  0
 32 28  1  0  0  0
  9 14  1  0  0  0
  1  4  1  0  0  0
M  END
> <minimizedAffinity>
-7.99935

> <CNNscore>
0.1326718330

> <CNNaffinity>
5.4274625778

> <CNN_VS>
0.7200714350

> <CNNaffinity_variance>
0.2837923169

$$$$
[H]c1sc(-c2c([H])c([H])c3c(c2[H])C([H])([H])C([H])([H])O3)nc1C(=O)N([H])c1nc2c([H])c(C(=O)OC([H])([H])C([H])([H])[H])c([H])c([H])c2n1[H]


 33 37  0  0  0  0  0  0  0  0999 V2000
  -88.3728   31.3367   -1.8068 N   0  0  0  0  0  0  0  0  0  0  0  0
  -88.4260   30.2003   -2.6554 C   0  0  0  0  0  0  0  0  0  0  0  0
  -88.5099   30.3613   -3.8898 O   0  0  0  0  0  0  0  0  0  0  0  0
  -88.3022   31.2618   -0.7641 H   0  0  0  0  0  0  0  0  0  0  0  0
  -87.9030   36.7375   -4.2958 C   0  0  0  0  0  0  0  0  0  0  0  0
  -89.2654   36.6890   -4.1929 C   0  0  0  0  0  0  0  0  0  0  0  0
  -89.9528   35.5991   -3.6555 C   0  0  0  0  0  0  0  0  0  0  0  0
  -89.1857   34.5361   -3.2166 C   0  0  0  0  0  0  0  0  0  0  0  0
  -89.5220   33.3621   -2.6616 N   0  0  0  0  0  0  0  0  0  0  0  0
  -88.4174   32.6350   -2.3959 C   0  0  0  0  0  0  0  0  0  0  0  0
  -87.3840   33.3952   -2.8036 N   0  0  0  0  0  0  0  0  0  0  0  0
  -87.8017   34.5670   -3.3127 C   0  0  0  0  0  0  0  0  0  0  0  0
  -87.1628   35.6670   -3.8519 C   0  0  0  0  0  0  0  0  0  0  0  0
  -90.5003   33.0173   -2.4465 H   0  0  0  0  0  0  0  0  0  0  0  0
  -87.2191   37.9092   -4.8703 C   0  0  0  0  0  0  0  0  0  0  0  0
  -87.7196   39.0538   -4.8116 O   0  0  0  0  0  0  0  0  0  0  0  0
  -85.9894   37.7868   -5.5004 O   0  0  0  0  0  0  0  0  0  0  0  0
  -84.0091   38.9335   -6.3270 C   0  0  0  0  0  0  0  0  0  0  0  0
  -84.8561   38.5480   -5.1447 C   0  0  0  0  0  0  0  0  0  0  0  0
  -88.3846   28.8132   -2.1182 C   0  0  0  0  0  0  0  0  0  0  0  0
  -87.3796   28.3825   -1.2854 C   0  0  0  0  0  0  0  0  0  0  0  0
  -87.8355   26.7628   -0.9967 S   0  0  0  0  0  0  0  0  0  0  0  0
  -89.2564   26.7252   -1.9368 C   0  0  0  0  0  0  0  0  0  0  0  0
  -89.3082   27.9490   -2.4209 N   0  0  0  0  0  0  0  0  0  0  0  0
  -90.1973   25.6054   -2.1575 C   0  0  0  0  0  0  0  0  0  0  0  0
  -89.8652   24.3575   -1.7497 C   0  0  0  0  0  0  0  0  0  0  0  0
  -90.7636   23.3179   -1.9663 C   0  0  0  0  0  0  0  0  0  0  0  0
  -91.9693   23.5674   -2.5870 C   0  0  0  0  0  0  0  0  0  0  0  0
  -93.0404   22.7211   -2.9242 O   0  0  0  0  0  0  0  0  0  0  0  0
  -93.7503   23.3545   -3.9870 C   0  0  0  0  0  0  0  0  0  0  0  0
  -93.6221   24.8022   -3.6172 C   0  0  0  0  0  0  0  0  0  0  0  0
  -92.2662   24.8490   -2.9848 C   0  0  0  0  0  0  0  0  0  0  0  0
  -91.3826   25.8651   -2.7705 C   0  0  0  0  0  0  0  0  0  0  0  0
 18 19  1  0  0  0
 19 17  1  0  0  0
 17 15  1  0  0  0
 15 16  2  0  0  0
 15  5  1  0  0  0
  5  6  2  0  0  0
  6  7  1  0  0  0
  7  8  2  0  0  0
  8  9  1  0  0  0
  9 10  1  0  0  0
 10  1  1  0  0  0
  1  2  1  0  0  0
  2  3  2  0  0  0
  2 20  1  0  0  0
 20 21  2  0  0  0
 21 22  1  0  0  0
 22 23  1  0  0  0
 23 24  2  0  0  0
 23 25  1  0  0  0
 25 26  2  0  0  0
 26 27  1  0  0  0
 27 28  2  0  0  0
 28 29  1  0  0  0
 29 30  1  0  0  0
 30 31  1  0  0  0
 31 32  1  0  0  0
 32 33  2  0  0  0
 10 11  2  0  0  0
 11 12  1  0  0  0
 12 13  2  0  0  0
 13  5  1  0  0  0
 12  8  1  0  0  0
 24 20  1  0  0  0
 33 25  1  0  0  0
 32 28  1  0  0  0
  9 14  1  0  0  0
  1  4  1  0  0  0
M  END
> <minimizedAffinity>
-6.96907

> <CNNscore>
0.0850631520

> <CNNaffinity>
5.2513699532

> <CNN_VS>
0.4466980696

> <CNNaffinity_variance>
0.1838685572

$$$$
[H]c1sc(-c2c([H])c([H])c3c(c2[H])C([H])([H])C([H])([H])O3)nc1C(=O)N([H])c1nc2c([H])c(C(=O)OC([H])([H])C([H])([H])[H])c([H])c([H])c2n1[H]


 33 37  0  0  0  0  0  0  0  0999 V2000
  -90.3024   28.7666   -2.6508 N   0  0  0  0  0  0  0  0  0  0  0  0
  -90.7419   30.1111   -2.5354 C   0  0  0  0  0  0  0  0  0  0  0  0
  -91.9652   30.3562   -2.5203 O   0  0  0  0  0  0  0  0  0  0  0  0
  -89.2888   28.5018   -2.6688 H   0  0  0  0  0  0  0  0  0  0  0  0
  -94.0754   24.2437   -3.5961 C   0  0  0  0  0  0  0  0  0  0  0  0
  -94.6448   24.7363   -2.4548 C   0  0  0  0  0  0  0  0  0  0  0  0
  -94.1466   25.8461   -1.7699 C   0  0  0  0  0  0  0  0  0  0  0  0
  -93.0222   26.4504   -2.3007 C   0  0  0  0  0  0  0  0  0  0  0  0
  -92.3061   27.5114   -1.8999 N   0  0  0  0  0  0  0  0  0  0  0  0
  -91.2794   27.7317   -2.7467 C   0  0  0  0  0  0  0  0  0  0  0  0
  -91.3809   26.7732   -3.6864 N   0  0  0  0  0  0  0  0  0  0  0  0
  -92.4303   25.9650   -3.4581 C   0  0  0  0  0  0  0  0  0  0  0  0
  -92.9574   24.8630   -4.1037 C   0  0  0  0  0  0  0  0  0  0  0  0
  -92.4863   28.1157   -1.0487 H   0  0  0  0  0  0  0  0  0  0  0  0
  -94.6355   23.0689   -4.2864 C   0  0  0  0  0  0  0  0  0  0  0  0
  -94.1185   21.9356   -4.1753 O   0  0  0  0  0  0  0  0  0  0  0  0
  -95.7618   23.1756   -5.0890 O   0  0  0  0  0  0  0  0  0  0  0  0
  -95.1770   24.1129   -7.2568 C   0  0  0  0  0  0  0  0  0  0  0  0
  -95.9758   24.2414   -5.9882 C   0  0  0  0  0  0  0  0  0  0  0  0
  -89.7856   31.2464   -2.4309 C   0  0  0  0  0  0  0  0  0  0  0  0
  -90.0387   32.4694   -3.0048 C   0  0  0  0  0  0  0  0  0  0  0  0
  -88.6424   33.3526   -2.5747 S   0  0  0  0  0  0  0  0  0  0  0  0
  -87.8281   32.1357   -1.7029 C   0  0  0  0  0  0  0  0  0  0  0  0
  -88.6634   31.1207   -1.7857 N   0  0  0  0  0  0  0  0  0  0  0  0
  -86.5158   32.1971   -1.0232 C   0  0  0  0  0  0  0  0  0  0  0  0
  -85.6562   33.2035   -1.3100 C   0  0  0  0  0  0  0  0  0  0  0  0
  -84.4271   33.2436   -0.6602 C   0  0  0  0  0  0  0  0  0  0  0  0
  -84.1014   32.2687    0.2589 C   0  0  0  0  0  0  0  0  0  0  0  0
  -82.9524   32.0706    1.0449 O   0  0  0  0  0  0  0  0  0  0  0  0
  -82.9157   30.6855    1.3834 C   0  0  0  0  0  0  0  0  0  0  0  0
  -84.3738   30.3735    1.5442 C   0  0  0  0  0  0  0  0  0  0  0  0
  -85.0034   31.2652    0.5201 C   0  0  0  0  0  0  0  0  0  0  0  0
  -86.2073   31.2296   -0.1193 C   0  0  0  0  0  0  0  0  0  0  0  0
 18 19  1  0  0  0
 19 17  1  0  0  0
 17 15  1  0  0  0
 15 16  2  0  0  0
 15  5  1  0  0  0
  5  6  2  0  0  0
  6  7  1  0  0  0
  7  8  2  0  0  0
  8  9  1  0  0  0
  9 10  1  0  0  0
 10  1  1  0  0  0
  1  2  1  0  0  0
  2  3  2  0  0  0
  2 20  1  0  0  0
 20 21  2  0  0  0
 21 22  1  0  0  0
 22 23  1  0  0  0
 23 24  2  0  0  0
 23 25  1  0  0  0
 25 26  2  0  0  0
 26 27  1  0  0  0
 27 28  2  0  0  0
 28 29  1  0  0  0
 29 30  1  0  0  0
 30 31  1  0  0  0
 31 32  1  0  0  0
 32 33  2  0  0  0
 10 11  2  0  0  0
 11 12  1  0  0  0
 12 13  2  0  0  0
 13  5  1  0  0  0
 12  8  1  0  0  0
 24 20  1  0  0  0
 33 25  1  0  0  0
 32 28  1  0  0  0
  9 14  1  0  0  0
  1  4  1  0  0  0
M  END
> <minimizedAffinity>
-7.05184

> <CNNscore>
0.0845845863

> <CNNaffinity>
5.8045411110

> <CNN_VS>
0.4909746945

> <CNNaffinity_variance>
0.3850078285

$$$$
[H]c1sc(-c2c([H])c([H])c3c(c2[H])C([H])([H])C([H])([H])O3)nc1C(=O)N([H])c1nc2c([H])c(C(=O)OC([H])([H])C([H])([H])[H])c([H])c([H])c2n1[H]


 33 37  0  0  0  0  0  0  0  0999 V2000
  -89.5599   27.0266   -2.7540 N   0  0  0  0  0  0  0  0  0  0  0  0
  -90.9206   26.9727   -2.3544 C   0  0  0  0  0  0  0  0  0  0  0  0
  -91.2375   27.3502   -1.2082 O   0  0  0  0  0  0  0  0  0  0  0  0
  -89.2361   26.7231   -3.7032 H   0  0  0  0  0  0  0  0  0  0  0  0
  -85.3693   29.5250    0.6785 C   0  0  0  0  0  0  0  0  0  0  0  0
  -85.7443   28.5222    1.5288 C   0  0  0  0  0  0  0  0  0  0  0  0
  -86.7372   27.5903    1.2205 C   0  0  0  0  0  0  0  0  0  0  0  0
  -87.3485   27.7190   -0.0127 C   0  0  0  0  0  0  0  0  0  0  0  0
  -88.3176   27.0069   -0.6069 N   0  0  0  0  0  0  0  0  0  0  0  0
  -88.5917   27.5135   -1.8267 C   0  0  0  0  0  0  0  0  0  0  0  0
  -87.7615   28.5633   -1.9710 N   0  0  0  0  0  0  0  0  0  0  0  0
  -86.9814   28.7302   -0.8892 C   0  0  0  0  0  0  0  0  0  0  0  0
  -85.9929   29.6312   -0.5426 C   0  0  0  0  0  0  0  0  0  0  0  0
  -88.8207   26.1630   -0.2109 H   0  0  0  0  0  0  0  0  0  0  0  0
  -84.3156   30.4870    1.0456 C   0  0  0  0  0  0  0  0  0  0  0  0
  -84.2737   31.0113    2.1802 O   0  0  0  0  0  0  0  0  0  0  0  0
  -83.3261   30.8489    0.1433 O   0  0  0  0  0  0  0  0  0  0  0  0
  -83.9152   33.0451   -0.7226 C   0  0  0  0  0  0  0  0  0  0  0  0
  -82.8919   32.1787   -0.0400 C   0  0  0  0  0  0  0  0  0  0  0  0
  -91.9898   26.4776   -3.2634 C   0  0  0  0  0  0  0  0  0  0  0  0
  -92.4360   25.1782   -3.2259 C   0  0  0  0  0  0  0  0  0  0  0  0
  -93.6262   25.1823   -4.4499 S   0  0  0  0  0  0  0  0  0  0  0  0
  -93.4912   26.8110   -4.9328 C   0  0  0  0  0  0  0  0  0  0  0  0
  -92.5463   27.2654   -4.1357 N   0  0  0  0  0  0  0  0  0  0  0  0
  -94.2418   27.5366   -5.9807 C   0  0  0  0  0  0  0  0  0  0  0  0
  -94.9670   26.8435   -6.8906 C   0  0  0  0  0  0  0  0  0  0  0  0
  -95.6658   27.5442   -7.8681 C   0  0  0  0  0  0  0  0  0  0  0  0
  -95.6128   28.9217   -7.8991 C   0  0  0  0  0  0  0  0  0  0  0  0
  -96.2091   29.8615   -8.7583 O   0  0  0  0  0  0  0  0  0  0  0  0
  -95.4202   31.0477   -8.6864 C   0  0  0  0  0  0  0  0  0  0  0  0
  -95.0021   31.0473   -7.2461 C   0  0  0  0  0  0  0  0  0  0  0  0
  -94.8646   29.5853   -6.9564 C   0  0  0  0  0  0  0  0  0  0  0  0
  -94.1810   28.8945   -5.9999 C   0  0  0  0  0  0  0  0  0  0  0  0
 18 19  1  0  0  0
 19 17  1  0  0  0
 17 15  1  0  0  0
 15 16  2  0  0  0
 15  5  1  0  0  0
  5  6  2  0  0  0
  6  7  1  0  0  0
  7  8  2  0  0  0
  8  9  1  0  0  0
  9 10  1  0  0  0
 10  1  1  0  0  0
  1  2  1  0  0  0
  2  3  2  0  0  0
  2 20  1  0  0  0
 20 21  2  0  0  0
 21 22  1  0  0  0
 22 23  1  0  0  0
 23 24  2  0  0  0
 23 25  1  0  0  0
 25 26  2  0  0  0
 26 27  1  0  0  0
 27 28  2  0  0  0
 28 29  1  0  0  0
 29 30  1  0  0  0
 30 31  1  0  0  0
 31 32  1  0  0  0
 32 33  2  0  0  0
 10 11  2  0  0  0
 11 12  1  0  0  0
 12 13  2  0  0  0
 13  5  1  0  0  0
 12  8  1  0  0  0
 24 20  1  0  0  0
 33 25  1  0  0  0
 32 28  1  0  0  0
  9 14  1  0  0  0
  1  4  1  0  0  0
M  END
> <minimizedAffinity>
-7.42067

> <CNNscore>
0.0840705261

> <CNNaffinity>
5.3208990097

> <CNN_VS>
0.4473307729

> <CNNaffinity_variance>
0.1507600844

$$$$
[H]c1sc(-c2c([H])c([H])c3c(c2[H])C([H])([H])C([H])([H])O3)nc1C(=O)N([H])c1nc2c([H])c(C(=O)OC([H])([H])C([H])([H])[H])c([H])c([H])c2n1[H]


 33 37  0  0  0  0  0  0  0  0999 V2000
  -87.4515   32.0141   -0.6312 N   0  0  0  0  0  0  0  0  0  0  0  0
  -87.4470   30.6473   -1.0135 C   0  0  0  0  0  0  0  0  0  0  0  0
  -87.6967   30.3418   -2.1972 O   0  0  0  0  0  0  0  0  0  0  0  0
  -87.2494   32.3289    0.3475 H   0  0  0  0  0  0  0  0  0  0  0  0
  -89.3020   36.0804   -4.5841 C   0  0  0  0  0  0  0  0  0  0  0  0
  -87.9656   36.1272   -4.8686 C   0  0  0  0  0  0  0  0  0  0  0  0
  -87.0164   35.3429   -4.2105 C   0  0  0  0  0  0  0  0  0  0  0  0
  -87.4873   34.4898   -3.2300 C   0  0  0  0  0  0  0  0  0  0  0  0
  -86.8576   33.6203   -2.4259 N   0  0  0  0  0  0  0  0  0  0  0  0
  -87.7433   33.0013   -1.6186 C   0  0  0  0  0  0  0  0  0  0  0  0
  -88.9437   33.5143   -1.9471 N   0  0  0  0  0  0  0  0  0  0  0  0
  -88.8402   34.4283   -2.9272 C   0  0  0  0  0  0  0  0  0  0  0  0
  -89.7450   35.2232   -3.6043 C   0  0  0  0  0  0  0  0  0  0  0  0
  -85.8179   33.4189   -2.3969 H   0  0  0  0  0  0  0  0  0  0  0  0
  -90.2690   36.9269   -5.3046 C   0  0  0  0  0  0  0  0  0  0  0  0
  -90.4104   38.1388   -5.0306 O   0  0  0  0  0  0  0  0  0  0  0  0
  -91.0621   36.4097   -6.3183 O   0  0  0  0  0  0  0  0  0  0  0  0
  -90.9624   34.2356   -7.4061 C   0  0  0  0  0  0  0  0  0  0  0  0
  -90.5472   35.6817   -7.4117 C   0  0  0  0  0  0  0  0  0  0  0  0
  -87.1522   29.5586   -0.0428 C   0  0  0  0  0  0  0  0  0  0  0  0
  -85.8662   29.1961    0.2793 C   0  0  0  0  0  0  0  0  0  0  0  0
  -86.1291   27.9372    1.4021 S   0  0  0  0  0  0  0  0  0  0  0  0
  -87.8332   27.9428    1.3987 C   0  0  0  0  0  0  0  0  0  0  0  0
  -88.1116   28.9037    0.5420 N   0  0  0  0  0  0  0  0  0  0  0  0
  -88.7685   27.0878    2.1618 C   0  0  0  0  0  0  0  0  0  0  0  0
  -89.1947   27.4824    3.3852 C   0  0  0  0  0  0  0  0  0  0  0  0
  -90.0741   26.6645    4.0869 C   0  0  0  0  0  0  0  0  0  0  0  0
  -90.4974   25.4740    3.5346 C   0  0  0  0  0  0  0  0  0  0  0  0
  -91.3648   24.4767    4.0141 O   0  0  0  0  0  0  0  0  0  0  0  0
  -91.0332   23.2727    3.3249 C   0  0  0  0  0  0  0  0  0  0  0  0
  -90.6665   23.7918    1.9665 C   0  0  0  0  0  0  0  0  0  0  0  0
  -90.0400   25.1120    2.2902 C   0  0  0  0  0  0  0  0  0  0  0  0
  -89.1779   25.9168    1.6058 C   0  0  0  0  0  0  0  0  0  0  0  0
 18 19  1  0  0  0
 19 17  1  0  0  0
 17 15  1  0  0  0
 15 16  2  0  0  0
 15  5  1  0  0  0
  5  6  2  0  0  0
  6  7  1  0  0  0
  7  8  2  0  0  0
  8  9  1  0  0  0
  9 10  1  0  0  0
 10  1  1  0  0  0
  1  2  1  0  0  0
  2  3  2  0  0  0
  2 20  1  0  0  0
 20 21  2  0  0  0
 21 22  1  0  0  0
 22 23  1  0  0  0
 23 24  2  0  0  0
 23 25  1  0  0  0
 25 26  2  0  0  0
 26 27  1  0  0  0
 27 28  2  0  0  0
 28 29  1  0  0  0
 29 30  1  0  0  0
 30 31  1  0  0  0
 31 32  1  0  0  0
 32 33  2  0  0  0
 10 11  2  0  0  0
 11 12  1  0  0  0
 12 13  2  0  0  0
 13  5  1  0  0  0
 12  8  1  0  0  0
 24 20  1  0  0  0
 33 25  1  0  0  0
 32 28  1  0  0  0
  9 14  1  0  0  0
  1  4  1  0  0  0
M  END
> <minimizedAffinity>
-7.53881

> <CNNscore>
0.0732897297

> <CNNaffinity>
5.5798554420

> <CNN_VS>
0.4089460969

> <CNNaffinity_variance>
0.1259469092

$$$$
[H]c1sc(-c2c([H])c([H])c3c(c2[H])C([H])([H])C([H])([H])O3)nc1C(=O)N([H])c1nc2c([H])c(C(=O)OC([H])([H])C([H])([H])[H])c([H])c([H])c2n1[H]


 33 37  0  0  0  0  0  0  0  0999 V2000
  -89.7215   31.2708   -2.7047 N   0  0  0  0  0  0  0  0  0  0  0  0
  -89.0806   30.0305   -2.9596 C   0  0  0  0  0  0  0  0  0  0  0  0
  -88.2383   29.9536   -3.8769 O   0  0  0  0  0  0  0  0  0  0  0  0
  -90.4360   31.3940   -1.9483 H   0  0  0  0  0  0  0  0  0  0  0  0
  -87.7596   36.0426   -5.6989 C   0  0  0  0  0  0  0  0  0  0  0  0
  -88.9035   35.8214   -6.4142 C   0  0  0  0  0  0  0  0  0  0  0  0
  -89.7908   34.7806   -6.1338 C   0  0  0  0  0  0  0  0  0  0  0  0
  -89.4642   33.9543   -5.0748 C   0  0  0  0  0  0  0  0  0  0  0  0
  -90.0849   32.8863   -4.5519 N   0  0  0  0  0  0  0  0  0  0  0  0
  -89.3805   32.3972   -3.5106 C   0  0  0  0  0  0  0  0  0  0  0  0
  -88.3022   33.1959   -3.4035 N   0  0  0  0  0  0  0  0  0  0  0  0
  -88.3076   34.1630   -4.3370 C   0  0  0  0  0  0  0  0  0  0  0  0
  -87.4574   35.2062   -4.6500 C   0  0  0  0  0  0  0  0  0  0  0  0
  -90.9965   32.4571   -4.8789 H   0  0  0  0  0  0  0  0  0  0  0  0
  -86.8514   37.1543   -6.0306 C   0  0  0  0  0  0  0  0  0  0  0  0
  -86.3378   37.2644   -7.1655 O   0  0  0  0  0  0  0  0  0  0  0  0
  -86.5303   38.1248   -5.0929 O   0  0  0  0  0  0  0  0  0  0  0  0
  -87.4375   39.0647   -3.0402 C   0  0  0  0  0  0  0  0  0  0  0  0
  -87.4760   39.0160   -4.5435 C   0  0  0  0  0  0  0  0  0  0  0  0
  -89.3815   28.8098   -2.1634 C   0  0  0  0  0  0  0  0  0  0  0  0
  -89.4367   27.5609   -2.7345 C   0  0  0  0  0  0  0  0  0  0  0  0
  -89.8077   26.5777   -1.3890 S   0  0  0  0  0  0  0  0  0  0  0  0
  -89.8707   27.7916   -0.1945 C   0  0  0  0  0  0  0  0  0  0  0  0
  -89.6057   28.8818   -0.8843 N   0  0  0  0  0  0  0  0  0  0  0  0
  -90.1514   27.6607    1.2519 C   0  0  0  0  0  0  0  0  0  0  0  0
  -90.8433   28.6322    1.8934 C   0  0  0  0  0  0  0  0  0  0  0  0
  -91.0970   28.4906    3.2536 C   0  0  0  0  0  0  0  0  0  0  0  0
  -90.6461   27.3745    3.9261 C   0  0  0  0  0  0  0  0  0  0  0  0
  -90.7594   26.9843    5.2722 O   0  0  0  0  0  0  0  0  0  0  0  0
  -89.6955   26.0696    5.5295 C   0  0  0  0  0  0  0  0  0  0  0  0
  -89.5981   25.3417    4.2219 C   0  0  0  0  0  0  0  0  0  0  0  0
  -89.9478   26.4125    3.2362 C   0  0  0  0  0  0  0  0  0  0  0  0
  -89.7012   26.5554    1.9028 C   0  0  0  0  0  0  0  0  0  0  0  0
 18 19  1  0  0  0
 19 17  1  0  0  0
 17 15  1  0  0  0
 15 16  2  0  0  0
 15  5  1  0  0  0
  5  6  2  0  0  0
  6  7  1  0  0  0
  7  8  2  0  0  0
  8  9  1  0  0  0
  9 10  1  0  0  0
 10  1  1  0  0  0
  1  2  1  0  0  0
  2  3  2  0  0  0
  2 20  1  0  0  0
 20 21  2  0  0  0
 21 22  1  0  0  0
 22 23  1  0  0  0
 23 24  2  0  0  0
 23 25  1  0  0  0
 25 26  2  0  0  0
 26 27  1  0  0  0
 27 28  2  0  0  0
 28 29  1  0  0  0
 29 30  1  0  0  0
 30 31  1  0  0  0
 31 32  1  0  0  0
 32 33  2  0  0  0
 10 11  2  0  0  0
 11 12  1  0  0  0
 12 13  2  0  0  0
 13  5  1  0  0  0
 12  8  1  0  0  0
 24 20  1  0  0  0
 33 25  1  0  0  0
 32 28  1  0  0  0
  9 14  1  0  0  0
  1  4  1  0  0  0
M  END
> <minimizedAffinity>
-7.64446

> <CNNscore>
0.0636399835

> <CNNaffinity>
5.6180210114

> <CNN_VS>
0.3575307727

> <CNNaffinity_variance>
0.0659773052

$$$$
[H]c1sc(-c2c([H])c([H])c3c(c2[H])C([H])([H])C([H])([H])O3)nc1C(=O)N([H])c1nc2c([H])c(C(=O)OC([H])([H])C([H])([H])[H])c([H])c([H])c2n1[H]


 33 37  0  0  0  0  0  0  0  0999 V2000
  -89.4611   31.1727   -2.3719 N   0  0  0  0  0  0  0  0  0  0  0  0
  -88.8023   32.4133   -2.5739 C   0  0  0  0  0  0  0  0  0  0  0  0
  -89.2775   33.2340   -3.3847 O   0  0  0  0  0  0  0  0  0  0  0  0
  -89.1081   30.4462   -1.7044 H   0  0  0  0  0  0  0  0  0  0  0  0
  -94.0840   29.6280   -5.8110 C   0  0  0  0  0  0  0  0  0  0  0  0
  -94.7369   30.5058   -4.9910 C   0  0  0  0  0  0  0  0  0  0  0  0
  -94.1069   31.1944   -3.9527 C   0  0  0  0  0  0  0  0  0  0  0  0
  -92.7575   30.9518   -3.7751 C   0  0  0  0  0  0  0  0  0  0  0  0
  -91.8724   31.4365   -2.8915 N   0  0  0  0  0  0  0  0  0  0  0  0
  -90.6530   30.9015   -3.1071 C   0  0  0  0  0  0  0  0  0  0  0  0
  -90.8093   30.0688   -4.1532 N   0  0  0  0  0  0  0  0  0  0  0  0
  -92.0778   30.0644   -4.5974 C   0  0  0  0  0  0  0  0  0  0  0  0
  -92.7416   29.4042   -5.6135 C   0  0  0  0  0  0  0  0  0  0  0  0
  -92.0620   32.1382   -2.1209 H   0  0  0  0  0  0  0  0  0  0  0  0
  -94.7895   28.9228   -6.8952 C   0  0  0  0  0  0  0  0  0  0  0  0
  -95.6858   29.4809   -7.5652 O   0  0  0  0  0  0  0  0  0  0  0  0
  -94.4849   27.6079   -7.2153 O   0  0  0  0  0  0  0  0  0  0  0  0
  -94.0515   25.3255   -6.4922 C   0  0  0  0  0  0  0  0  0  0  0  0
  -94.9931   26.4990   -6.5065 C   0  0  0  0  0  0  0  0  0  0  0  0
  -87.5549   32.7708   -1.8455 C   0  0  0  0  0  0  0  0  0  0  0  0
  -87.0711   34.0570   -1.8136 C   0  0  0  0  0  0  0  0  0  0  0  0
  -85.6635   33.8771   -0.8645 S   0  0  0  0  0  0  0  0  0  0  0  0
  -85.7678   32.2024   -0.5664 C   0  0  0  0  0  0  0  0  0  0  0  0
  -86.8699   31.8690   -1.2060 N   0  0  0  0  0  0  0  0  0  0  0  0
  -84.8555   31.3368    0.2122 C   0  0  0  0  0  0  0  0  0  0  0  0
  -83.5202   31.5596    0.1730 C   0  0  0  0  0  0  0  0  0  0  0  0
  -82.6790   30.7346    0.9122 C   0  0  0  0  0  0  0  0  0  0  0  0
  -83.2085   29.7103    1.6683 C   0  0  0  0  0  0  0  0  0  0  0  0
  -82.6020   28.7465    2.4931 O   0  0  0  0  0  0  0  0  0  0  0  0
  -83.5094   27.6499    2.5854 C   0  0  0  0  0  0  0  0  0  0  0  0
  -84.8350   28.3512    2.5766 C   0  0  0  0  0  0  0  0  0  0  0  0
  -84.5696   29.5195    1.6795 C   0  0  0  0  0  0  0  0  0  0  0  0
  -85.3906   30.3307    0.9533 C   0  0  0  0  0  0  0  0  0  0  0  0
 18 19  1  0  0  0
 19 17  1  0  0  0
 17 15  1  0  0  0
 15 16  2  0  0  0
 15  5  1  0  0  0
  5  6  2  0  0  0
  6  7  1  0  0  0
  7  8  2  0  0  0
  8  9  1  0  0  0
  9 10  1  0  0  0
 10  1  1  0  0  0
  1  2  1  0  0  0
  2  3  2  0  0  0
  2 20  1  0  0  0
 20 21  2  0  0  0
 21 22  1  0  0  0
 22 23  1  0  0  0
 23 24  2  0  0  0
 23 25  1  0  0  0
 25 26  2  0  0  0
 26 27  1  0  0  0
 27 28  2  0  0  0
 28 29  1  0  0  0
 29 30  1  0  0  0
 30 31  1  0  0  0
 31 32  1  0  0  0
 32 33  2  0  0  0
 10 11  2  0  0  0
 11 12  1  0  0  0
 12 13  2  0  0  0
 13  5  1  0  0  0
 12  8  1  0  0  0
 24 20  1  0  0  0
 33 25  1  0  0  0
 32 28  1  0  0  0
  9 14  1  0  0  0
  1  4  1  0  0  0
M  END
> <minimizedAffinity>
-8.14123

> <CNNscore>
0.0574955717

> <CNNaffinity>
5.7102766037

> <CNN_VS>
0.3283156157

> <CNNaffinity_variance>
0.1317739785

$$$$
[H]c1sc(-c2c([H])c([H])c3c(c2[H])C([H])([H])C([H])([H])O3)nc1C(=O)N([H])c1nc2c([H])c(C(=O)OC([H])([H])C([H])([H])[H])c([H])c([H])c2n1[H]


 33 37  0  0  0  0  0  0  0  0999 V2000
  -90.7209   30.6591   -1.4260 N   0  0  0  0  0  0  0  0  0  0  0  0
  -90.8276   30.2389   -2.7773 C   0  0  0  0  0  0  0  0  0  0  0  0
  -90.6456   29.0377   -3.0613 O   0  0  0  0  0  0  0  0  0  0  0  0
  -90.8632   31.6539   -1.1294 H   0  0  0  0  0  0  0  0  0  0  0  0
  -90.0086   26.7077    2.9858 C   0  0  0  0  0  0  0  0  0  0  0  0
  -88.7821   26.5662    2.3985 C   0  0  0  0  0  0  0  0  0  0  0  0
  -88.3880   27.2864    1.2693 C   0  0  0  0  0  0  0  0  0  0  0  0
  -89.3084   28.1761    0.7475 C   0  0  0  0  0  0  0  0  0  0  0  0
  -89.2506   29.0045   -0.3059 N   0  0  0  0  0  0  0  0  0  0  0  0
  -90.4067   29.6886   -0.4289 C   0  0  0  0  0  0  0  0  0  0  0  0
  -91.1844   29.2585    0.5821 N   0  0  0  0  0  0  0  0  0  0  0  0
  -90.5581   28.3336    1.3297 C   0  0  0  0  0  0  0  0  0  0  0  0
  -90.9062   27.5996    2.4474 C   0  0  0  0  0  0  0  0  0  0  0  0
  -88.4354   29.1331   -0.9700 H   0  0  0  0  0  0  0  0  0  0  0  0
  -90.3822   25.9263    4.1776 C   0  0  0  0  0  0  0  0  0  0  0  0
  -89.9254   26.1988    5.3093 O   0  0  0  0  0  0  0  0  0  0  0  0
  -91.2585   24.8546    4.0892 O   0  0  0  0  0  0  0  0  0  0  0  0
  -91.4083   23.4926    2.0785 C   0  0  0  0  0  0  0  0  0  0  0  0
  -90.9182   23.6209    3.4953 C   0  0  0  0  0  0  0  0  0  0  0  0
  -91.1519   31.1901   -3.8749 C   0  0  0  0  0  0  0  0  0  0  0  0
  -92.3228   31.1077   -4.5901 C   0  0  0  0  0  0  0  0  0  0  0  0
  -92.1575   32.4101   -5.6815 S   0  0  0  0  0  0  0  0  0  0  0  0
  -90.6324   32.9771   -5.1746 C   0  0  0  0  0  0  0  0  0  0  0  0
  -90.3299   32.1438   -4.2005 N   0  0  0  0  0  0  0  0  0  0  0  0
  -89.8431   34.1156   -5.6930 C   0  0  0  0  0  0  0  0  0  0  0  0
  -88.6300   34.3919   -5.1581 C   0  0  0  0  0  0  0  0  0  0  0  0
  -87.9032   35.4667   -5.6594 C   0  0  0  0  0  0  0  0  0  0  0  0
  -88.4207   36.2303   -6.6844 C   0  0  0  0  0  0  0  0  0  0  0  0
  -87.9110   37.3495   -7.3661 O   0  0  0  0  0  0  0  0  0  0  0  0
  -89.0287   38.0426   -7.9183 C   0  0  0  0  0  0  0  0  0  0  0  0
  -89.9406   36.9084   -8.2805 C   0  0  0  0  0  0  0  0  0  0  0  0
  -89.6558   35.9147   -7.1980 C   0  0  0  0  0  0  0  0  0  0  0  0
  -90.3649   34.8602   -6.7036 C   0  0  0  0  0  0  0  0  0  0  0  0
 18 19  1  0  0  0
 19 17  1  0  0  0
 17 15  1  0  0  0
 15 16  2  0  0  0
 15  5  1  0  0  0
  5  6  2  0  0  0
  6  7  1  0  0  0
  7  8  2  0  0  0
  8  9  1  0  0  0
  9 10  1  0  0  0
 10  1  1  0  0  0
  1  2  1  0  0  0
  2  3  2  0  0  0
  2 20  1  0  0  0
 20 21  2  0  0  0
 21 22  1  0  0  0
 22 23  1  0  0  0
 23 24  2  0  0  0
 23 25  1  0  0  0
 25 26  2  0  0  0
 26 27  1  0  0  0
 27 28  2  0  0  0
 28 29  1  0  0  0
 29 30  1  0  0  0
 30 31  1  0  0  0
 31 32  1  0  0  0
 32 33  2  0  0  0
 10 11  2  0  0  0
 11 12  1  0  0  0
 12 13  2  0  0  0
 13  5  1  0  0  0
 12  8  1  0  0  0
 24 20  1  0  0  0
 33 25  1  0  0  0
 32 28  1  0  0  0
  9 14  1  0  0  0
  1  4  1  0  0  0
M  END
> <minimizedAffinity>
-6.96093

> <CNNscore>
0.0544717684

> <CNNaffinity>
5.3959932327

> <CNN_VS>
0.2939293087

> <CNNaffinity_variance>
0.2505161762

$$$$
[H]c1nc([H])c(-c2sc([H])c(-c3c([H])nc([H])c([H])c3[H])c2[H])s1


 16 18  0  0  0  0  0  0  0  0999 V2000
  -84.2865   31.0984    0.5481 C   0  0  0  0  0  0  0  0  0  0  0  0
  -85.4985   31.4246    0.0101 C   0  0  0  0  0  0  0  0  0  0  0  0
  -85.5758   32.5727   -0.6771 C   0  0  0  0  0  0  0  0  0  0  0  0
  -84.4389   33.3259   -0.7857 C   0  0  0  0  0  0  0  0  0  0  0  0
  -83.2950   32.3996    0.0802 S   0  0  0  0  0  0  0  0  0  0  0  0
  -86.8281   33.0548   -1.3176 C   0  0  0  0  0  0  0  0  0  0  0  0
  -88.0557   32.5621   -0.9501 C   0  0  0  0  0  0  0  0  0  0  0  0
  -89.1667   33.0531   -1.5890 C   0  0  0  0  0  0  0  0  0  0  0  0
  -89.0029   34.0100   -2.5621 C   0  0  0  0  0  0  0  0  0  0  0  0
  -87.7908   34.4724   -2.8999 N   0  0  0  0  0  0  0  0  0  0  0  0
  -86.6840   34.0131   -2.2943 C   0  0  0  0  0  0  0  0  0  0  0  0
  -83.6893   27.7600    2.7491 C   0  0  0  0  0  0  0  0  0  0  0  0
  -82.5856   28.4232    2.4422 N   0  0  0  0  0  0  0  0  0  0  0  0
  -82.6594   29.5087    1.7391 C   0  0  0  0  0  0  0  0  0  0  0  0
  -83.8990   29.9253    1.3402 C   0  0  0  0  0  0  0  0  0  0  0  0
  -84.8970   28.7114    2.0111 S   0  0  0  0  0  0  0  0  0  0  0  0
 12 13  2  0  0  0
 13 14  1  0  0  0
 14 15  2  0  0  0
 15 16  1  0  0  0
 15  1  1  0  0  0
  1  2  2  0  0  0
  2  3  1  0  0  0
  3  4  2  0  0  0
  4  5  1  0  0  0
  3  6  1  0  0  0
  6  7  2  0  0  0
  7  8  1  0  0  0
  8  9  2  0  0  0
  9 10  1  0  0  0
 10 11  2  0  0  0
 16 12  1  0  0  0
  5  1  1  0  0  0
 11  6  1  0  0  0
M  END
> <minimizedAffinity>
-6.85681

> <CNNscore>
0.7912447453

> <CNNaffinity>
5.8787584305

> <CNN_VS>
4.6515369415

> <CNNaffinity_variance>
0.1124739051

$$$$
[H]c1nc([H])c(-c2sc([H])c(-c3c([H])nc([H])c([H])c3[H])c2[H])s1


 16 18  0  0  0  0  0  0  0  0999 V2000
  -85.8044   32.5080   -0.6848 C   0  0  0  0  0  0  0  0  0  0  0  0
  -85.6310   31.3572    0.0296 C   0  0  0  0  0  0  0  0  0  0  0  0
  -84.4078   31.1198    0.5232 C   0  0  0  0  0  0  0  0  0  0  0  0
  -83.4314   32.0451    0.2738 C   0  0  0  0  0  0  0  0  0  0  0  0
  -84.2600   33.2212   -0.6462 S   0  0  0  0  0  0  0  0  0  0  0  0
  -84.0727   29.9096    1.3195 C   0  0  0  0  0  0  0  0  0  0  0  0
  -82.7729   29.5920    1.6266 C   0  0  0  0  0  0  0  0  0  0  0  0
  -82.5416   28.4568    2.3624 C   0  0  0  0  0  0  0  0  0  0  0  0
  -83.6140   27.6927    2.7568 C   0  0  0  0  0  0  0  0  0  0  0  0
  -84.8731   28.0281    2.4419 N   0  0  0  0  0  0  0  0  0  0  0  0
  -85.1336   29.1320    1.7235 C   0  0  0  0  0  0  0  0  0  0  0  0
  -88.8254   34.1927   -2.7779 C   0  0  0  0  0  0  0  0  0  0  0  0
  -89.2128   33.3873   -1.8015 N   0  0  0  0  0  0  0  0  0  0  0  0
  -88.3276   32.7929   -1.0657 C   0  0  0  0  0  0  0  0  0  0  0  0
  -87.0094   33.0314   -1.3389 C   0  0  0  0  0  0  0  0  0  0  0  0
  -87.1262   34.1120   -2.6573 S   0  0  0  0  0  0  0  0  0  0  0  0
 12 13  2  0  0  0
 13 14  1  0  0  0
 14 15  2  0  0  0
 15 16  1  0  0  0
 15  1  1  0  0  0
  1  2  2  0  0  0
  2  3  1  0  0  0
  3  4  2  0  0  0
  4  5  1  0  0  0
  3  6  1  0  0  0
  6  7  2  0  0  0
  7  8  1  0  0  0
  8  9  2  0  0  0
  9 10  1  0  0  0
 10 11  2  0  0  0
 16 12  1  0  0  0
  5  1  1  0  0  0
 11  6  1  0  0  0
M  END
> <minimizedAffinity>
-7.26732

> <CNNscore>
0.7747468948

> <CNNaffinity>
5.8937706947

> <CNN_VS>
4.5661807060

> <CNNaffinity_variance>
0.0685214102

$$$$
[H]c1nc([H])c(-c2sc([H])c(-c3c([H])nc([H])c([H])c3[H])c2[H])s1


 16 18  0  0  0  0  0  0  0  0999 V2000
  -86.9170   31.8250   -0.5224 C   0  0  0  0  0  0  0  0  0  0  0  0
  -87.5073   30.6289   -0.2294 C   0  0  0  0  0  0  0  0  0  0  0  0
  -88.8319   30.5374   -0.4120 C   0  0  0  0  0  0  0  0  0  0  0  0
  -89.4874   31.6451   -0.8757 C   0  0  0  0  0  0  0  0  0  0  0  0
  -88.2242   32.7823   -1.0419 S   0  0  0  0  0  0  0  0  0  0  0  0
  -89.6076   29.2994   -0.1355 C   0  0  0  0  0  0  0  0  0  0  0  0
  -90.5200   29.2399    0.8885 C   0  0  0  0  0  0  0  0  0  0  0  0
  -91.1952   28.0612    1.0848 C   0  0  0  0  0  0  0  0  0  0  0  0
  -90.9302   26.9992    0.2532 C   0  0  0  0  0  0  0  0  0  0  0  0
  -90.0333   27.0869   -0.7392 N   0  0  0  0  0  0  0  0  0  0  0  0
  -89.3559   28.2253   -0.9579 C   0  0  0  0  0  0  0  0  0  0  0  0
  -82.9659   32.5097   -0.0074 C   0  0  0  0  0  0  0  0  0  0  0  0
  -83.6062   33.4531   -0.6798 N   0  0  0  0  0  0  0  0  0  0  0  0
  -84.8768   33.3367   -0.9036 C   0  0  0  0  0  0  0  0  0  0  0  0
  -85.5076   32.2223   -0.4245 C   0  0  0  0  0  0  0  0  0  0  0  0
  -84.2146   31.3983    0.3297 S   0  0  0  0  0  0  0  0  0  0  0  0
 12 13  2  0  0  0
 13 14  1  0  0  0
 14 15  2  0  0  0
 15 16  1  0  0  0
 15  1  1  0  0  0
  1  2  2  0  0  0
  2  3  1  0  0  0
  3  4  2  0  0  0
  4  5  1  0  0  0
  3  6  1  0  0  0
  6  7  2  0  0  0
  7  8  1  0  0  0
  8  9  2  0  0  0
  9 10  1  0  0  0
 10 11  2  0  0  0
 16 12  1  0  0  0
  5  1  1  0  0  0
 11  6  1  0  0  0
M  END
> <minimizedAffinity>
-5.71759

> <CNNscore>
0.5856053829

> <CNNaffinity>
5.6647133827

> <CNN_VS>
3.3172867298

> <CNNaffinity_variance>
0.1260982454

$$$$
[H]c1nc([H])c(-c2sc([H])c(-c3c([H])nc([H])c([H])c3[H])c2[H])s1


 16 18  0  0  0  0  0  0  0  0999 V2000
  -87.3992   33.9925   -2.4493 C   0  0  0  0  0  0  0  0  0  0  0  0
  -86.2287   33.6216   -1.8516 C   0  0  0  0  0  0  0  0  0  0  0  0
  -86.2989   32.6906   -0.8900 C   0  0  0  0  0  0  0  0  0  0  0  0
  -87.5329   32.1862   -0.5829 C   0  0  0  0  0  0  0  0  0  0  0  0
  -88.5582   33.0338   -1.6537 S   0  0  0  0  0  0  0  0  0  0  0  0
  -85.1079   32.1903   -0.1536 C   0  0  0  0  0  0  0  0  0  0  0  0
  -83.8407   32.6120   -0.4711 C   0  0  0  0  0  0  0  0  0  0  0  0
  -82.7904   32.1028    0.2509 C   0  0  0  0  0  0  0  0  0  0  0  0
  -83.0514   31.1991    1.2532 C   0  0  0  0  0  0  0  0  0  0  0  0
  -84.3002   30.8056    1.5407 N   0  0  0  0  0  0  0  0  0  0  0  0
  -85.3496   31.2845    0.8536 C   0  0  0  0  0  0  0  0  0  0  0  0
  -88.1542   37.0064   -5.0362 C   0  0  0  0  0  0  0  0  0  0  0  0
  -87.8125   35.8621   -5.6070 N   0  0  0  0  0  0  0  0  0  0  0  0
  -87.5479   34.8283   -4.8726 C   0  0  0  0  0  0  0  0  0  0  0  0
  -87.6364   34.9723   -3.5159 C   0  0  0  0  0  0  0  0  0  0  0  0
  -88.1017   36.6106   -3.3782 S   0  0  0  0  0  0  0  0  0  0  0  0
 12 13  2  0  0  0
 13 14  1  0  0  0
 14 15  2  0  0  0
 15 16  1  0  0  0
 15  1  1  0  0  0
  1  2  2  0  0  0
  2  3  1  0  0  0
  3  4  2  0  0  0
  4  5  1  0  0  0
  3  6  1  0  0  0
  6  7  2  0  0  0
  7  8  1  0  0  0
  8  9  2  0  0  0
  9 10  1  0  0  0
 10 11  2  0  0  0
 16 12  1  0  0  0
  5  1  1  0  0  0
 11  6  1  0  0  0
M  END
> <minimizedAffinity>
-6.18213

> <CNNscore>
0.5522044301

> <CNNaffinity>
5.2874250412

> <CNN_VS>
2.9197394848

> <CNNaffinity_variance>
0.2130950987

$$$$
[H]c1nc([H])c(-c2sc([H])c(-c3c([H])nc([H])c([H])c3[H])c2[H])s1


 16 18  0  0  0  0  0  0  0  0999 V2000
  -84.7872   29.8539    0.8359 C   0  0  0  0  0  0  0  0  0  0  0  0
  -85.9000   29.1110    0.5625 C   0  0  0  0  0  0  0  0  0  0  0  0
  -86.0467   27.9575    1.2290 C   0  0  0  0  0  0  0  0  0  0  0  0
  -85.0738   27.6149    2.1278 C   0  0  0  0  0  0  0  0  0  0  0  0
  -83.9820   28.9228    2.0107 S   0  0  0  0  0  0  0  0  0  0  0  0
  -87.2066   27.0476    1.0348 C   0  0  0  0  0  0  0  0  0  0  0  0
  -87.5538   26.5861   -0.2105 C   0  0  0  0  0  0  0  0  0  0  0  0
  -88.6393   25.7522   -0.3112 C   0  0  0  0  0  0  0  0  0  0  0  0
  -89.3265   25.4180    0.8314 C   0  0  0  0  0  0  0  0  0  0  0  0
  -88.9637   25.8844    2.0347 N   0  0  0  0  0  0  0  0  0  0  0  0
  -87.9069   26.7018    2.1676 C   0  0  0  0  0  0  0  0  0  0  0  0
  -84.0767   33.5068   -0.7444 C   0  0  0  0  0  0  0  0  0  0  0  0
  -82.9896   32.8005   -0.4768 N   0  0  0  0  0  0  0  0  0  0  0  0
  -83.0997   31.6146    0.0327 C   0  0  0  0  0  0  0  0  0  0  0  0
  -84.3591   31.1403    0.2741 C   0  0  0  0  0  0  0  0  0  0  0  0
  -85.3217   32.4493   -0.2545 S   0  0  0  0  0  0  0  0  0  0  0  0
 12 13  2  0  0  0
 13 14  1  0  0  0
 14 15  2  0  0  0
 15 16  1  0  0  0
 15  1  1  0  0  0
  1  2  2  0  0  0
  2  3  1  0  0  0
  3  4  2  0  0  0
  4  5  1  0  0  0
  3  6  1  0  0  0
  6  7  2  0  0  0
  7  8  1  0  0  0
  8  9  2  0  0  0
  9 10  1  0  0  0
 10 11  2  0  0  0
 16 12  1  0  0  0
  5  1  1  0  0  0
 11  6  1  0  0  0
M  END
> <minimizedAffinity>
-6.11542

> <CNNscore>
0.5272633433

> <CNNaffinity>
5.6993093491

> <CNN_VS>
3.0050368309

> <CNNaffinity_variance>
0.2265884876

$$$$
[H]c1nc([H])c(-c2sc([H])c(-c3c([H])nc([H])c([H])c3[H])c2[H])s1


 16 18  0  0  0  0  0  0  0  0999 V2000
  -86.0214   31.6393   -0.0693 C   0  0  0  0  0  0  0  0  0  0  0  0
  -87.1391   31.7933   -0.8386 C   0  0  0  0  0  0  0  0  0  0  0  0
  -87.1741   32.8471   -1.6661 C   0  0  0  0  0  0  0  0  0  0  0  0
  -86.0915   33.6835   -1.6756 C   0  0  0  0  0  0  0  0  0  0  0  0
  -85.0565   32.9655   -0.5226 S   0  0  0  0  0  0  0  0  0  0  0  0
  -88.3243   33.1405   -2.5616 C   0  0  0  0  0  0  0  0  0  0  0  0
  -88.6849   34.4299   -2.8646 C   0  0  0  0  0  0  0  0  0  0  0  0
  -89.7603   34.6219   -3.6955 C   0  0  0  0  0  0  0  0  0  0  0  0
  -90.4246   33.5222   -4.1845 C   0  0  0  0  0  0  0  0  0  0  0  0
  -90.0492   32.2741   -3.8710 N   0  0  0  0  0  0  0  0  0  0  0  0
  -89.0017   32.0519   -3.0610 C   0  0  0  0  0  0  0  0  0  0  0  0
  -84.9396   29.1303    2.9106 C   0  0  0  0  0  0  0  0  0  0  0  0
  -85.5476   28.5455    1.8905 N   0  0  0  0  0  0  0  0  0  0  0  0
  -85.9382   29.2548    0.8794 C   0  0  0  0  0  0  0  0  0  0  0  0
  -85.6986   30.6003    0.9157 C   0  0  0  0  0  0  0  0  0  0  0  0
  -84.9144   30.7647    2.4248 S   0  0  0  0  0  0  0  0  0  0  0  0
 12 13  2  0  0  0
 13 14  1  0  0  0
 14 15  2  0  0  0
 15 16  1  0  0  0
 15  1  1  0  0  0
  1  2  2  0  0  0
  2  3  1  0  0  0
  3  4  2  0  0  0
  4  5  1  0  0  0
  3  6  1  0  0  0
  6  7  2  0  0  0
  7  8  1  0  0  0
  8  9  2  0  0  0
  9 10  1  0  0  0
 10 11  2  0  0  0
 16 12  1  0  0  0
  5  1  1  0  0  0
 11  6  1  0  0  0
M  END
> <minimizedAffinity>
-5.61829

> <CNNscore>
0.5153470039

> <CNNaffinity>
5.4958410263

> <CNN_VS>
2.8322651386

> <CNNaffinity_variance>
0.1413070410

$$$$
[H]c1nc([H])c(-c2sc([H])c(-c3c([H])nc([H])c([H])c3[H])c2[H])s1


 16 18  0  0  0  0  0  0  0  0999 V2000
  -86.3470   32.4013   -0.6072 C   0  0  0  0  0  0  0  0  0  0  0  0
  -86.6147   33.4229   -1.4729 C   0  0  0  0  0  0  0  0  0  0  0  0
  -87.8544   33.4904   -1.9777 C   0  0  0  0  0  0  0  0  0  0  0  0
  -88.7519   32.5341   -1.5882 C   0  0  0  0  0  0  0  0  0  0  0  0
  -87.8286   31.5687   -0.5244 S   0  0  0  0  0  0  0  0  0  0  0  0
  -88.2886   34.5466   -2.9300 C   0  0  0  0  0  0  0  0  0  0  0  0
  -89.5933   34.6428   -3.3462 C   0  0  0  0  0  0  0  0  0  0  0  0
  -89.9178   35.6419   -4.2294 C   0  0  0  0  0  0  0  0  0  0  0  0
  -88.9292   36.4966   -4.6558 C   0  0  0  0  0  0  0  0  0  0  0  0
  -87.6630   36.3781   -4.2318 N   0  0  0  0  0  0  0  0  0  0  0  0
  -87.3125   35.4118   -3.3680 C   0  0  0  0  0  0  0  0  0  0  0  0
  -82.6887   31.7409    0.9823 C   0  0  0  0  0  0  0  0  0  0  0  0
  -83.6898   31.2003    1.6588 N   0  0  0  0  0  0  0  0  0  0  0  0
  -84.9065   31.3490    1.2397 C   0  0  0  0  0  0  0  0  0  0  0  0
  -85.1014   32.0718    0.0957 C   0  0  0  0  0  0  0  0  0  0  0  0
  -83.4984   32.4994   -0.3128 S   0  0  0  0  0  0  0  0  0  0  0  0
 12 13  2  0  0  0
 13 14  1  0  0  0
 14 15  2  0  0  0
 15 16  1  0  0  0
 15  1  1  0  0  0
  1  2  2  0  0  0
  2  3  1  0  0  0
  3  4  2  0  0  0
  4  5  1  0  0  0
  3  6  1  0  0  0
  6  7  2  0  0  0
  7  8  1  0  0  0
  8  9  2  0  0  0
  9 10  1  0  0  0
 10 11  2  0  0  0
 16 12  1  0  0  0
  5  1  1  0  0  0
 11  6  1  0  0  0
M  END
> <minimizedAffinity>
-5.67812

> <CNNscore>
0.5029984713

> <CNNaffinity>
5.2905411720

> <CNN_VS>
2.6611340046

> <CNNaffinity_variance>
0.1008288041

$$$$
[H]c1nc([H])c(-c2sc([H])c(-c3c([H])nc([H])c([H])c3[H])c2[H])s1


 16 18  0  0  0  0  0  0  0  0999 V2000
  -85.4504   30.0944    0.6107 C   0  0  0  0  0  0  0  0  0  0  0  0
  -86.4974   29.9309   -0.2506 C   0  0  0  0  0  0  0  0  0  0  0  0
  -86.9782   31.0303   -0.8477 C   0  0  0  0  0  0  0  0  0  0  0  0
  -86.3851   32.2264   -0.5489 C   0  0  0  0  0  0  0  0  0  0  0  0
  -85.1698   31.7719    0.5613 S   0  0  0  0  0  0  0  0  0  0  0  0
  -88.1133   31.0042   -1.8078 C   0  0  0  0  0  0  0  0  0  0  0  0
  -89.0184   32.0342   -1.8745 C   0  0  0  0  0  0  0  0  0  0  0  0
  -90.0419   31.9373   -2.7836 C   0  0  0  0  0  0  0  0  0  0  0  0
  -90.1156   30.8207   -3.5820 C   0  0  0  0  0  0  0  0  0  0  0  0
  -89.2167   29.8302   -3.4944 N   0  0  0  0  0  0  0  0  0  0  0  0
  -88.2035   29.8941   -2.6157 C   0  0  0  0  0  0  0  0  0  0  0  0
  -83.0745   27.6452    2.7792 C   0  0  0  0  0  0  0  0  0  0  0  0
  -84.2869   27.1698    2.5422 N   0  0  0  0  0  0  0  0  0  0  0  0
  -85.1325   27.8716    1.8563 C   0  0  0  0  0  0  0  0  0  0  0  0
  -84.7232   29.0941    1.4010 C   0  0  0  0  0  0  0  0  0  0  0  0
  -83.1231   29.1597    1.9967 S   0  0  0  0  0  0  0  0  0  0  0  0
 12 13  2  0  0  0
 13 14  1  0  0  0
 14 15  2  0  0  0
 15 16  1  0  0  0
 15  1  1  0  0  0
  1  2  2  0  0  0
  2  3  1  0  0  0
  3  4  2  0  0  0
  4  5  1  0  0  0
  3  6  1  0  0  0
  6  7  2  0  0  0
  7  8  1  0  0  0
  8  9  2  0  0  0
  9 10  1  0  0  0
 10 11  2  0  0  0
 16 12  1  0  0  0
  5  1  1  0  0  0
 11  6  1  0  0  0
M  END
> <minimizedAffinity>
-6.16906

> <CNNscore>
0.4410872161

> <CNNaffinity>
5.6245417595

> <CNN_VS>
2.4809134007

> <CNNaffinity_variance>
0.1170860529

$$$$
[H]c1nc([H])c(-c2sc([H])c(-c3c([H])nc([H])c([H])c3[H])c2[H])s1


 16 18  0  0  0  0  0  0  0  0999 V2000
  -86.3267   31.8715   -0.3917 C   0  0  0  0  0  0  0  0  0  0  0  0
  -87.3928   31.0186   -0.3594 C   0  0  0  0  0  0  0  0  0  0  0  0
  -88.5405   31.4503   -0.9005 C   0  0  0  0  0  0  0  0  0  0  0  0
  -88.5549   32.7071   -1.4409 C   0  0  0  0  0  0  0  0  0  0  0  0
  -86.9564   33.2453   -1.1735 S   0  0  0  0  0  0  0  0  0  0  0  0
  -89.7811   30.6315   -0.9374 C   0  0  0  0  0  0  0  0  0  0  0  0
  -90.0826   29.7432    0.0649 C   0  0  0  0  0  0  0  0  0  0  0  0
  -91.2441   29.0197   -0.0406 C   0  0  0  0  0  0  0  0  0  0  0  0
  -92.0491   29.2148   -1.1377 C   0  0  0  0  0  0  0  0  0  0  0  0
  -91.7285   30.0899   -2.1012 N   0  0  0  0  0  0  0  0  0  0  0  0
  -90.5997   30.8132   -2.0283 C   0  0  0  0  0  0  0  0  0  0  0  0
  -82.4409   31.7212    0.7144 C   0  0  0  0  0  0  0  0  0  0  0  0
  -83.2156   30.8200    1.2973 N   0  0  0  0  0  0  0  0  0  0  0  0
  -84.4795   30.7772    1.0167 C   0  0  0  0  0  0  0  0  0  0  0  0
  -84.9618   31.6835    0.1137 C   0  0  0  0  0  0  0  0  0  0  0  0
  -83.5460   32.5544   -0.2820 S   0  0  0  0  0  0  0  0  0  0  0  0
 12 13  2  0  0  0
 13 14  1  0  0  0
 14 15  2  0  0  0
 15 16  1  0  0  0
 15  1  1  0  0  0
  1  2  2  0  0  0
  2  3  1  0  0  0
  3  4  2  0  0  0
  4  5  1  0  0  0
  3  6  1  0  0  0
  6  7  2  0  0  0
  7  8  1  0  0  0
  8  9  2  0  0  0
  9 10  1  0  0  0
 10 11  2  0  0  0
 16 12  1  0  0  0
  5  1  1  0  0  0
 11  6  1  0  0  0
M  END
> <minimizedAffinity>
-5.50253

> <CNNscore>
0.4299054444

> <CNNaffinity>
5.4475545883

> <CNN_VS>
2.3419334888

> <CNNaffinity_variance>
0.0991719291

$$$$
[H]c1nc(N([H])c2c([H])c([H])c(N3C([H])([H])C([H])([H])N(C([H])([H])[H])C([H])([H])C3([H])[H])c([H])c2OC([H])([H])[H])nc(-c2c([H])n([H])c3c([H])nc(C([H])([H])[H])c([H])c23)c1[H]


 34 38  0  0  0  0  0  0  0  0999 V2000
  -86.7149   27.0623    1.2808 N   0  0  0  0  0  0  0  0  0  0  0  0
  -87.0008   26.1709    1.8238 H   0  0  0  0  0  0  0  0  0  0  0  0
  -88.9285   27.8576    0.7303 C   0  0  0  0  0  0  0  0  0  0  0  0
  -89.8709   28.2831   -0.1755 C   0  0  0  0  0  0  0  0  0  0  0  0
  -89.5965   28.3721   -1.5230 C   0  0  0  0  0  0  0  0  0  0  0  0
  -88.3278   28.0110   -1.9042 C   0  0  0  0  0  0  0  0  0  0  0  0
  -87.3596   27.5783   -1.0071 C   0  0  0  0  0  0  0  0  0  0  0  0
  -87.6299   27.4892    0.3298 C   0  0  0  0  0  0  0  0  0  0  0  0
  -90.6059   28.8162   -2.4002 N   0  0  0  0  0  0  0  0  0  0  0  0
  -90.9614   30.1864   -2.6472 C   0  0  0  0  0  0  0  0  0  0  0  0
  -91.0584   30.4028   -4.1369 C   0  0  0  0  0  0  0  0  0  0  0  0
  -91.9456   29.5158   -4.8176 N   0  0  0  0  0  0  0  0  0  0  0  0
  -93.0754   30.2240   -5.3841 C   0  0  0  0  0  0  0  0  0  0  0  0
  -92.4638   28.4612   -3.9741 C   0  0  0  0  0  0  0  0  0  0  0  0
  -91.3814   27.8205   -3.1358 C   0  0  0  0  0  0  0  0  0  0  0  0
  -90.5767   27.9096    2.5487 C   0  0  0  0  0  0  0  0  0  0  0  0
  -89.2569   27.7845    2.0907 O   0  0  0  0  0  0  0  0  0  0  0  0
  -85.4651   27.6122    1.6501 C   0  0  0  0  0  0  0  0  0  0  0  0
  -84.5460   27.0543    2.4313 N   0  0  0  0  0  0  0  0  0  0  0  0
  -83.3780   27.6011    2.7644 C   0  0  0  0  0  0  0  0  0  0  0  0
  -83.0621   28.8691    2.2660 C   0  0  0  0  0  0  0  0  0  0  0  0
  -83.9741   29.4807    1.4622 C   0  0  0  0  0  0  0  0  0  0  0  0
  -85.1408   28.8494    1.1732 N   0  0  0  0  0  0  0  0  0  0  0  0
  -83.7564   30.7768    0.8279 C   0  0  0  0  0  0  0  0  0  0  0  0
  -82.4914   31.3951    0.7130 C   0  0  0  0  0  0  0  0  0  0  0  0
  -82.6348   32.5372    0.0497 N   0  0  0  0  0  0  0  0  0  0  0  0
  -83.9253   32.7035   -0.2795 C   0  0  0  0  0  0  0  0  0  0  0  0
  -84.5774   33.6816   -0.9620 C   0  0  0  0  0  0  0  0  0  0  0  0
  -85.8856   33.6177   -1.1858 N   0  0  0  0  0  0  0  0  0  0  0  0
  -86.6373   32.5963   -0.7586 C   0  0  0  0  0  0  0  0  0  0  0  0
  -88.1021   32.4900   -0.9921 C   0  0  0  0  0  0  0  0  0  0  0  0
  -85.9742   31.5826   -0.0532 C   0  0  0  0  0  0  0  0  0  0  0  0
  -84.6209   31.6134    0.2010 C   0  0  0  0  0  0  0  0  0  0  0  0
  -81.8625   33.2199   -0.1892 H   0  0  0  0  0  0  0  0  0  0  0  0
 16 17  1  0  0  0
 17  3  1  0  0  0
  3  4  2  0  0  0
  4  5  1  0  0  0
  5  6  2  0  0  0
  6  7  1  0  0  0
  7  8  2  0  0  0
  8  1  1  0  0  0
  1 18  1  0  0  0
 18 19  2  0  0  0
 19 20  1  0  0  0
 20 21  2  0  0  0
 21 22  1  0  0  0
 22 23  2  0  0  0
 22 24  1  0  0  0
 24 25  2  0  0  0
 25 26  1  0  0  0
 26 27  1  0  0  0
 27 28  2  0  0  0
 28 29  1  0  0  0
 29 30  2  0  0  0
 30 31  1  0  0  0
 30 32  1  0  0  0
 32 33  2  0  0  0
  5  9  1  0  0  0
  9 10  1  0  0  0
 10 11  1  0  0  0
 11 12  1  0  0  0
 12 13  1  0  0  0
 12 14  1  0  0  0
 14 15  1  0  0  0
  8  3  1  0  0  0
 23 18  1  0  0  0
 33 24  1  0  0  0
 15  9  1  0  0  0
 33 27  1  0  0  0
  1  2  1  0  0  0
 26 34  1  0  0  0
M  END
> <minimizedAffinity>
-10.17745

> <CNNscore>
0.8194199800

> <CNNaffinity>
7.7505865097

> <CNN_VS>
6.3509855270

> <CNNaffinity_variance>
0.0690405592

$$$$
[H]c1nc(N([H])c2c([H])c([H])c(N3C([H])([H])C([H])([H])N(C([H])([H])[H])C([H])([H])C3([H])[H])c([H])c2OC([H])([H])[H])nc(-c2c([H])n([H])c3c([H])nc(C([H])([H])[H])c([H])c23)c1[H]


 34 38  0  0  0  0  0  0  0  0999 V2000
  -86.3522   33.8174   -0.7351 N   0  0  0  0  0  0  0  0  0  0  0  0
  -86.6071   34.5532    0.0166 H   0  0  0  0  0  0  0  0  0  0  0  0
  -88.4319   33.0661   -1.7080 C   0  0  0  0  0  0  0  0  0  0  0  0
  -89.3164   32.9821   -2.7569 C   0  0  0  0  0  0  0  0  0  0  0  0
  -89.0600   33.5755   -3.9740 C   0  0  0  0  0  0  0  0  0  0  0  0
  -87.8705   34.2540   -4.0743 C   0  0  0  0  0  0  0  0  0  0  0  0
  -86.9618   34.3521   -3.0282 C   0  0  0  0  0  0  0  0  0  0  0  0
  -87.2142   33.7641   -1.8205 C   0  0  0  0  0  0  0  0  0  0  0  0
  -90.0077   33.4532   -5.0094 N   0  0  0  0  0  0  0  0  0  0  0  0
  -90.9970   32.4174   -5.1251 C   0  0  0  0  0  0  0  0  0  0  0  0
  -92.3320   33.0513   -5.4273 C   0  0  0  0  0  0  0  0  0  0  0  0
  -92.3489   33.9019   -6.5733 N   0  0  0  0  0  0  0  0  0  0  0  0
  -93.1948   33.3670   -7.6208 C   0  0  0  0  0  0  0  0  0  0  0  0
  -91.0375   34.1310   -7.1390 C   0  0  0  0  0  0  0  0  0  0  0  0
  -90.0088   34.4490   -6.0782 C   0  0  0  0  0  0  0  0  0  0  0  0
  -89.3669   31.1925   -0.4270 C   0  0  0  0  0  0  0  0  0  0  0  0
  -88.7389   32.4451   -0.4899 O   0  0  0  0  0  0  0  0  0  0  0  0
  -85.1914   33.0579   -0.4588 C   0  0  0  0  0  0  0  0  0  0  0  0
  -83.9314   33.4104   -0.6923 N   0  0  0  0  0  0  0  0  0  0  0  0
  -82.8578   32.6691   -0.4239 C   0  0  0  0  0  0  0  0  0  0  0  0
  -83.0381   31.4079    0.1530 C   0  0  0  0  0  0  0  0  0  0  0  0
  -84.3118   31.0031    0.4093 C   0  0  0  0  0  0  0  0  0  0  0  0
  -85.3488   31.8242    0.1037 N   0  0  0  0  0  0  0  0  0  0  0  0
  -84.6464   29.7391    1.0575 C   0  0  0  0  0  0  0  0  0  0  0  0
  -84.0302   29.2730    2.2402 C   0  0  0  0  0  0  0  0  0  0  0  0
  -84.5914   28.1195    2.5860 N   0  0  0  0  0  0  0  0  0  0  0  0
  -85.5444   27.8019    1.6958 C   0  0  0  0  0  0  0  0  0  0  0  0
  -86.4030   26.7516    1.6093 C   0  0  0  0  0  0  0  0  0  0  0  0
  -87.2917   26.6609    0.6255 N   0  0  0  0  0  0  0  0  0  0  0  0
  -87.3977   27.5887   -0.3330 C   0  0  0  0  0  0  0  0  0  0  0  0
  -88.3805   27.5218   -1.4470 C   0  0  0  0  0  0  0  0  0  0  0  0
  -86.5162   28.6757   -0.2529 C   0  0  0  0  0  0  0  0  0  0  0  0
  -85.5802   28.8047    0.7491 C   0  0  0  0  0  0  0  0  0  0  0  0
  -84.3377   27.5311    3.4280 H   0  0  0  0  0  0  0  0  0  0  0  0
 16 17  1  0  0  0
 17  3  1  0  0  0
  3  4  2  0  0  0
  4  5  1  0  0  0
  5  6  2  0  0  0
  6  7  1  0  0  0
  7  8  2  0  0  0
  8  1  1  0  0  0
  1 18  1  0  0  0
 18 19  2  0  0  0
 19 20  1  0  0  0
 20 21  2  0  0  0
 21 22  1  0  0  0
 22 23  2  0  0  0
 22 24  1  0  0  0
 24 25  2  0  0  0
 25 26  1  0  0  0
 26 27  1  0  0  0
 27 28  2  0  0  0
 28 29  1  0  0  0
 29 30  2  0  0  0
 30 31  1  0  0  0
 30 32  1  0  0  0
 32 33  2  0  0  0
  5  9  1  0  0  0
  9 10  1  0  0  0
 10 11  1  0  0  0
 11 12  1  0  0  0
 12 13  1  0  0  0
 12 14  1  0  0  0
 14 15  1  0  0  0
  8  3  1  0  0  0
 23 18  1  0  0  0
 33 24  1  0  0  0
 15  9  1  0  0  0
 33 27  1  0  0  0
  1  2  1  0  0  0
 26 34  1  0  0  0
M  END
> <minimizedAffinity>
-9.01244

> <CNNscore>
0.8049268126

> <CNNaffinity>
7.5037918091

> <CNN_VS>
6.0400032997

> <CNNaffinity_variance>
0.0296124853

$$$$
[H]c1nc(N([H])c2c([H])c([H])c(N3C([H])([H])C([H])([H])N(C([H])([H])[H])C([H])([H])C3([H])[H])c([H])c2OC([H])([H])[H])nc(-c2c([H])n([H])c3c([H])nc(C([H])([H])[H])c([H])c23)c1[H]


 34 38  0  0  0  0  0  0  0  0999 V2000
  -86.4283   33.6482   -0.7348 N   0  0  0  0  0  0  0  0  0  0  0  0
  -86.4681   34.6944   -0.4607 H   0  0  0  0  0  0  0  0  0  0  0  0
  -87.8064   33.3879   -2.7018 C   0  0  0  0  0  0  0  0  0  0  0  0
  -88.9326   32.9216   -3.3370 C   0  0  0  0  0  0  0  0  0  0  0  0
  -89.8986   32.2004   -2.6691 C   0  0  0  0  0  0  0  0  0  0  0  0
  -89.6675   31.9767   -1.3343 C   0  0  0  0  0  0  0  0  0  0  0  0
  -88.5372   32.4381   -0.6716 C   0  0  0  0  0  0  0  0  0  0  0  0
  -87.5782   33.1536   -1.3322 C   0  0  0  0  0  0  0  0  0  0  0  0
  -91.0300   31.7498   -3.3777 N   0  0  0  0  0  0  0  0  0  0  0  0
  -91.8841   30.6604   -2.9922 C   0  0  0  0  0  0  0  0  0  0  0  0
  -93.3209   31.1070   -3.1000 C   0  0  0  0  0  0  0  0  0  0  0  0
  -93.6972   31.6219   -4.3768 N   0  0  0  0  0  0  0  0  0  0  0  0
  -94.6816   30.7774   -5.0223 C   0  0  0  0  0  0  0  0  0  0  0  0
  -92.5829   31.7751   -5.2864 C   0  0  0  0  0  0  0  0  0  0  0  0
  -91.3918   32.4258   -4.6211 C   0  0  0  0  0  0  0  0  0  0  0  0
  -87.1686   35.3162   -4.0804 C   0  0  0  0  0  0  0  0  0  0  0  0
  -86.8530   34.1167   -3.4255 O   0  0  0  0  0  0  0  0  0  0  0  0
  -85.2113   32.9958   -0.4282 C   0  0  0  0  0  0  0  0  0  0  0  0
  -83.9825   33.4569   -0.6372 N   0  0  0  0  0  0  0  0  0  0  0  0
  -82.8538   32.8149   -0.3404 C   0  0  0  0  0  0  0  0  0  0  0  0
  -82.9347   31.5458    0.2417 C   0  0  0  0  0  0  0  0  0  0  0  0
  -84.1731   31.0314    0.4735 C   0  0  0  0  0  0  0  0  0  0  0  0
  -85.2716   31.7560    0.1398 N   0  0  0  0  0  0  0  0  0  0  0  0
  -84.4090   29.7463    1.1235 C   0  0  0  0  0  0  0  0  0  0  0  0
  -83.6156   29.2386    2.1763 C   0  0  0  0  0  0  0  0  0  0  0  0
  -84.1226   28.0747    2.5679 N   0  0  0  0  0  0  0  0  0  0  0  0
  -85.2075   27.7896    1.8309 C   0  0  0  0  0  0  0  0  0  0  0  0
  -86.0762   26.7442    1.8468 C   0  0  0  0  0  0  0  0  0  0  0  0
  -87.1109   26.6889    1.0149 N   0  0  0  0  0  0  0  0  0  0  0  0
  -87.3618   27.6495    0.1175 C   0  0  0  0  0  0  0  0  0  0  0  0
  -88.5099   27.6227   -0.8271 C   0  0  0  0  0  0  0  0  0  0  0  0
  -86.4712   28.7317    0.0928 C   0  0  0  0  0  0  0  0  0  0  0  0
  -85.3866   28.8245    0.9366 C   0  0  0  0  0  0  0  0  0  0  0  0
  -83.7421   27.4572    3.3383 H   0  0  0  0  0  0  0  0  0  0  0  0
 16 17  1  0  0  0
 17  3  1  0  0  0
  3  4  2  0  0  0
  4  5  1  0  0  0
  5  6  2  0  0  0
  6  7  1  0  0  0
  7  8  2  0  0  0
  8  1  1  0  0  0
  1 18  1  0  0  0
 18 19  2  0  0  0
 19 20  1  0  0  0
 20 21  2  0  0  0
 21 22  1  0  0  0
 22 23  2  0  0  0
 22 24  1  0  0  0
 24 25  2  0  0  0
 25 26  1  0  0  0
 26 27  1  0  0  0
 27 28  2  0  0  0
 28 29  1  0  0  0
 29 30  2  0  0  0
 30 31  1  0  0  0
 30 32  1  0  0  0
 32 33  2  0  0  0
  5  9  1  0  0  0
  9 10  1  0  0  0
 10 11  1  0  0  0
 11 12  1  0  0  0
 12 13  1  0  0  0
 12 14  1  0  0  0
 14 15  1  0  0  0
  8  3  1  0  0  0
 23 18  1  0  0  0
 33 24  1  0  0  0
 15  9  1  0  0  0
 33 27  1  0  0  0
  1  2  1  0  0  0
 26 34  1  0  0  0
M  END
> <minimizedAffinity>
-9.17001

> <CNNscore>
0.6823073030

> <CNNaffinity>
7.4035277367

> <CNN_VS>
5.0514812469

> <CNNaffinity_variance>
0.0477610119

$$$$
[H]c1nc(N([H])c2c([H])c([H])c(N3C([H])([H])C([H])([H])N(C([H])([H])[H])C([H])([H])C3([H])[H])c([H])c2OC([H])([H])[H])nc(-c2c([H])n([H])c3c([H])nc(C([H])([H])[H])c([H])c23)c1[H]


 34 38  0  0  0  0  0  0  0  0999 V2000
  -86.5722   27.4995    2.3328 N   0  0  0  0  0  0  0  0  0  0  0  0
  -87.0384   27.6349    3.3000 H   0  0  0  0  0  0  0  0  0  0  0  0
  -88.4898   26.1495    1.7528 C   0  0  0  0  0  0  0  0  0  0  0  0
  -89.3220   25.5632    0.8292 C   0  0  0  0  0  0  0  0  0  0  0  0
  -89.1214   25.7086   -0.5264 C   0  0  0  0  0  0  0  0  0  0  0  0
  -88.0427   26.4731   -0.8968 C   0  0  0  0  0  0  0  0  0  0  0  0
  -87.1885   27.0750    0.0184 C   0  0  0  0  0  0  0  0  0  0  0  0
  -87.3857   26.9317    1.3634 C   0  0  0  0  0  0  0  0  0  0  0  0
  -90.0110   25.0826   -1.4220 N   0  0  0  0  0  0  0  0  0  0  0  0
  -89.9726   23.7014   -1.8167 C   0  0  0  0  0  0  0  0  0  0  0  0
  -91.3629   23.1260   -1.7092 C   0  0  0  0  0  0  0  0  0  0  0  0
  -92.3660   23.8355   -2.4355 N   0  0  0  0  0  0  0  0  0  0  0  0
  -92.9129   23.0327   -3.5104 C   0  0  0  0  0  0  0  0  0  0  0  0
  -91.8919   25.0761   -3.0086 C   0  0  0  0  0  0  0  0  0  0  0  0
  -91.0756   25.8815   -2.0238 C   0  0  0  0  0  0  0  0  0  0  0  0
  -89.8135   26.5898    3.7727 C   0  0  0  0  0  0  0  0  0  0  0  0
  -88.7364   25.9715    3.1208 O   0  0  0  0  0  0  0  0  0  0  0  0
  -85.2268   27.9287    2.2522 C   0  0  0  0  0  0  0  0  0  0  0  0
  -84.1540   27.2834    2.6980 N   0  0  0  0  0  0  0  0  0  0  0  0
  -82.8977   27.7172    2.6106 C   0  0  0  0  0  0  0  0  0  0  0  0
  -82.6535   28.9533    2.0034 C   0  0  0  0  0  0  0  0  0  0  0  0
  -83.7223   29.6516    1.5325 C   0  0  0  0  0  0  0  0  0  0  0  0
  -84.9702   29.1331    1.6633 N   0  0  0  0  0  0  0  0  0  0  0  0
  -83.6130   30.9254    0.8290 C   0  0  0  0  0  0  0  0  0  0  0  0
  -82.3947   31.6111    0.6259 C   0  0  0  0  0  0  0  0  0  0  0  0
  -82.6372   32.7087   -0.0823 N   0  0  0  0  0  0  0  0  0  0  0  0
  -83.9488   32.7818   -0.3576 C   0  0  0  0  0  0  0  0  0  0  0  0
  -84.6893   33.6847   -1.0533 C   0  0  0  0  0  0  0  0  0  0  0  0
  -85.9999   33.5326   -1.2119 N   0  0  0  0  0  0  0  0  0  0  0  0
  -86.6677   32.4907   -0.7026 C   0  0  0  0  0  0  0  0  0  0  0  0
  -88.1321   32.2864   -0.8615 C   0  0  0  0  0  0  0  0  0  0  0  0
  -85.9130   31.5541    0.0171 C   0  0  0  0  0  0  0  0  0  0  0  0
  -84.5542   31.6775    0.2054 C   0  0  0  0  0  0  0  0  0  0  0  0
  -81.9197   33.4233   -0.3889 H   0  0  0  0  0  0  0  0  0  0  0  0
 16 17  1  0  0  0
 17  3  1  0  0  0
  3  4  2  0  0  0
  4  5  1  0  0  0
  5  6  2  0  0  0
  6  7  1  0  0  0
  7  8  2  0  0  0
  8  1  1  0  0  0
  1 18  1  0  0  0
 18 19  2  0  0  0
 19 20  1  0  0  0
 20 21  2  0  0  0
 21 22  1  0  0  0
 22 23  2  0  0  0
 22 24  1  0  0  0
 24 25  2  0  0  0
 25 26  1  0  0  0
 26 27  1  0  0  0
 27 28  2  0  0  0
 28 29  1  0  0  0
 29 30  2  0  0  0
 30 31  1  0  0  0
 30 32  1  0  0  0
 32 33  2  0  0  0
  5  9  1  0  0  0
  9 10  1  0  0  0
 10 11  1  0  0  0
 11 12  1  0  0  0
 12 13  1  0  0  0
 12 14  1  0  0  0
 14 15  1  0  0  0
  8  3  1  0  0  0
 23 18  1  0  0  0
 33 24  1  0  0  0
 15  9  1  0  0  0
 33 27  1  0  0  0
  1  2  1  0  0  0
 26 34  1  0  0  0
M  END
> <minimizedAffinity>
-10.14112

> <CNNscore>
0.6070665121

> <CNNaffinity>
7.4110383987

> <CNN_VS>
4.4989933968

> <CNNaffinity_variance>
0.0507302284

$$$$
[H]c1nc(N([H])c2c([H])c([H])c(N3C([H])([H])C([H])([H])N(C([H])([H])[H])C([H])([H])C3([H])[H])c([H])c2OC([H])([H])[H])nc(-c2c([H])n([H])c3c([H])nc(C([H])([H])[H])c([H])c23)c1[H]


 34 38  0  0  0  0  0  0  0  0999 V2000
  -86.3527   26.8053    2.1042 N   0  0  0  0  0  0  0  0  0  0  0  0
  -86.4557   26.1268    2.9410 H   0  0  0  0  0  0  0  0  0  0  0  0
  -88.7297   26.6796    1.6922 C   0  0  0  0  0  0  0  0  0  0  0  0
  -89.8117   26.6645    0.8445 C   0  0  0  0  0  0  0  0  0  0  0  0
  -89.6665   26.7653   -0.5222 C   0  0  0  0  0  0  0  0  0  0  0  0
  -88.3786   26.8815   -0.9838 C   0  0  0  0  0  0  0  0  0  0  0  0
  -87.2705   26.8990   -0.1464 C   0  0  0  0  0  0  0  0  0  0  0  0
  -87.4125   26.7990    1.2094 C   0  0  0  0  0  0  0  0  0  0  0  0
  -90.8159   26.7443   -1.3370 N   0  0  0  0  0  0  0  0  0  0  0  0
  -90.9890   27.4706   -2.5647 C   0  0  0  0  0  0  0  0  0  0  0  0
  -91.5350   26.5324   -3.6121 C   0  0  0  0  0  0  0  0  0  0  0  0
  -92.7376   25.8561   -3.2466 N   0  0  0  0  0  0  0  0  0  0  0  0
  -93.8498   26.2581   -4.0835 C   0  0  0  0  0  0  0  0  0  0  0  0
  -93.1221   26.0707   -1.8688 C   0  0  0  0  0  0  0  0  0  0  0  0
  -91.9520   25.9247   -0.9230 C   0  0  0  0  0  0  0  0  0  0  0  0
  -89.6392   27.5408    3.8034 C   0  0  0  0  0  0  0  0  0  0  0  0
  -88.9301   26.5742    3.0752 O   0  0  0  0  0  0  0  0  0  0  0  0
  -85.1575   27.5616    2.0914 C   0  0  0  0  0  0  0  0  0  0  0  0
  -83.9819   27.2071    2.5999 N   0  0  0  0  0  0  0  0  0  0  0  0
  -82.8736   27.9455    2.5755 C   0  0  0  0  0  0  0  0  0  0  0  0
  -82.9178   29.2058    1.9706 C   0  0  0  0  0  0  0  0  0  0  0  0
  -84.1017   29.6126    1.4369 C   0  0  0  0  0  0  0  0  0  0  0  0
  -85.1828   28.7944    1.5058 N   0  0  0  0  0  0  0  0  0  0  0  0
  -84.2806   30.8758    0.7282 C   0  0  0  0  0  0  0  0  0  0  0  0
  -83.2288   31.7743    0.4420 C   0  0  0  0  0  0  0  0  0  0  0  0
  -83.7199   32.7985   -0.2471 N   0  0  0  0  0  0  0  0  0  0  0  0
  -85.0377   32.6220   -0.4312 C   0  0  0  0  0  0  0  0  0  0  0  0
  -85.9795   33.3622   -1.0735 C   0  0  0  0  0  0  0  0  0  0  0  0
  -87.2461   32.9661   -1.1414 N   0  0  0  0  0  0  0  0  0  0  0  0
  -87.6711   31.8242   -0.5879 C   0  0  0  0  0  0  0  0  0  0  0  0
  -89.0788   31.3482   -0.6455 C   0  0  0  0  0  0  0  0  0  0  0  0
  -86.7074   31.0539    0.0775 C   0  0  0  0  0  0  0  0  0  0  0  0
  -85.3861   31.4311    0.1716 C   0  0  0  0  0  0  0  0  0  0  0  0
  -83.1713   33.6307   -0.6021 H   0  0  0  0  0  0  0  0  0  0  0  0
 16 17  1  0  0  0
 17  3  1  0  0  0
  3  4  2  0  0  0
  4  5  1  0  0  0
  5  6  2  0  0  0
  6  7  1  0  0  0
  7  8  2  0  0  0
  8  1  1  0  0  0
  1 18  1  0  0  0
 18 19  2  0  0  0
 19 20  1  0  0  0
 20 21  2  0  0  0
 21 22  1  0  0  0
 22 23  2  0  0  0
 22 24  1  0  0  0
 24 25  2  0  0  0
 25 26  1  0  0  0
 26 27  1  0  0  0
 27 28  2  0  0  0
 28 29  1  0  0  0
 29 30  2  0  0  0
 30 31  1  0  0  0
 30 32  1  0  0  0
 32 33  2  0  0  0
  5  9  1  0  0  0
  9 10  1  0  0  0
 10 11  1  0  0  0
 11 12  1  0  0  0
 12 13  1  0  0  0
 12 14  1  0  0  0
 14 15  1  0  0  0
  8  3  1  0  0  0
 23 18  1  0  0  0
 33 24  1  0  0  0
 15  9  1  0  0  0
 33 27  1  0  0  0
  1  2  1  0  0  0
 26 34  1  0  0  0
M  END
> <minimizedAffinity>
-9.78701

> <CNNscore>
0.5902753472

> <CNNaffinity>
7.3878121376

> <CNN_VS>
4.3608431816

> <CNNaffinity_variance>
0.0406923071

$$$$
[H]c1nc(N([H])c2c([H])c([H])c(N3C([H])([H])C([H])([H])N(C([H])([H])[H])C([H])([H])C3([H])[H])c([H])c2OC([H])([H])[H])nc(-c2c([H])n([H])c3c([H])nc(C([H])([H])[H])c([H])c23)c1[H]


 34 38  0  0  0  0  0  0  0  0999 V2000
  -87.4939   27.9190    2.2171 N   0  0  0  0  0  0  0  0  0  0  0  0
  -88.0624   28.7358    2.6425 H   0  0  0  0  0  0  0  0  0  0  0  0
  -89.2421   26.3047    2.6342 C   0  0  0  0  0  0  0  0  0  0  0  0
  -90.0136   25.2318    2.2561 C   0  0  0  0  0  0  0  0  0  0  0  0
  -89.8584   24.6201    1.0309 C   0  0  0  0  0  0  0  0  0  0  0  0
  -88.8889   25.1466    0.2136 C   0  0  0  0  0  0  0  0  0  0  0  0
  -88.0977   26.2298    0.5744 C   0  0  0  0  0  0  0  0  0  0  0  0
  -88.2500   26.8377    1.7891 C   0  0  0  0  0  0  0  0  0  0  0  0
  -90.6814   23.5245    0.7027 N   0  0  0  0  0  0  0  0  0  0  0  0
  -90.2272   22.2356    0.2584 C   0  0  0  0  0  0  0  0  0  0  0  0
  -90.9447   21.1685    1.0471 C   0  0  0  0  0  0  0  0  0  0  0  0
  -92.3693   21.2473    1.0092 N   0  0  0  0  0  0  0  0  0  0  0  0
  -92.9481   20.1021    0.3365 C   0  0  0  0  0  0  0  0  0  0  0  0
  -92.8623   22.4392    0.3544 C   0  0  0  0  0  0  0  0  0  0  0  0
  -92.1299   23.6811    0.8086 C   0  0  0  0  0  0  0  0  0  0  0  0
  -90.4866   26.5071    4.7404 C   0  0  0  0  0  0  0  0  0  0  0  0
  -89.4387   26.8921    3.8913 O   0  0  0  0  0  0  0  0  0  0  0  0
  -86.0940   28.1187    2.1836 C   0  0  0  0  0  0  0  0  0  0  0  0
  -85.1578   27.2937    2.6410 N   0  0  0  0  0  0  0  0  0  0  0  0
  -83.8447   27.5131    2.5984 C   0  0  0  0  0  0  0  0  0  0  0  0
  -83.3795   28.7034    2.0302 C   0  0  0  0  0  0  0  0  0  0  0  0
  -84.3022   29.5804    1.5493 C   0  0  0  0  0  0  0  0  0  0  0  0
  -85.6225   29.2754    1.6332 N   0  0  0  0  0  0  0  0  0  0  0  0
  -83.9606   30.8327    0.8822 C   0  0  0  0  0  0  0  0  0  0  0  0
  -82.6485   31.3497    0.8012 C   0  0  0  0  0  0  0  0  0  0  0  0
  -82.6773   32.4745    0.0948 N   0  0  0  0  0  0  0  0  0  0  0  0
  -83.9371   32.7251   -0.2947 C   0  0  0  0  0  0  0  0  0  0  0  0
  -84.4844   33.7239   -1.0366 C   0  0  0  0  0  0  0  0  0  0  0  0
  -85.7837   33.7503   -1.3141 N   0  0  0  0  0  0  0  0  0  0  0  0
  -86.6279   32.8044   -0.8858 C   0  0  0  0  0  0  0  0  0  0  0  0
  -88.0859   32.7998   -1.1782 C   0  0  0  0  0  0  0  0  0  0  0  0
  -86.0732   31.7701   -0.1193 C   0  0  0  0  0  0  0  0  0  0  0  0
  -84.7328   31.7084    0.1915 C   0  0  0  0  0  0  0  0  0  0  0  0
  -81.8461   33.0882   -0.1333 H   0  0  0  0  0  0  0  0  0  0  0  0
 16 17  1  0  0  0
 17  3  1  0  0  0
  3  4  2  0  0  0
  4  5  1  0  0  0
  5  6  2  0  0  0
  6  7  1  0  0  0
  7  8  2  0  0  0
  8  1  1  0  0  0
  1 18  1  0  0  0
 18 19  2  0  0  0
 19 20  1  0  0  0
 20 21  2  0  0  0
 21 22  1  0  0  0
 22 23  2  0  0  0
 22 24  1  0  0  0
 24 25  2  0  0  0
 25 26  1  0  0  0
 26 27  1  0  0  0
 27 28  2  0  0  0
 28 29  1  0  0  0
 29 30  2  0  0  0
 30 31  1  0  0  0
 30 32  1  0  0  0
 32 33  2  0  0  0
  5  9  1  0  0  0
  9 10  1  0  0  0
 10 11  1  0  0  0
 11 12  1  0  0  0
 12 13  1  0  0  0
 12 14  1  0  0  0
 14 15  1  0  0  0
  8  3  1  0  0  0
 23 18  1  0  0  0
 33 24  1  0  0  0
 15  9  1  0  0  0
 33 27  1  0  0  0
  1  2  1  0  0  0
 26 34  1  0  0  0
M  END
> <minimizedAffinity>
-9.58373

> <CNNscore>
0.4570669830

> <CNNaffinity>
7.0674428940

> <CNN_VS>
3.2302947044

> <CNNaffinity_variance>
0.0355751626

$$$$
[H]c1nc(N([H])c2c([H])c([H])c(N3C([H])([H])C([H])([H])N(C([H])([H])[H])C([H])([H])C3([H])[H])c([H])c2OC([H])([H])[H])nc(-c2c([H])n([H])c3c([H])nc(C([H])([H])[H])c([H])c23)c1[H]


 34 38  0  0  0  0  0  0  0  0999 V2000
  -89.4789   29.1774   -0.0898 N   0  0  0  0  0  0  0  0  0  0  0  0
  -90.4958   28.8190    0.0042 H   0  0  0  0  0  0  0  0  0  0  0  0
  -89.0698   30.2017   -2.2390 C   0  0  0  0  0  0  0  0  0  0  0  0
  -88.9091   31.3055   -3.0425 C   0  0  0  0  0  0  0  0  0  0  0  0
  -88.9921   32.5871   -2.5429 C   0  0  0  0  0  0  0  0  0  0  0  0
  -89.2447   32.6937   -1.1975 C   0  0  0  0  0  0  0  0  0  0  0  0
  -89.4105   31.5929   -0.3665 C   0  0  0  0  0  0  0  0  0  0  0  0
  -89.3283   30.3210   -0.8601 C   0  0  0  0  0  0  0  0  0  0  0  0
  -88.8186   33.6769   -3.4190 N   0  0  0  0  0  0  0  0  0  0  0  0
  -88.1319   34.9012   -3.1117 C   0  0  0  0  0  0  0  0  0  0  0  0
  -87.1808   35.2213   -4.2379 C   0  0  0  0  0  0  0  0  0  0  0  0
  -87.7794   35.2842   -5.5321 N   0  0  0  0  0  0  0  0  0  0  0  0
  -87.7181   36.6230   -6.0824 C   0  0  0  0  0  0  0  0  0  0  0  0
  -89.1635   34.8642   -5.5466 C   0  0  0  0  0  0  0  0  0  0  0  0
  -89.3782   33.5880   -4.7655 C   0  0  0  0  0  0  0  0  0  0  0  0
  -87.7453   28.2714   -2.9774 C   0  0  0  0  0  0  0  0  0  0  0  0
  -88.9761   28.9189   -2.7953 O   0  0  0  0  0  0  0  0  0  0  0  0
  -88.5081   28.4068    0.5917 C   0  0  0  0  0  0  0  0  0  0  0  0
  -88.6633   27.1842    1.0891 N   0  0  0  0  0  0  0  0  0  0  0  0
  -87.7286   26.4852    1.7309 C   0  0  0  0  0  0  0  0  0  0  0  0
  -86.4660   27.0587    1.9131 C   0  0  0  0  0  0  0  0  0  0  0  0
  -86.2605   28.3109    1.4217 C   0  0  0  0  0  0  0  0  0  0  0  0
  -87.2705   28.9513    0.7791 N   0  0  0  0  0  0  0  0  0  0  0  0
  -84.9809   29.0092    1.4898 C   0  0  0  0  0  0  0  0  0  0  0  0
  -83.8255   28.4783    2.1053 C   0  0  0  0  0  0  0  0  0  0  0  0
  -82.8280   29.3428    1.9550 N   0  0  0  0  0  0  0  0  0  0  0  0
  -83.2639   30.4134    1.2727 C   0  0  0  0  0  0  0  0  0  0  0  0
  -82.6424   31.5475    0.8541 C   0  0  0  0  0  0  0  0  0  0  0  0
  -83.2899   32.4784    0.1613 N   0  0  0  0  0  0  0  0  0  0  0  0
  -84.5821   32.3599   -0.1659 C   0  0  0  0  0  0  0  0  0  0  0  0
  -85.3382   33.3790   -0.9412 C   0  0  0  0  0  0  0  0  0  0  0  0
  -85.2322   31.1940    0.2618 C   0  0  0  0  0  0  0  0  0  0  0  0
  -84.5969   30.2076    0.9832 C   0  0  0  0  0  0  0  0  0  0  0  0
  -81.8393   29.2212    2.3117 H   0  0  0  0  0  0  0  0  0  0  0  0
 16 17  1  0  0  0
 17  3  1  0  0  0
  3  4  2  0  0  0
  4  5  1  0  0  0
  5  6  2  0  0  0
  6  7  1  0  0  0
  7  8  2  0  0  0
  8  1  1  0  0  0
  1 18  1  0  0  0
 18 19  2  0  0  0
 19 20  1  0  0  0
 20 21  2  0  0  0
 21 22  1  0  0  0
 22 23  2  0  0  0
 22 24  1  0  0  0
 24 25  2  0  0  0
 25 26  1  0  0  0
 26 27  1  0  0  0
 27 28  2  0  0  0
 28 29  1  0  0  0
 29 30  2  0  0  0
 30 31  1  0  0  0
 30 32  1  0  0  0
 32 33  2  0  0  0
  5  9  1  0  0  0
  9 10  1  0  0  0
 10 11  1  0  0  0
 11 12  1  0  0  0
 12 13  1  0  0  0
 12 14  1  0  0  0
 14 15  1  0  0  0
  8  3  1  0  0  0
 23 18  1  0  0  0
 33 24  1  0  0  0
 15  9  1  0  0  0
 33 27  1  0  0  0
  1  2  1  0  0  0
 26 34  1  0  0  0
M  END
> <minimizedAffinity>
-9.39118

> <CNNscore>
0.4138439000

> <CNNaffinity>
7.3568124771

> <CNN_VS>
3.0445718765

> <CNNaffinity_variance>
0.1001704931

$$$$
[H]c1nc(N([H])c2c([H])c([H])c(N3C([H])([H])C([H])([H])N(C([H])([H])[H])C([H])([H])C3([H])[H])c([H])c2OC([H])([H])[H])nc(-c2c([H])n([H])c3c([H])nc(C([H])([H])[H])c([H])c23)c1[H]


 34 38  0  0  0  0  0  0  0  0999 V2000
  -89.3265   31.7665   -0.5931 N   0  0  0  0  0  0  0  0  0  0  0  0
  -89.8228   32.0765    0.3174 H   0  0  0  0  0  0  0  0  0  0  0  0
  -90.5440   29.7310   -1.0518 C   0  0  0  0  0  0  0  0  0  0  0  0
  -91.3115   28.9389   -1.8722 C   0  0  0  0  0  0  0  0  0  0  0  0
  -91.6904   29.3487   -3.1322 C   0  0  0  0  0  0  0  0  0  0  0  0
  -91.2558   30.5931   -3.5166 C   0  0  0  0  0  0  0  0  0  0  0  0
  -90.4797   31.4107   -2.7049 C   0  0  0  0  0  0  0  0  0  0  0  0
  -90.1027   31.0059   -1.4550 C   0  0  0  0  0  0  0  0  0  0  0  0
  -92.4784   28.4901   -3.9241 N   0  0  0  0  0  0  0  0  0  0  0  0
  -93.0779   28.8254   -5.1863 C   0  0  0  0  0  0  0  0  0  0  0  0
  -92.7882   27.7202   -6.1713 C   0  0  0  0  0  0  0  0  0  0  0  0
  -93.1873   26.4168   -5.7482 N   0  0  0  0  0  0  0  0  0  0  0  0
  -94.2431   25.8852   -6.5859 C   0  0  0  0  0  0  0  0  0  0  0  0
  -93.6472   26.3726   -4.3775 C   0  0  0  0  0  0  0  0  0  0  0  0
  -92.7312   27.1331   -3.4461 C   0  0  0  0  0  0  0  0  0  0  0  0
  -91.1324   28.7853    1.1357 C   0  0  0  0  0  0  0  0  0  0  0  0
  -90.1848   29.2686    0.2214 O   0  0  0  0  0  0  0  0  0  0  0  0
  -87.9860   32.1994   -0.7204 C   0  0  0  0  0  0  0  0  0  0  0  0
  -87.5492   33.2619   -1.3887 N   0  0  0  0  0  0  0  0  0  0  0  0
  -86.2767   33.6413   -1.4934 C   0  0  0  0  0  0  0  0  0  0  0  0
  -85.2925   32.8778   -0.8573 C   0  0  0  0  0  0  0  0  0  0  0  0
  -85.6924   31.7788   -0.1616 C   0  0  0  0  0  0  0  0  0  0  0  0
  -87.0123   31.4656   -0.1066 N   0  0  0  0  0  0  0  0  0  0  0  0
  -84.7843   30.9230    0.5952 C   0  0  0  0  0  0  0  0  0  0  0  0
  -83.4949   31.3190    1.0150 C   0  0  0  0  0  0  0  0  0  0  0  0
  -82.9520   30.3281    1.7137 N   0  0  0  0  0  0  0  0  0  0  0  0
  -83.8147   29.3019    1.7778 C   0  0  0  0  0  0  0  0  0  0  0  0
  -83.7458   28.0840    2.3775 C   0  0  0  0  0  0  0  0  0  0  0  0
  -84.7563   27.2232    2.3187 N   0  0  0  0  0  0  0  0  0  0  0  0
  -85.8956   27.4977    1.6724 C   0  0  0  0  0  0  0  0  0  0  0  0
  -87.0473   26.5610    1.5873 C   0  0  0  0  0  0  0  0  0  0  0  0
  -85.9762   28.7511    1.0500 C   0  0  0  0  0  0  0  0  0  0  0  0
  -84.9503   29.6694    1.0862 C   0  0  0  0  0  0  0  0  0  0  0  0
  -81.9910   30.3318    2.1565 H   0  0  0  0  0  0  0  0  0  0  0  0
 16 17  1  0  0  0
 17  3  1  0  0  0
  3  4  2  0  0  0
  4  5  1  0  0  0
  5  6  2  0  0  0
  6  7  1  0  0  0
  7  8  2  0  0  0
  8  1  1  0  0  0
  1 18  1  0  0  0
 18 19  2  0  0  0
 19 20  1  0  0  0
 20 21  2  0  0  0
 21 22  1  0  0  0
 22 23  2  0  0  0
 22 24  1  0  0  0
 24 25  2  0  0  0
 25 26  1  0  0  0
 26 27  1  0  0  0
 27 28  2  0  0  0
 28 29  1  0  0  0
 29 30  2  0  0  0
 30 31  1  0  0  0
 30 32  1  0  0  0
 32 33  2  0  0  0
  5  9  1  0  0  0
  9 10  1  0  0  0
 10 11  1  0  0  0
 11 12  1  0  0  0
 12 13  1  0  0  0
 12 14  1  0  0  0
 14 15  1  0  0  0
  8  3  1  0  0  0
 23 18  1  0  0  0
 33 24  1  0  0  0
 15  9  1  0  0  0
 33 27  1  0  0  0
  1  2  1  0  0  0
 26 34  1  0  0  0
M  END
> <minimizedAffinity>
-8.88485

> <CNNscore>
0.3613415360

> <CNNaffinity>
6.8297910690

> <CNN_VS>
2.4678871632

> <CNNaffinity_variance>
0.0753132179

$$$$
[H]c1nc(N([H])c2c([H])c([H])c(N3C([H])([H])C([H])([H])N(C([H])([H])[H])C([H])([H])C3([H])[H])c([H])c2OC([H])([H])[H])nc(-c2c([H])n([H])c3c([H])nc(C([H])([H])[H])c([H])c23)c1[H]


 34 38  0  0  0  0  0  0  0  0999 V2000
  -84.6133   29.7969    0.5279 N   0  0  0  0  0  0  0  0  0  0  0  0
  -83.6455   29.4761    0.8910 H   0  0  0  0  0  0  0  0  0  0  0  0
  -85.7162   28.0352    1.7591 C   0  0  0  0  0  0  0  0  0  0  0  0
  -86.6909   27.0741    1.8849 C   0  0  0  0  0  0  0  0  0  0  0  0
  -87.6228   26.8492    0.8948 C   0  0  0  0  0  0  0  0  0  0  0  0
  -87.5183   27.6417   -0.2216 C   0  0  0  0  0  0  0  0  0  0  0  0
  -86.5421   28.6186   -0.3706 C   0  0  0  0  0  0  0  0  0  0  0  0
  -85.6169   28.8430    0.6101 C   0  0  0  0  0  0  0  0  0  0  0  0
  -88.5971   25.8493    1.0849 N   0  0  0  0  0  0  0  0  0  0  0  0
  -89.2073   25.4979    2.3376 C   0  0  0  0  0  0  0  0  0  0  0  0
  -90.7012   25.4161    2.1449 C   0  0  0  0  0  0  0  0  0  0  0  0
  -91.1270   24.5348    1.1061 N   0  0  0  0  0  0  0  0  0  0  0  0
  -91.8744   23.4116    1.6341 C   0  0  0  0  0  0  0  0  0  0  0  0
  -90.0360   24.0068    0.3166 C   0  0  0  0  0  0  0  0  0  0  0  0
  -89.0454   25.0800   -0.0732 C   0  0  0  0  0  0  0  0  0  0  0  0
  -83.5072   27.6624    2.7625 C   0  0  0  0  0  0  0  0  0  0  0  0
  -84.7915   28.2254    2.7947 O   0  0  0  0  0  0  0  0  0  0  0  0
  -84.6594   31.1246    0.0423 C   0  0  0  0  0  0  0  0  0  0  0  0
  -83.6616   32.0021    0.0189 N   0  0  0  0  0  0  0  0  0  0  0  0
  -83.7383   33.2494   -0.4423 C   0  0  0  0  0  0  0  0  0  0  0  0
  -84.9586   33.7044   -0.9520 C   0  0  0  0  0  0  0  0  0  0  0  0
  -86.0102   32.8408   -0.9474 C   0  0  0  0  0  0  0  0  0  0  0  0
  -85.8427   31.5855   -0.4582 N   0  0  0  0  0  0  0  0  0  0  0  0
  -87.3242   33.1595   -1.4967 C   0  0  0  0  0  0  0  0  0  0  0  0
  -88.5353   32.6272   -1.0014 C   0  0  0  0  0  0  0  0  0  0  0  0
  -89.5433   33.1502   -1.6909 N   0  0  0  0  0  0  0  0  0  0  0  0
  -89.0613   33.9990   -2.6122 C   0  0  0  0  0  0  0  0  0  0  0  0
  -89.6691   34.7844   -3.5403 C   0  0  0  0  0  0  0  0  0  0  0  0
  -88.9684   35.5738   -4.3476 N   0  0  0  0  0  0  0  0  0  0  0  0
  -87.6330   35.6458   -4.2986 C   0  0  0  0  0  0  0  0  0  0  0  0
  -86.8164   36.5183   -5.1836 C   0  0  0  0  0  0  0  0  0  0  0  0
  -86.9967   34.8390   -3.3451 C   0  0  0  0  0  0  0  0  0  0  0  0
  -87.6871   34.0064   -2.4923 C   0  0  0  0  0  0  0  0  0  0  0  0
  -90.5706   32.9403   -1.5484 H   0  0  0  0  0  0  0  0  0  0  0  0
 16 17  1  0  0  0
 17  3  1  0  0  0
  3  4  2  0  0  0
  4  5  1  0  0  0
  5  6  2  0  0  0
  6  7  1  0  0  0
  7  8  2  0  0  0
  8  1  1  0  0  0
  1 18  1  0  0  0
 18 19  2  0  0  0
 19 20  1  0  0  0
 20 21  2  0  0  0
 21 22  1  0  0  0
 22 23  2  0  0  0
 22 24  1  0  0  0
 24 25  2  0  0  0
 25 26  1  0  0  0
 26 27  1  0  0  0
 27 28  2  0  0  0
 28 29  1  0  0  0
 29 30  2  0  0  0
 30 31  1  0  0  0
 30 32  1  0  0  0
 32 33  2  0  0  0
  5  9  1  0  0  0
  9 10  1  0  0  0
 10 11  1  0  0  0
 11 12  1  0  0  0
 12 13  1  0  0  0
 12 14  1  0  0  0
 14 15  1  0  0  0
  8  3  1  0  0  0
 23 18  1  0  0  0
 33 24  1  0  0  0
 15  9  1  0  0  0
 33 27  1  0  0  0
  1  2  1  0  0  0
 26 34  1  0  0  0
M  END
> <minimizedAffinity>
-8.99471

> <CNNscore>
0.2944397330

> <CNNaffinity>
6.9714574814

> <CNN_VS>
2.0526740551

> <CNNaffinity_variance>
0.2866891026

$$$$
[H]C(=C1N=C(N([H])c2c([H])c([H])c([H])c([H])c2[H])N([H])C1=O)c1c([H])c([H])c2c(c1[H])OC([H])([H])O2


 25 28  0  0  0  0  0  0  0  0999 V2000
  -83.4429   27.3484    2.7250 O   0  0  0  0  0  0  0  0  0  0  0  0
  -84.5666   27.5436    2.2230 C   0  0  0  0  0  0  0  0  0  0  0  0
  -85.6793   26.6700    2.2791 N   0  0  0  0  0  0  0  0  0  0  0  0
  -86.7265   27.3048    1.5759 C   0  0  0  0  0  0  0  0  0  0  0  0
  -86.3480   28.4488    1.1178 N   0  0  0  0  0  0  0  0  0  0  0  0
  -84.9930   28.7160    1.4627 C   0  0  0  0  0  0  0  0  0  0  0  0
  -84.2475   29.7645    1.1729 C   0  0  0  0  0  0  0  0  0  0  0  0
  -85.7442   25.7473    2.7357 H   0  0  0  0  0  0  0  0  0  0  0  0
  -84.7609   30.9025    0.4025 C   0  0  0  0  0  0  0  0  0  0  0  0
  -83.9250   31.8957   -0.0051 C   0  0  0  0  0  0  0  0  0  0  0  0
  -84.3766   32.9747   -0.7163 C   0  0  0  0  0  0  0  0  0  0  0  0
  -85.7121   33.1086   -1.0569 C   0  0  0  0  0  0  0  0  0  0  0  0
  -86.4064   34.0755   -1.7511 O   0  0  0  0  0  0  0  0  0  0  0  0
  -87.7583   33.6179   -1.8992 C   0  0  0  0  0  0  0  0  0  0  0  0
  -87.8202   32.4695   -1.1036 O   0  0  0  0  0  0  0  0  0  0  0  0
  -86.5554   32.0997   -0.6415 C   0  0  0  0  0  0  0  0  0  0  0  0
  -86.0947   30.9983    0.0843 C   0  0  0  0  0  0  0  0  0  0  0  0
  -88.0184   26.7541    1.3977 N   0  0  0  0  0  0  0  0  0  0  0  0
  -88.2870   26.4553    0.4230 H   0  0  0  0  0  0  0  0  0  0  0  0
  -88.9667   26.5759    2.4206 C   0  0  0  0  0  0  0  0  0  0  0  0
  -89.6153   25.3698    2.5945 C   0  0  0  0  0  0  0  0  0  0  0  0
  -90.5531   25.1745    3.5923 C   0  0  0  0  0  0  0  0  0  0  0  0
  -90.8817   26.1738    4.4564 C   0  0  0  0  0  0  0  0  0  0  0  0
  -90.2486   27.3883    4.3046 C   0  0  0  0  0  0  0  0  0  0  0  0
  -89.3141   27.5820    3.3102 C   0  0  0  0  0  0  0  0  0  0  0  0
  1  2  2  0  0  0
  2  3  1  0  0  0
  3  4  1  0  0  0
  4 18  1  0  0  0
 18 20  1  0  0  0
 20 21  2  0  0  0
 21 22  1  0  0  0
 22 23  2  0  0  0
 23 24  1  0  0  0
 24 25  2  0  0  0
  4  5  2  0  0  0
  5  6  1  0  0  0
  6  7  2  0  0  0
  7  9  1  0  0  0
  9 10  2  0  0  0
 10 11  1  0  0  0
 11 12  2  0  0  0
 12 13  1  0  0  0
 13 14  1  0  0  0
 14 15  1  0  0  0
 15 16  1  0  0  0
 16 17  2  0  0  0
  6  2  1  0  0  0
 17  9  1  0  0  0
 25 20  1  0  0  0
 16 12  1  0  0  0
  3  8  1  0  0  0
 18 19  1  0  0  0
M  END
> <minimizedAffinity>
-8.42987

> <CNNscore>
0.7439402938

> <CNNaffinity>
6.2441821098

> <CNN_VS>
4.6452984810

> <CNNaffinity_variance>
0.1362490803

$$$$
[H]C(=C1N=C(N([H])c2c([H])c([H])c([H])c([H])c2[H])N([H])C1=O)c1c([H])c([H])c2c(c1[H])OC([H])([H])O2


 25 28  0  0  0  0  0  0  0  0999 V2000
  -88.9076   33.7566   -1.9893 O   0  0  0  0  0  0  0  0  0  0  0  0
  -88.9142   32.6434   -1.4295 C   0  0  0  0  0  0  0  0  0  0  0  0
  -90.0225   31.7728   -1.2951 N   0  0  0  0  0  0  0  0  0  0  0  0
  -89.5609   30.6369   -0.5945 C   0  0  0  0  0  0  0  0  0  0  0  0
  -88.3092   30.7491   -0.3070 N   0  0  0  0  0  0  0  0  0  0  0  0
  -87.7822   31.9823   -0.7845 C   0  0  0  0  0  0  0  0  0  0  0  0
  -86.5596   32.4654   -0.6802 C   0  0  0  0  0  0  0  0  0  0  0  0
  -90.9877   31.9114   -1.6317 H   0  0  0  0  0  0  0  0  0  0  0  0
  -85.4797   31.7288   -0.0144 C   0  0  0  0  0  0  0  0  0  0  0  0
  -84.2190   32.2387    0.0298 C   0  0  0  0  0  0  0  0  0  0  0  0
  -83.1892   31.5700    0.6350 C   0  0  0  0  0  0  0  0  0  0  0  0
  -83.3811   30.3364    1.2340 C   0  0  0  0  0  0  0  0  0  0  0  0
  -82.5307   29.4766    1.8946 O   0  0  0  0  0  0  0  0  0  0  0  0
  -83.3202   28.3949    2.4099 C   0  0  0  0  0  0  0  0  0  0  0  0
  -84.5849   28.5960    1.8480 O   0  0  0  0  0  0  0  0  0  0  0  0
  -84.6603   29.8235    1.1865 C   0  0  0  0  0  0  0  0  0  0  0  0
  -85.7116   30.5060    0.5691 C   0  0  0  0  0  0  0  0  0  0  0  0
  -90.3685   29.5256   -0.2531 N   0  0  0  0  0  0  0  0  0  0  0  0
  -91.1013   29.2275   -0.9499 H   0  0  0  0  0  0  0  0  0  0  0  0
  -90.2660   28.7916    0.9420 C   0  0  0  0  0  0  0  0  0  0  0  0
  -91.1000   29.0450    2.0125 C   0  0  0  0  0  0  0  0  0  0  0  0
  -91.0139   28.3366    3.1975 C   0  0  0  0  0  0  0  0  0  0  0  0
  -90.0930   27.3477    3.3624 C   0  0  0  0  0  0  0  0  0  0  0  0
  -89.2479   27.0746    2.3088 C   0  0  0  0  0  0  0  0  0  0  0  0
  -89.3345   27.7808    1.1283 C   0  0  0  0  0  0  0  0  0  0  0  0
  1  2  2  0  0  0
  2  3  1  0  0  0
  3  4  1  0  0  0
  4 18  1  0  0  0
 18 20  1  0  0  0
 20 21  2  0  0  0
 21 22  1  0  0  0
 22 23  2  0  0  0
 23 24  1  0  0  0
 24 25  2  0  0  0
  4  5  2  0  0  0
  5  6  1  0  0  0
  6  7  2  0  0  0
  7  9  1  0  0  0
  9 10  2  0  0  0
 10 11  1  0  0  0
 11 12  2  0  0  0
 12 13  1  0  0  0
 13 14  1  0  0  0
 14 15  1  0  0  0
 15 16  1  0  0  0
 16 17  2  0  0  0
  6  2  1  0  0  0
 17  9  1  0  0  0
 25 20  1  0  0  0
 16 12  1  0  0  0
  3  8  1  0  0  0
 18 19  1  0  0  0
M  END
> <minimizedAffinity>
-8.60356

> <CNNscore>
0.5536493063

> <CNNaffinity>
5.8380708694

> <CNN_VS>
3.2322437763

> <CNNaffinity_variance>
0.1352510750

$$$$
[H]C(=C1N=C(N([H])c2c([H])c([H])c([H])c([H])c2[H])N([H])C1=O)c1c([H])c([H])c2c(c1[H])OC([H])([H])O2


 25 28  0  0  0  0  0  0  0  0999 V2000
  -82.6829   33.1073   -0.4507 O   0  0  0  0  0  0  0  0  0  0  0  0
  -83.9129   32.9591   -0.5833 C   0  0  0  0  0  0  0  0  0  0  0  0
  -84.8040   33.8438   -1.2372 N   0  0  0  0  0  0  0  0  0  0  0  0
  -86.0896   33.2679   -1.1386 C   0  0  0  0  0  0  0  0  0  0  0  0
  -86.0460   32.1480   -0.5015 N   0  0  0  0  0  0  0  0  0  0  0  0
  -84.7166   31.8408   -0.0955 C   0  0  0  0  0  0  0  0  0  0  0  0
  -84.2678   30.8007    0.5798 C   0  0  0  0  0  0  0  0  0  0  0  0
  -84.5881   34.7384   -1.7035 H   0  0  0  0  0  0  0  0  0  0  0  0
  -85.1499   29.7187    1.0304 C   0  0  0  0  0  0  0  0  0  0  0  0
  -85.3485   29.4953    2.3578 C   0  0  0  0  0  0  0  0  0  0  0  0
  -86.1577   28.4872    2.8084 C   0  0  0  0  0  0  0  0  0  0  0  0
  -86.8162   27.6418    1.9314 C   0  0  0  0  0  0  0  0  0  0  0  0
  -87.6673   26.5753    2.1239 O   0  0  0  0  0  0  0  0  0  0  0  0
  -88.1384   26.1569    0.8347 C   0  0  0  0  0  0  0  0  0  0  0  0
  -87.3726   26.9015   -0.0680 O   0  0  0  0  0  0  0  0  0  0  0  0
  -86.6117   27.8719    0.5872 C   0  0  0  0  0  0  0  0  0  0  0  0
  -85.7859   28.9009    0.1271 C   0  0  0  0  0  0  0  0  0  0  0  0
  -87.2677   33.8470   -1.6682 N   0  0  0  0  0  0  0  0  0  0  0  0
  -87.6513   34.6980   -1.1781 H   0  0  0  0  0  0  0  0  0  0  0  0
  -87.9617   33.3739   -2.7960 C   0  0  0  0  0  0  0  0  0  0  0  0
  -89.1744   33.9165   -3.1710 C   0  0  0  0  0  0  0  0  0  0  0  0
  -89.8744   33.4640   -4.2749 C   0  0  0  0  0  0  0  0  0  0  0  0
  -89.3934   32.4525   -5.0487 C   0  0  0  0  0  0  0  0  0  0  0  0
  -88.1843   31.8932   -4.6961 C   0  0  0  0  0  0  0  0  0  0  0  0
  -87.4874   32.3449   -3.5961 C   0  0  0  0  0  0  0  0  0  0  0  0
  1  2  2  0  0  0
  2  3  1  0  0  0
  3  4  1  0  0  0
  4 18  1  0  0  0
 18 20  1  0  0  0
 20 21  2  0  0  0
 21 22  1  0  0  0
 22 23  2  0  0  0
 23 24  1  0  0  0
 24 25  2  0  0  0
  4  5  2  0  0  0
  5  6  1  0  0  0
  6  7  2  0  0  0
  7  9  1  0  0  0
  9 10  2  0  0  0
 10 11  1  0  0  0
 11 12  2  0  0  0
 12 13  1  0  0  0
 13 14  1  0  0  0
 14 15  1  0  0  0
 15 16  1  0  0  0
 16 17  2  0  0  0
  6  2  1  0  0  0
 17  9  1  0  0  0
 25 20  1  0  0  0
 16 12  1  0  0  0
  3  8  1  0  0  0
 18 19  1  0  0  0
M  END
> <minimizedAffinity>
-7.79876

> <CNNscore>
0.4960641563

> <CNNaffinity>
5.7683615685

> <CNN_VS>
2.8614773750

> <CNNaffinity_variance>
0.1864315569

$$$$
[H]C(=C1N=C(N([H])c2c([H])c([H])c([H])c([H])c2[H])N([H])C1=O)c1c([H])c([H])c2c(c1[H])OC([H])([H])O2


 25 28  0  0  0  0  0  0  0  0999 V2000
  -83.6444   34.1234   -0.9141 O   0  0  0  0  0  0  0  0  0  0  0  0
  -84.4597   33.2389   -0.5892 C   0  0  0  0  0  0  0  0  0  0  0  0
  -84.2967   32.2762    0.4360 N   0  0  0  0  0  0  0  0  0  0  0  0
  -85.4686   31.4883    0.4398 C   0  0  0  0  0  0  0  0  0  0  0  0
  -86.2944   31.8848   -0.4672 N   0  0  0  0  0  0  0  0  0  0  0  0
  -85.7684   32.9925   -1.1902 C   0  0  0  0  0  0  0  0  0  0  0  0
  -86.3006   33.6667   -2.1909 C   0  0  0  0  0  0  0  0  0  0  0  0
  -83.4940   32.1499    1.0715 H   0  0  0  0  0  0  0  0  0  0  0  0
  -87.6269   33.3500   -2.7319 C   0  0  0  0  0  0  0  0  0  0  0  0
  -88.5978   34.3018   -2.7853 C   0  0  0  0  0  0  0  0  0  0  0  0
  -89.8475   34.0334   -3.2754 C   0  0  0  0  0  0  0  0  0  0  0  0
  -90.1861   32.7745   -3.7425 C   0  0  0  0  0  0  0  0  0  0  0  0
  -91.3474   32.2565   -4.2733 O   0  0  0  0  0  0  0  0  0  0  0  0
  -91.0709   30.9134   -4.6958 C   0  0  0  0  0  0  0  0  0  0  0  0
  -89.7861   30.6579   -4.2062 O   0  0  0  0  0  0  0  0  0  0  0  0
  -89.1989   31.8132   -3.6862 C   0  0  0  0  0  0  0  0  0  0  0  0
  -87.9232   32.0870   -3.1863 C   0  0  0  0  0  0  0  0  0  0  0  0
  -85.7014   30.4062    1.3224 N   0  0  0  0  0  0  0  0  0  0  0  0
  -86.6835   30.2793    1.6841 H   0  0  0  0  0  0  0  0  0  0  0  0
  -84.7237   29.4906    1.7505 C   0  0  0  0  0  0  0  0  0  0  0  0
  -85.0714   28.2483    2.2417 C   0  0  0  0  0  0  0  0  0  0  0  0
  -84.1258   27.3343    2.6704 C   0  0  0  0  0  0  0  0  0  0  0  0
  -82.7960   27.6226    2.6266 C   0  0  0  0  0  0  0  0  0  0  0  0
  -82.4219   28.8564    2.1403 C   0  0  0  0  0  0  0  0  0  0  0  0
  -83.3648   29.7664    1.7131 C   0  0  0  0  0  0  0  0  0  0  0  0
  1  2  2  0  0  0
  2  3  1  0  0  0
  3  4  1  0  0  0
  4 18  1  0  0  0
 18 20  1  0  0  0
 20 21  2  0  0  0
 21 22  1  0  0  0
 22 23  2  0  0  0
 23 24  1  0  0  0
 24 25  2  0  0  0
  4  5  2  0  0  0
  5  6  1  0  0  0
  6  7  2  0  0  0
  7  9  1  0  0  0
  9 10  2  0  0  0
 10 11  1  0  0  0
 11 12  2  0  0  0
 12 13  1  0  0  0
 13 14  1  0  0  0
 14 15  1  0  0  0
 15 16  1  0  0  0
 16 17  2  0  0  0
  6  2  1  0  0  0
 17  9  1  0  0  0
 25 20  1  0  0  0
 16 12  1  0  0  0
  3  8  1  0  0  0
 18 19  1  0  0  0
M  END
> <minimizedAffinity>
-8.59668

> <CNNscore>
0.4032292366

> <CNNaffinity>
5.7641401291

> <CNN_VS>
2.3242697716

> <CNNaffinity_variance>
0.2082305402

$$$$
[H]C(=C1N=C(N([H])c2c([H])c([H])c([H])c([H])c2[H])N([H])C1=O)c1c([H])c([H])c2c(c1[H])OC([H])([H])O2


 25 28  0  0  0  0  0  0  0  0999 V2000
  -87.4100   35.1109   -2.5762 O   0  0  0  0  0  0  0  0  0  0  0  0
  -87.4878   33.8692   -2.5070 C   0  0  0  0  0  0  0  0  0  0  0  0
  -88.4435   33.0462   -3.1503 N   0  0  0  0  0  0  0  0  0  0  0  0
  -88.1431   31.7161   -2.7831 C   0  0  0  0  0  0  0  0  0  0  0  0
  -87.1204   31.6733   -1.9994 N   0  0  0  0  0  0  0  0  0  0  0  0
  -86.6127   32.9792   -1.7477 C   0  0  0  0  0  0  0  0  0  0  0  0
  -85.5939   33.3498   -0.9968 C   0  0  0  0  0  0  0  0  0  0  0  0
  -89.2170   33.3309   -3.7706 H   0  0  0  0  0  0  0  0  0  0  0  0
  -84.7648   32.3837   -0.2680 C   0  0  0  0  0  0  0  0  0  0  0  0
  -83.4099   32.5074   -0.2524 C   0  0  0  0  0  0  0  0  0  0  0  0
  -82.6098   31.6160    0.4103 C   0  0  0  0  0  0  0  0  0  0  0  0
  -83.1427   30.5400    1.1000 C   0  0  0  0  0  0  0  0  0  0  0  0
  -82.5690   29.5225    1.8310 O   0  0  0  0  0  0  0  0  0  0  0  0
  -83.6309   28.7586    2.4207 C   0  0  0  0  0  0  0  0  0  0  0  0
  -84.7908   29.2755    1.8348 O   0  0  0  0  0  0  0  0  0  0  0  0
  -84.5163   30.4186    1.0812 C   0  0  0  0  0  0  0  0  0  0  0  0
  -85.3331   31.3284    0.4050 C   0  0  0  0  0  0  0  0  0  0  0  0
  -88.8716   30.5830   -3.2180 N   0  0  0  0  0  0  0  0  0  0  0  0
  -88.4389   29.9908   -3.9753 H   0  0  0  0  0  0  0  0  0  0  0  0
  -90.1249   30.1893   -2.7163 C   0  0  0  0  0  0  0  0  0  0  0  0
  -90.2523   29.6418   -1.4555 C   0  0  0  0  0  0  0  0  0  0  0  0
  -91.4751   29.2456   -0.9443 C   0  0  0  0  0  0  0  0  0  0  0  0
  -92.6192   29.3791   -1.6699 C   0  0  0  0  0  0  0  0  0  0  0  0
  -92.5197   29.9229   -2.9321 C   0  0  0  0  0  0  0  0  0  0  0  0
  -91.3010   30.3178   -3.4405 C   0  0  0  0  0  0  0  0  0  0  0  0
  1  2  2  0  0  0
  2  3  1  0  0  0
  3  4  1  0  0  0
  4 18  1  0  0  0
 18 20  1  0  0  0
 20 21  2  0  0  0
 21 22  1  0  0  0
 22 23  2  0  0  0
 23 24  1  0  0  0
 24 25  2  0  0  0
  4  5  2  0  0  0
  5  6  1  0  0  0
  6  7  2  0  0  0
  7  9  1  0  0  0
  9 10  2  0  0  0
 10 11  1  0  0  0
 11 12  2  0  0  0
 12 13  1  0  0  0
 13 14  1  0  0  0
 14 15  1  0  0  0
 15 16  1  0  0  0
 16 17  2  0  0  0
  6  2  1  0  0  0
 17  9  1  0  0  0
 25 20  1  0  0  0
 16 12  1  0  0  0
  3  8  1  0  0  0
 18 19  1  0  0  0
M  END
> <minimizedAffinity>
-7.70032

> <CNNscore>
0.3892855048

> <CNNaffinity>
5.6559419632

> <CNN_VS>
2.2017762661

> <CNNaffinity_variance>
0.1153934970

$$$$
[H]C(=C1N=C(N([H])c2c([H])c([H])c([H])c([H])c2[H])N([H])C1=O)c1c([H])c([H])c2c(c1[H])OC([H])([H])O2


 25 28  0  0  0  0  0  0  0  0999 V2000
  -89.5159   31.3634   -1.5766 O   0  0  0  0  0  0  0  0  0  0  0  0
  -88.4935   32.0672   -1.4664 C   0  0  0  0  0  0  0  0  0  0  0  0
  -87.4137   31.8533   -0.5762 N   0  0  0  0  0  0  0  0  0  0  0  0
  -86.4895   32.8963   -0.8049 C   0  0  0  0  0  0  0  0  0  0  0  0
  -86.9103   33.6918   -1.7279 N   0  0  0  0  0  0  0  0  0  0  0  0
  -88.1750   33.2720   -2.2288 C   0  0  0  0  0  0  0  0  0  0  0  0
  -88.9298   33.8218   -3.1600 C   0  0  0  0  0  0  0  0  0  0  0  0
  -87.2953   31.0954    0.1136 H   0  0  0  0  0  0  0  0  0  0  0  0
  -88.5285   35.0361   -3.8787 C   0  0  0  0  0  0  0  0  0  0  0  0
  -88.7308   36.2643   -3.3291 C   0  0  0  0  0  0  0  0  0  0  0  0
  -88.3761   37.4151   -3.9799 C   0  0  0  0  0  0  0  0  0  0  0  0
  -87.7917   37.3854   -5.2350 C   0  0  0  0  0  0  0  0  0  0  0  0
  -87.3518   38.3775   -6.0840 O   0  0  0  0  0  0  0  0  0  0  0  0
  -86.7197   37.7421   -7.2046 C   0  0  0  0  0  0  0  0  0  0  0  0
  -86.9988   36.3829   -7.0298 O   0  0  0  0  0  0  0  0  0  0  0  0
  -87.5888   36.1385   -5.7879 C   0  0  0  0  0  0  0  0  0  0  0  0
  -87.9506   34.9637   -5.1237 C   0  0  0  0  0  0  0  0  0  0  0  0
  -85.2655   33.0464   -0.1097 N   0  0  0  0  0  0  0  0  0  0  0  0
  -84.8397   34.0104   -0.0820 H   0  0  0  0  0  0  0  0  0  0  0  0
  -84.5780   32.0091    0.5451 C   0  0  0  0  0  0  0  0  0  0  0  0
  -85.1729   31.2814    1.5562 C   0  0  0  0  0  0  0  0  0  0  0  0
  -84.5134   30.2593    2.2148 C   0  0  0  0  0  0  0  0  0  0  0  0
  -83.2347   29.9221    1.8917 C   0  0  0  0  0  0  0  0  0  0  0  0
  -82.6175   30.6331    0.8854 C   0  0  0  0  0  0  0  0  0  0  0  0
  -83.2755   31.6512    0.2296 C   0  0  0  0  0  0  0  0  0  0  0  0
  1  2  2  0  0  0
  2  3  1  0  0  0
  3  4  1  0  0  0
  4 18  1  0  0  0
 18 20  1  0  0  0
 20 21  2  0  0  0
 21 22  1  0  0  0
 22 23  2  0  0  0
 23 24  1  0  0  0
 24 25  2  0  0  0
  4  5  2  0  0  0
  5  6  1  0  0  0
  6  7  2  0  0  0
  7  9  1  0  0  0
  9 10  2  0  0  0
 10 11  1  0  0  0
 11 12  2  0  0  0
 12 13  1  0  0  0
 13 14  1  0  0  0
 14 15  1  0  0  0
 15 16  1  0  0  0
 16 17  2  0  0  0
  6  2  1  0  0  0
 17  9  1  0  0  0
 25 20  1  0  0  0
 16 12  1  0  0  0
  3  8  1  0  0  0
 18 19  1  0  0  0
M  END
> <minimizedAffinity>
-8.50071

> <CNNscore>
0.3809600174

> <CNNaffinity>
5.3978219032

> <CNN_VS>
2.0563542843

> <CNNaffinity_variance>
0.2339120656

$$$$
[H]C(=C1N=C(N([H])c2c([H])c([H])c([H])c([H])c2[H])N([H])C1=O)c1c([H])c([H])c2c(c1[H])OC([H])([H])O2


 25 28  0  0  0  0  0  0  0  0999 V2000
  -89.4953   29.2582   -3.2010 O   0  0  0  0  0  0  0  0  0  0  0  0
  -88.8523   29.6284   -2.1999 C   0  0  0  0  0  0  0  0  0  0  0  0
  -87.7304   30.4918   -2.1892 N   0  0  0  0  0  0  0  0  0  0  0  0
  -87.3368   30.6256   -0.8397 C   0  0  0  0  0  0  0  0  0  0  0  0
  -88.1037   29.9376   -0.0648 N   0  0  0  0  0  0  0  0  0  0  0  0
  -89.1078   29.2572   -0.8101 C   0  0  0  0  0  0  0  0  0  0  0  0
  -90.0640   28.4542   -0.3859 C   0  0  0  0  0  0  0  0  0  0  0  0
  -87.2691   30.9491   -2.9906 H   0  0  0  0  0  0  0  0  0  0  0  0
  -90.2487   28.1370    1.0344 C   0  0  0  0  0  0  0  0  0  0  0  0
  -91.0396   28.9168    1.8204 C   0  0  0  0  0  0  0  0  0  0  0  0
  -91.2230   28.6518    3.1508 C   0  0  0  0  0  0  0  0  0  0  0  0
  -90.6096   27.5725    3.7644 C   0  0  0  0  0  0  0  0  0  0  0  0
  -90.6296   27.0983    5.0580 O   0  0  0  0  0  0  0  0  0  0  0  0
  -89.8950   25.8659    5.0807 C   0  0  0  0  0  0  0  0  0  0  0  0
  -89.3194   25.7868    3.8086 O   0  0  0  0  0  0  0  0  0  0  0  0
  -89.8089   26.7852    2.9639 C   0  0  0  0  0  0  0  0  0  0  0  0
  -89.6218   27.0555    1.6058 C   0  0  0  0  0  0  0  0  0  0  0  0
  -86.2436   31.4100   -0.3999 N   0  0  0  0  0  0  0  0  0  0  0  0
  -86.2782   32.4444   -0.6009 H   0  0  0  0  0  0  0  0  0  0  0  0
  -85.1192   30.9143    0.2836 C   0  0  0  0  0  0  0  0  0  0  0  0
  -83.8973   31.5525    0.2109 C   0  0  0  0  0  0  0  0  0  0  0  0
  -82.7785   31.0800    0.8731 C   0  0  0  0  0  0  0  0  0  0  0  0
  -82.8334   29.9524    1.6339 C   0  0  0  0  0  0  0  0  0  0  0  0
  -84.0416   29.2959    1.7233 C   0  0  0  0  0  0  0  0  0  0  0  0
  -85.1560   29.7676    1.0634 C   0  0  0  0  0  0  0  0  0  0  0  0
  1  2  2  0  0  0
  2  3  1  0  0  0
  3  4  1  0  0  0
  4 18  1  0  0  0
 18 20  1  0  0  0
 20 21  2  0  0  0
 21 22  1  0  0  0
 22 23  2  0  0  0
 23 24  1  0  0  0
 24 25  2  0  0  0
  4  5  2  0  0  0
  5  6  1  0  0  0
  6  7  2  0  0  0
  7  9  1  0  0  0
  9 10  2  0  0  0
 10 11  1  0  0  0
 11 12  2  0  0  0
 12 13  1  0  0  0
 13 14  1  0  0  0
 14 15  1  0  0  0
 15 16  1  0  0  0
 16 17  2  0  0  0
  6  2  1  0  0  0
 17  9  1  0  0  0
 25 20  1  0  0  0
 16 12  1  0  0  0
  3  8  1  0  0  0
 18 19  1  0  0  0
M  END
> <minimizedAffinity>
-8.90994

> <CNNscore>
0.3615520895

> <CNNaffinity>
5.7028989792

> <CNN_VS>
2.0618951321

> <CNNaffinity_variance>
0.2473673522

$$$$
[H]C(=C1N=C(N([H])c2c([H])c([H])c([H])c([H])c2[H])N([H])C1=O)c1c([H])c([H])c2c(c1[H])OC([H])([H])O2


 25 28  0  0  0  0  0  0  0  0999 V2000
  -83.9945   28.0844    3.1066 O   0  0  0  0  0  0  0  0  0  0  0  0
  -84.8842   28.0363    2.2355 C   0  0  0  0  0  0  0  0  0  0  0  0
  -85.6901   26.9179    1.9130 N   0  0  0  0  0  0  0  0  0  0  0  0
  -86.5510   27.3277    0.8713 C   0  0  0  0  0  0  0  0  0  0  0  0
  -86.3366   28.5582    0.5524 N   0  0  0  0  0  0  0  0  0  0  0  0
  -85.2992   29.1206    1.3486 C   0  0  0  0  0  0  0  0  0  0  0  0
  -84.7878   30.3359    1.3189 C   0  0  0  0  0  0  0  0  0  0  0  0
  -85.6761   25.9774    2.3367 H   0  0  0  0  0  0  0  0  0  0  0  0
  -85.2692   31.3665    0.3926 C   0  0  0  0  0  0  0  0  0  0  0  0
  -84.4065   32.2703   -0.1461 C   0  0  0  0  0  0  0  0  0  0  0  0
  -84.8278   33.2493   -1.0051 C   0  0  0  0  0  0  0  0  0  0  0  0
  -86.1585   33.3682   -1.3693 C   0  0  0  0  0  0  0  0  0  0  0  0
  -86.8255   34.2449   -2.1971 O   0  0  0  0  0  0  0  0  0  0  0  0
  -88.1886   33.8059   -2.2874 C   0  0  0  0  0  0  0  0  0  0  0  0
  -88.2827   32.7833   -1.3380 O   0  0  0  0  0  0  0  0  0  0  0  0
  -87.0291   32.4501   -0.8208 C   0  0  0  0  0  0  0  0  0  0  0  0
  -86.5992   31.4506    0.0560 C   0  0  0  0  0  0  0  0  0  0  0  0
  -87.5183   26.4947    0.2595 N   0  0  0  0  0  0  0  0  0  0  0  0
  -87.3301   25.4573    0.2543 H   0  0  0  0  0  0  0  0  0  0  0  0
  -88.7078   26.9461   -0.3393 C   0  0  0  0  0  0  0  0  0  0  0  0
  -88.7658   27.2381   -1.6873 C   0  0  0  0  0  0  0  0  0  0  0  0
  -89.9248   27.6858   -2.2952 C   0  0  0  0  0  0  0  0  0  0  0  0
  -91.0720   27.8605   -1.5834 C   0  0  0  0  0  0  0  0  0  0  0  0
  -91.0413   27.5761   -0.2354 C   0  0  0  0  0  0  0  0  0  0  0  0
  -89.8860   27.1297    0.3694 C   0  0  0  0  0  0  0  0  0  0  0  0
  1  2  2  0  0  0
  2  3  1  0  0  0
  3  4  1  0  0  0
  4 18  1  0  0  0
 18 20  1  0  0  0
 20 21  2  0  0  0
 21 22  1  0  0  0
 22 23  2  0  0  0
 23 24  1  0  0  0
 24 25  2  0  0  0
  4  5  2  0  0  0
  5  6  1  0  0  0
  6  7  2  0  0  0
  7  9  1  0  0  0
  9 10  2  0  0  0
 10 11  1  0  0  0
 11 12  2  0  0  0
 12 13  1  0  0  0
 13 14  1  0  0  0
 14 15  1  0  0  0
 15 16  1  0  0  0
 16 17  2  0  0  0
  6  2  1  0  0  0
 17  9  1  0  0  0
 25 20  1  0  0  0
 16 12  1  0  0  0
  3  8  1  0  0  0
 18 19  1  0  0  0
M  END
> <minimizedAffinity>
-7.63211

> <CNNscore>
0.3482258916

> <CNNaffinity>
5.8618426323

> <CNN_VS>
2.0412454605

> <CNNaffinity_variance>
0.2337718904

$$$$
[H]C(=C1N=C(N([H])c2c([H])c([H])c([H])c([H])c2[H])N([H])C1=O)c1c([H])c([H])c2c(c1[H])OC([H])([H])O2


 25 28  0  0  0  0  0  0  0  0999 V2000
  -82.5080   30.2876    1.4621 O   0  0  0  0  0  0  0  0  0  0  0  0
  -83.5756   30.7670    1.0342 C   0  0  0  0  0  0  0  0  0  0  0  0
  -83.7857   32.0937    0.5870 N   0  0  0  0  0  0  0  0  0  0  0  0
  -85.1407   32.1789    0.1985 C   0  0  0  0  0  0  0  0  0  0  0  0
  -85.7416   31.0512    0.3692 N   0  0  0  0  0  0  0  0  0  0  0  0
  -84.8530   30.0717    0.8961 C   0  0  0  0  0  0  0  0  0  0  0  0
  -85.0888   28.8137    1.2142 C   0  0  0  0  0  0  0  0  0  0  0  0
  -83.1048   32.8673    0.5409 H   0  0  0  0  0  0  0  0  0  0  0  0
  -86.4073   28.1949    1.0397 C   0  0  0  0  0  0  0  0  0  0  0  0
  -86.9106   27.9779   -0.2057 C   0  0  0  0  0  0  0  0  0  0  0  0
  -88.1418   27.4118   -0.3997 C   0  0  0  0  0  0  0  0  0  0  0  0
  -88.9387   27.0308    0.6668 C   0  0  0  0  0  0  0  0  0  0  0  0
  -90.1877   26.4535    0.7399 O   0  0  0  0  0  0  0  0  0  0  0  0
  -90.4578   26.1751    2.1214 C   0  0  0  0  0  0  0  0  0  0  0  0
  -89.4051   26.7898    2.8068 O   0  0  0  0  0  0  0  0  0  0  0  0
  -88.4245   27.2528    1.9270 C   0  0  0  0  0  0  0  0  0  0  0  0
  -87.1678   27.8305    2.1252 C   0  0  0  0  0  0  0  0  0  0  0  0
  -85.7548   33.3492   -0.3084 N   0  0  0  0  0  0  0  0  0  0  0  0
  -85.4052   34.2753    0.0544 H   0  0  0  0  0  0  0  0  0  0  0  0
  -86.7924   33.3686   -1.2573 C   0  0  0  0  0  0  0  0  0  0  0  0
  -86.5823   33.8343   -2.5398 C   0  0  0  0  0  0  0  0  0  0  0  0
  -87.5897   33.8645   -3.4871 C   0  0  0  0  0  0  0  0  0  0  0  0
  -88.8467   33.4318   -3.1936 C   0  0  0  0  0  0  0  0  0  0  0  0
  -89.0833   32.9618   -1.9200 C   0  0  0  0  0  0  0  0  0  0  0  0
  -88.0787   32.9319   -0.9768 C   0  0  0  0  0  0  0  0  0  0  0  0
  1  2  2  0  0  0
  2  3  1  0  0  0
  3  4  1  0  0  0
  4 18  1  0  0  0
 18 20  1  0  0  0
 20 21  2  0  0  0
 21 22  1  0  0  0
 22 23  2  0  0  0
 23 24  1  0  0  0
 24 25  2  0  0  0
  4  5  2  0  0  0
  5  6  1  0  0  0
  6  7  2  0  0  0
  7  9  1  0  0  0
  9 10  2  0  0  0
 10 11  1  0  0  0
 11 12  2  0  0  0
 12 13  1  0  0  0
 13 14  1  0  0  0
 14 15  1  0  0  0
 15 16  1  0  0  0
 16 17  2  0  0  0
  6  2  1  0  0  0
 17  9  1  0  0  0
 25 20  1  0  0  0
 16 12  1  0  0  0
  3  8  1  0  0  0
 18 19  1  0  0  0
M  END
> <minimizedAffinity>
-7.86826

> <CNNscore>
0.3391582072

> <CNNaffinity>
5.8851380348

> <CNN_VS>
1.9959928989

> <CNNaffinity_variance>
0.3890026510

$$$$
[H]c1nc(N([H])C(=O)c2nc(-c3c([H])c([H])c4c(c3[H])C([H])([H])C([H])([H])O4)sc2[H])n([H])c1[H]


 24 27  0  0  0  0  0  0  0  0999 V2000
  -87.1714   32.8741   -1.3692 C   0  0  0  0  0  0  0  0  0  0  0  0
  -88.3851   32.2609   -1.5608 C   0  0  0  0  0  0  0  0  0  0  0  0
  -89.1241   33.2978   -2.6967 S   0  0  0  0  0  0  0  0  0  0  0  0
  -87.8646   34.4350   -2.8597 C   0  0  0  0  0  0  0  0  0  0  0  0
  -86.9491   33.9689   -2.0441 N   0  0  0  0  0  0  0  0  0  0  0  0
  -87.8136   35.6524   -3.7126 C   0  0  0  0  0  0  0  0  0  0  0  0
  -88.1038   36.8368   -3.1212 C   0  0  0  0  0  0  0  0  0  0  0  0
  -88.0761   38.0065   -3.8519 C   0  0  0  0  0  0  0  0  0  0  0  0
  -87.7406   37.9121   -5.2051 C   0  0  0  0  0  0  0  0  0  0  0  0
  -87.6352   38.8956   -6.1630 O   0  0  0  0  0  0  0  0  0  0  0  0
  -86.9359   38.4337   -7.2784 C   0  0  0  0  0  0  0  0  0  0  0  0
  -87.1297   36.9248   -7.2381 C   0  0  0  0  0  0  0  0  0  0  0  0
  -87.4473   36.7005   -5.7946 C   0  0  0  0  0  0  0  0  0  0  0  0
  -87.4857   35.5411   -5.0249 C   0  0  0  0  0  0  0  0  0  0  0  0
  -85.2735   33.0437    0.1033 O   0  0  0  0  0  0  0  0  0  0  0  0
  -86.1517   32.3181   -0.4341 C   0  0  0  0  0  0  0  0  0  0  0  0
  -86.1606   30.9352   -0.1334 N   0  0  0  0  0  0  0  0  0  0  0  0
  -86.8689   30.2728   -0.5495 H   0  0  0  0  0  0  0  0  0  0  0  0
  -85.2128   30.3809    0.7442 C   0  0  0  0  0  0  0  0  0  0  0  0
  -83.8627   30.3753    0.5372 N   0  0  0  0  0  0  0  0  0  0  0  0
  -83.2302   29.7819    1.5380 C   0  0  0  0  0  0  0  0  0  0  0  0
  -84.2132   29.3904    2.4241 C   0  0  0  0  0  0  0  0  0  0  0  0
  -85.4063   29.7605    1.9285 N   0  0  0  0  0  0  0  0  0  0  0  0
  -86.3633   29.6296    2.3260 H   0  0  0  0  0  0  0  0  0  0  0  0
 15 16  2  0  0  0
 16 17  1  0  0  0
 17 19  1  0  0  0
 19 20  2  0  0  0
 20 21  1  0  0  0
 21 22  2  0  0  0
 22 23  1  0  0  0
 16  1  1  0  0  0
  1  2  2  0  0  0
  2  3  1  0  0  0
  3  4  1  0  0  0
  4  5  2  0  0  0
  4  6  1  0  0  0
  6  7  2  0  0  0
  7  8  1  0  0  0
  8  9  2  0  0  0
  9 10  1  0  0  0
 10 11  1  0  0  0
 11 12  1  0  0  0
 12 13  1  0  0  0
 13 14  2  0  0  0
 23 19  1  0  0  0
  5  1  1  0  0  0
 14  6  1  0  0  0
 13  9  1  0  0  0
 17 18  1  0  0  0
 23 24  1  0  0  0
M  END
> <minimizedAffinity>
-6.53493

> <CNNscore>
0.3350354731

> <CNNaffinity>
5.6357278824

> <CNN_VS>
1.8881688118

> <CNNaffinity_variance>
0.0570288971

$$$$
[H]c1nc(N([H])C(=O)c2nc(-c3c([H])c([H])c4c(c3[H])C([H])([H])C([H])([H])O4)sc2[H])n([H])c1[H]


 24 27  0  0  0  0  0  0  0  0999 V2000
  -87.9979   33.2675   -2.0147 C   0  0  0  0  0  0  0  0  0  0  0  0
  -89.1598   32.6173   -1.6784 C   0  0  0  0  0  0  0  0  0  0  0  0
  -88.5887   31.4105   -0.6157 S   0  0  0  0  0  0  0  0  0  0  0  0
  -86.9291   31.7974   -0.6602 C   0  0  0  0  0  0  0  0  0  0  0  0
  -86.8946   32.8217   -1.4787 N   0  0  0  0  0  0  0  0  0  0  0  0
  -85.8001   31.1396    0.0504 C   0  0  0  0  0  0  0  0  0  0  0  0
  -84.6320   31.8228    0.1252 C   0  0  0  0  0  0  0  0  0  0  0  0
  -83.5429   31.2735    0.7694 C   0  0  0  0  0  0  0  0  0  0  0  0
  -83.7001   30.0031    1.3300 C   0  0  0  0  0  0  0  0  0  0  0  0
  -82.8011   29.2215    2.0206 O   0  0  0  0  0  0  0  0  0  0  0  0
  -83.4543   28.1993    2.7097 C   0  0  0  0  0  0  0  0  0  0  0  0
  -84.7497   28.0002    1.9361 C   0  0  0  0  0  0  0  0  0  0  0  0
  -84.8943   29.3188    1.2468 C   0  0  0  0  0  0  0  0  0  0  0  0
  -85.9716   29.9055    0.5885 C   0  0  0  0  0  0  0  0  0  0  0  0
  -88.8829   35.3200   -2.9109 O   0  0  0  0  0  0  0  0  0  0  0  0
  -87.9928   34.4296   -2.9489 C   0  0  0  0  0  0  0  0  0  0  0  0
  -86.9621   34.5468   -3.9117 N   0  0  0  0  0  0  0  0  0  0  0  0
  -86.1868   33.8360   -3.9964 H   0  0  0  0  0  0  0  0  0  0  0  0
  -86.9295   35.6306   -4.8063 C   0  0  0  0  0  0  0  0  0  0  0  0
  -87.4797   35.6312   -6.0565 N   0  0  0  0  0  0  0  0  0  0  0  0
  -87.2878   36.7941   -6.6603 C   0  0  0  0  0  0  0  0  0  0  0  0
  -86.5861   37.5723   -5.7622 C   0  0  0  0  0  0  0  0  0  0  0  0
  -86.3777   36.8532   -4.6462 N   0  0  0  0  0  0  0  0  0  0  0  0
  -85.8850   37.1184   -3.7643 H   0  0  0  0  0  0  0  0  0  0  0  0
 15 16  2  0  0  0
 16 17  1  0  0  0
 17 19  1  0  0  0
 19 20  2  0  0  0
 20 21  1  0  0  0
 21 22  2  0  0  0
 22 23  1  0  0  0
 16  1  1  0  0  0
  1  2  2  0  0  0
  2  3  1  0  0  0
  3  4  1  0  0  0
  4  5  2  0  0  0
  4  6  1  0  0  0
  6  7  2  0  0  0
  7  8  1  0  0  0
  8  9  2  0  0  0
  9 10  1  0  0  0
 10 11  1  0  0  0
 11 12  1  0  0  0
 12 13  1  0  0  0
 13 14  2  0  0  0
 23 19  1  0  0  0
  5  1  1  0  0  0
 14  6  1  0  0  0
 13  9  1  0  0  0
 17 18  1  0  0  0
 23 24  1  0  0  0
M  END
> <minimizedAffinity>
-8.37165

> <CNNscore>
0.3319125175

> <CNNaffinity>
5.6382422447

> <CNN_VS>
1.8714032173

> <CNNaffinity_variance>
0.1489280611

$$$$
[H]c1nc(N([H])C(=O)c2nc(-c3c([H])c([H])c4c(c3[H])C([H])([H])C([H])([H])O4)sc2[H])n([H])c1[H]


 24 27  0  0  0  0  0  0  0  0999 V2000
  -89.6507   25.7333    3.9969 C   0  0  0  0  0  0  0  0  0  0  0  0
  -90.3287   26.5173    4.8978 C   0  0  0  0  0  0  0  0  0  0  0  0
  -90.6492   27.9143    3.9719 S   0  0  0  0  0  0  0  0  0  0  0  0
  -89.9128   27.4272    2.5136 C   0  0  0  0  0  0  0  0  0  0  0  0
  -89.4622   26.2303    2.8049 N   0  0  0  0  0  0  0  0  0  0  0  0
  -89.8063   28.1713    1.2302 C   0  0  0  0  0  0  0  0  0  0  0  0
  -90.9572   28.6335    0.6838 C   0  0  0  0  0  0  0  0  0  0  0  0
  -90.9332   29.3320   -0.5055 C   0  0  0  0  0  0  0  0  0  0  0  0
  -89.6886   29.5357   -1.1073 C   0  0  0  0  0  0  0  0  0  0  0  0
  -89.3653   30.1862   -2.2770 O   0  0  0  0  0  0  0  0  0  0  0  0
  -88.0008   30.4727   -2.3284 C   0  0  0  0  0  0  0  0  0  0  0  0
  -87.3696   29.4343   -1.4122 C   0  0  0  0  0  0  0  0  0  0  0  0
  -88.5249   29.0600   -0.5405 C   0  0  0  0  0  0  0  0  0  0  0  0
  -88.5888   28.3592    0.6607 C   0  0  0  0  0  0  0  0  0  0  0  0
  -88.2394   24.2067    5.2123 O   0  0  0  0  0  0  0  0  0  0  0  0
  -89.1511   24.3760    4.3599 C   0  0  0  0  0  0  0  0  0  0  0  0
  -89.7103   23.2361    3.7348 N   0  0  0  0  0  0  0  0  0  0  0  0
  -90.4765   23.3084    3.0128 H   0  0  0  0  0  0  0  0  0  0  0  0
  -89.2609   21.9434    4.0554 C   0  0  0  0  0  0  0  0  0  0  0  0
  -89.7120   20.7912    3.4767 N   0  0  0  0  0  0  0  0  0  0  0  0
  -89.1012   19.7322    3.9858 C   0  0  0  0  0  0  0  0  0  0  0  0
  -88.2221   20.2232    4.9296 C   0  0  0  0  0  0  0  0  0  0  0  0
  -88.3317   21.5623    4.9589 N   0  0  0  0  0  0  0  0  0  0  0  0
  -87.8241   22.2602    5.5473 H   0  0  0  0  0  0  0  0  0  0  0  0
 15 16  2  0  0  0
 16 17  1  0  0  0
 17 19  1  0  0  0
 19 20  2  0  0  0
 20 21  1  0  0  0
 21 22  2  0  0  0
 22 23  1  0  0  0
 16  1  1  0  0  0
  1  2  2  0  0  0
  2  3  1  0  0  0
  3  4  1  0  0  0
  4  5  2  0  0  0
  4  6  1  0  0  0
  6  7  2  0  0  0
  7  8  1  0  0  0
  8  9  2  0  0  0
  9 10  1  0  0  0
 10 11  1  0  0  0
 11 12  1  0  0  0
 12 13  1  0  0  0
 13 14  2  0  0  0
 23 19  1  0  0  0
  5  1  1  0  0  0
 14  6  1  0  0  0
 13  9  1  0  0  0
 17 18  1  0  0  0
 23 24  1  0  0  0
M  END
> <minimizedAffinity>
-7.20167

> <CNNscore>
0.2642388940

> <CNNaffinity>
5.4293189049

> <CNN_VS>
1.4346371889

> <CNNaffinity_variance>
0.0950342342

$$$$
[H]c1nc(N([H])C(=O)c2nc(-c3c([H])c([H])c4c(c3[H])C([H])([H])C([H])([H])O4)sc2[H])n([H])c1[H]


 24 27  0  0  0  0  0  0  0  0999 V2000
  -85.8586   31.6551   -0.1249 C   0  0  0  0  0  0  0  0  0  0  0  0
  -84.6484   31.4851    0.5015 C   0  0  0  0  0  0  0  0  0  0  0  0
  -84.8430   29.9521    1.2252 S   0  0  0  0  0  0  0  0  0  0  0  0
  -86.4295   29.6210    0.6966 C   0  0  0  0  0  0  0  0  0  0  0  0
  -86.7290   30.6905   -0.0012 N   0  0  0  0  0  0  0  0  0  0  0  0
  -87.2673   28.4205    0.9595 C   0  0  0  0  0  0  0  0  0  0  0  0
  -86.7767   27.4989    1.8236 C   0  0  0  0  0  0  0  0  0  0  0  0
  -87.5000   26.3608    2.1142 C   0  0  0  0  0  0  0  0  0  0  0  0
  -88.7390   26.2079    1.4862 C   0  0  0  0  0  0  0  0  0  0  0  0
  -89.6627   25.1914    1.5835 O   0  0  0  0  0  0  0  0  0  0  0  0
  -90.9019   25.5931    1.0840 C   0  0  0  0  0  0  0  0  0  0  0  0
  -90.5630   26.7097    0.1071 C   0  0  0  0  0  0  0  0  0  0  0  0
  -89.2266   27.1535    0.6090 C   0  0  0  0  0  0  0  0  0  0  0  0
  -88.4679   28.2894    0.3403 C   0  0  0  0  0  0  0  0  0  0  0  0
  -85.7132   34.0135   -0.5897 O   0  0  0  0  0  0  0  0  0  0  0  0
  -86.1679   32.8837   -0.9111 C   0  0  0  0  0  0  0  0  0  0  0  0
  -86.9963   32.7905   -2.0548 N   0  0  0  0  0  0  0  0  0  0  0  0
  -87.4093   31.8749   -2.3782 H   0  0  0  0  0  0  0  0  0  0  0  0
  -87.3063   33.9303   -2.8168 C   0  0  0  0  0  0  0  0  0  0  0  0
  -88.5108   34.5744   -2.8085 N   0  0  0  0  0  0  0  0  0  0  0  0
  -88.5002   35.6141   -3.6286 C   0  0  0  0  0  0  0  0  0  0  0  0
  -87.2382   35.6395   -4.1866 C   0  0  0  0  0  0  0  0  0  0  0  0
  -86.5290   34.6142   -3.6847 N   0  0  0  0  0  0  0  0  0  0  0  0
  -85.5440   34.3264   -3.8788 H   0  0  0  0  0  0  0  0  0  0  0  0
 15 16  2  0  0  0
 16 17  1  0  0  0
 17 19  1  0  0  0
 19 20  2  0  0  0
 20 21  1  0  0  0
 21 22  2  0  0  0
 22 23  1  0  0  0
 16  1  1  0  0  0
  1  2  2  0  0  0
  2  3  1  0  0  0
  3  4  1  0  0  0
  4  5  2  0  0  0
  4  6  1  0  0  0
  6  7  2  0  0  0
  7  8  1  0  0  0
  8  9  2  0  0  0
  9 10  1  0  0  0
 10 11  1  0  0  0
 11 12  1  0  0  0
 12 13  1  0  0  0
 13 14  2  0  0  0
 23 19  1  0  0  0
  5  1  1  0  0  0
 14  6  1  0  0  0
 13  9  1  0  0  0
 17 18  1  0  0  0
 23 24  1  0  0  0
M  END
> <minimizedAffinity>
-7.07746

> <CNNscore>
0.2433456779

> <CNNaffinity>
6.0030050278

> <CNN_VS>
1.4608052969

> <CNNaffinity_variance>
0.4341460764

$$$$
[H]c1nc(N([H])C(=O)c2nc(-c3c([H])c([H])c4c(c3[H])C([H])([H])C([H])([H])O4)sc2[H])n([H])c1[H]


 24 27  0  0  0  0  0  0  0  0999 V2000
  -86.3783   33.0052   -1.4335 C   0  0  0  0  0  0  0  0  0  0  0  0
  -85.1928   33.4809   -0.9293 C   0  0  0  0  0  0  0  0  0  0  0  0
  -84.7501   32.2373    0.1520 S   0  0  0  0  0  0  0  0  0  0  0  0
  -86.0794   31.1994   -0.0964 C   0  0  0  0  0  0  0  0  0  0  0  0
  -86.7898   31.8501   -0.9866 N   0  0  0  0  0  0  0  0  0  0  0  0
  -86.3650   29.8841    0.5365 C   0  0  0  0  0  0  0  0  0  0  0  0
  -85.3890   29.3397    1.3033 C   0  0  0  0  0  0  0  0  0  0  0  0
  -85.5851   28.1219    1.9209 C   0  0  0  0  0  0  0  0  0  0  0  0
  -86.8152   27.4897    1.7211 C   0  0  0  0  0  0  0  0  0  0  0  0
  -87.2830   26.2881    2.2039 O   0  0  0  0  0  0  0  0  0  0  0  0
  -88.6686   26.1999    2.0663 C   0  0  0  0  0  0  0  0  0  0  0  0
  -88.9878   27.1473    0.9189 C   0  0  0  0  0  0  0  0  0  0  0  0
  -87.7999   28.0548    0.9385 C   0  0  0  0  0  0  0  0  0  0  0  0
  -87.5655   29.2853    0.3311 C   0  0  0  0  0  0  0  0  0  0  0  0
  -88.4105   33.9118   -2.3539 O   0  0  0  0  0  0  0  0  0  0  0  0
  -87.1623   33.7701   -2.4453 C   0  0  0  0  0  0  0  0  0  0  0  0
  -86.4953   34.3593   -3.5457 N   0  0  0  0  0  0  0  0  0  0  0  0
  -85.4519   34.2783   -3.6812 H   0  0  0  0  0  0  0  0  0  0  0  0
  -87.2063   35.0864   -4.5161 C   0  0  0  0  0  0  0  0  0  0  0  0
  -86.8750   36.3359   -4.9573 N   0  0  0  0  0  0  0  0  0  0  0  0
  -87.7325   36.7602   -5.8729 C   0  0  0  0  0  0  0  0  0  0  0  0
  -88.6520   35.7426   -6.0266 C   0  0  0  0  0  0  0  0  0  0  0  0
  -88.3189   34.7380   -5.1985 N   0  0  0  0  0  0  0  0  0  0  0  0
  -88.7851   33.8155   -5.0477 H   0  0  0  0  0  0  0  0  0  0  0  0
 15 16  2  0  0  0
 16 17  1  0  0  0
 17 19  1  0  0  0
 19 20  2  0  0  0
 20 21  1  0  0  0
 21 22  2  0  0  0
 22 23  1  0  0  0
 16  1  1  0  0  0
  1  2  2  0  0  0
  2  3  1  0  0  0
  3  4  1  0  0  0
  4  5  2  0  0  0
  4  6  1  0  0  0
  6  7  2  0  0  0
  7  8  1  0  0  0
  8  9  2  0  0  0
  9 10  1  0  0  0
 10 11  1  0  0  0
 11 12  1  0  0  0
 12 13  1  0  0  0
 13 14  2  0  0  0
 23 19  1  0  0  0
  5  1  1  0  0  0
 14  6  1  0  0  0
 13  9  1  0  0  0
 17 18  1  0  0  0
 23 24  1  0  0  0
M  END
> <minimizedAffinity>
-7.39267

> <CNNscore>
0.2213436961

> <CNNaffinity>
5.4951181412

> <CNN_VS>
1.2163097858

> <CNNaffinity_variance>
0.2169172466

$$$$
[H]c1nc(N([H])C(=O)c2nc(-c3c([H])c([H])c4c(c3[H])C([H])([H])C([H])([H])O4)sc2[H])n([H])c1[H]


 24 27  0  0  0  0  0  0  0  0999 V2000
  -87.3367   31.8861   -1.4846 C   0  0  0  0  0  0  0  0  0  0  0  0
  -87.9684   30.9676   -2.2865 C   0  0  0  0  0  0  0  0  0  0  0  0
  -88.8581   31.9757   -3.3371 S   0  0  0  0  0  0  0  0  0  0  0  0
  -88.3819   33.4854   -2.7045 C   0  0  0  0  0  0  0  0  0  0  0  0
  -87.5728   33.1461   -1.7294 N   0  0  0  0  0  0  0  0  0  0  0  0
  -88.7821   34.8482   -3.1458 C   0  0  0  0  0  0  0  0  0  0  0  0
  -90.0093   34.9838   -3.7048 C   0  0  0  0  0  0  0  0  0  0  0  0
  -90.4461   36.2188   -4.1369 C   0  0  0  0  0  0  0  0  0  0  0  0
  -89.5784   37.3019   -3.9732 C   0  0  0  0  0  0  0  0  0  0  0  0
  -89.7433   38.6279   -4.3053 O   0  0  0  0  0  0  0  0  0  0  0  0
  -88.8030   39.4266   -3.6537 C   0  0  0  0  0  0  0  0  0  0  0  0
  -87.6477   38.4786   -3.3661 C   0  0  0  0  0  0  0  0  0  0  0  0
  -88.3322   37.1501   -3.4027 C   0  0  0  0  0  0  0  0  0  0  0  0
  -87.9259   35.8879   -2.9786 C   0  0  0  0  0  0  0  0  0  0  0  0
  -85.7594   32.3023    0.2868 O   0  0  0  0  0  0  0  0  0  0  0  0
  -86.4224   31.4673   -0.3837 C   0  0  0  0  0  0  0  0  0  0  0  0
  -86.2869   30.0931   -0.0735 N   0  0  0  0  0  0  0  0  0  0  0  0
  -86.8135   29.3429   -0.5964 H   0  0  0  0  0  0  0  0  0  0  0  0
  -85.4331   29.6666    0.9585 C   0  0  0  0  0  0  0  0  0  0  0  0
  -84.0684   29.6919    0.9070 N   0  0  0  0  0  0  0  0  0  0  0  0
  -83.5411   29.2269    2.0292 C   0  0  0  0  0  0  0  0  0  0  0  0
  -84.6097   28.8891    2.8346 C   0  0  0  0  0  0  0  0  0  0  0  0
  -85.7464   29.1614    2.1716 N   0  0  0  0  0  0  0  0  0  0  0  0
  -86.7393   29.0345    2.4700 H   0  0  0  0  0  0  0  0  0  0  0  0
 15 16  2  0  0  0
 16 17  1  0  0  0
 17 19  1  0  0  0
 19 20  2  0  0  0
 20 21  1  0  0  0
 21 22  2  0  0  0
 22 23  1  0  0  0
 16  1  1  0  0  0
  1  2  2  0  0  0
  2  3  1  0  0  0
  3  4  1  0  0  0
  4  5  2  0  0  0
  4  6  1  0  0  0
  6  7  2  0  0  0
  7  8  1  0  0  0
  8  9  2  0  0  0
  9 10  1  0  0  0
 10 11  1  0  0  0
 11 12  1  0  0  0
 12 13  1  0  0  0
 13 14  2  0  0  0
 23 19  1  0  0  0
  5  1  1  0  0  0
 14  6  1  0  0  0
 13  9  1  0  0  0
 17 18  1  0  0  0
 23 24  1  0  0  0
M  END
> <minimizedAffinity>
-6.51176

> <CNNscore>
0.1428465098

> <CNNaffinity>
5.4463300705

> <CNN_VS>
0.7779892683

> <CNNaffinity_variance>
0.2723410130

$$$$
[H]c1nc(N([H])C(=O)c2nc(-c3c([H])c([H])c4c(c3[H])C([H])([H])C([H])([H])O4)sc2[H])n([H])c1[H]


 24 27  0  0  0  0  0  0  0  0999 V2000
  -87.0700   33.4942   -1.9360 C   0  0  0  0  0  0  0  0  0  0  0  0
  -85.8400   33.5872   -1.3324 C   0  0  0  0  0  0  0  0  0  0  0  0
  -85.8218   32.1847   -0.3605 S   0  0  0  0  0  0  0  0  0  0  0  0
  -87.3577   31.5703   -0.7723 C   0  0  0  0  0  0  0  0  0  0  0  0
  -87.8043   32.4609   -1.6255 N   0  0  0  0  0  0  0  0  0  0  0  0
  -88.0269   30.3338   -0.2870 C   0  0  0  0  0  0  0  0  0  0  0  0
  -89.3819   30.3328   -0.2570 C   0  0  0  0  0  0  0  0  0  0  0  0
  -90.0688   29.2199    0.1817 C   0  0  0  0  0  0  0  0  0  0  0  0
  -89.3139   28.1154    0.5856 C   0  0  0  0  0  0  0  0  0  0  0  0
  -89.7214   26.8892    1.0613 O   0  0  0  0  0  0  0  0  0  0  0  0
  -88.6814   25.9609    1.0050 C   0  0  0  0  0  0  0  0  0  0  0  0
  -87.4215   26.8138    1.0390 C   0  0  0  0  0  0  0  0  0  0  0  0
  -87.9355   28.1297    0.5499 C   0  0  0  0  0  0  0  0  0  0  0  0
  -87.2771   29.2712    0.1011 C   0  0  0  0  0  0  0  0  0  0  0  0
  -88.7205   34.9836   -2.8616 O   0  0  0  0  0  0  0  0  0  0  0  0
  -87.5483   34.5243   -2.9021 C   0  0  0  0  0  0  0  0  0  0  0  0
  -86.6683   35.0084   -3.8991 N   0  0  0  0  0  0  0  0  0  0  0  0
  -85.6742   34.6656   -3.9878 H   0  0  0  0  0  0  0  0  0  0  0  0
  -87.0893   35.9793   -4.8243 C   0  0  0  0  0  0  0  0  0  0  0  0
  -87.4076   35.7318   -6.1294 N   0  0  0  0  0  0  0  0  0  0  0  0
  -87.7686   36.8444   -6.7504 C   0  0  0  0  0  0  0  0  0  0  0  0
  -87.6789   37.8474   -5.8067 C   0  0  0  0  0  0  0  0  0  0  0  0
  -87.2665   37.3068   -4.6475 N   0  0  0  0  0  0  0  0  0  0  0  0
  -87.0893   37.7629   -3.7247 H   0  0  0  0  0  0  0  0  0  0  0  0
 15 16  2  0  0  0
 16 17  1  0  0  0
 17 19  1  0  0  0
 19 20  2  0  0  0
 20 21  1  0  0  0
 21 22  2  0  0  0
 22 23  1  0  0  0
 16  1  1  0  0  0
  1  2  2  0  0  0
  2  3  1  0  0  0
  3  4  1  0  0  0
  4  5  2  0  0  0
  4  6  1  0  0  0
  6  7  2  0  0  0
  7  8  1  0  0  0
  8  9  2  0  0  0
  9 10  1  0  0  0
 10 11  1  0  0  0
 11 12  1  0  0  0
 12 13  1  0  0  0
 13 14  2  0  0  0
 23 19  1  0  0  0
  5  1  1  0  0  0
 14  6  1  0  0  0
 13  9  1  0  0  0
 17 18  1  0  0  0
 23 24  1  0  0  0
M  END
> <minimizedAffinity>
-6.77001

> <CNNscore>
0.1309327334

> <CNNaffinity>
5.1966266632

> <CNN_VS>
0.6804085374

> <CNNaffinity_variance>
0.2468595803

$$$$
[H]c1nc(N([H])C(=O)c2nc(-c3c([H])c([H])c4c(c3[H])C([H])([H])C([H])([H])O4)sc2[H])n([H])c1[H]


 24 27  0  0  0  0  0  0  0  0999 V2000
  -87.6658   32.6583   -1.7917 C   0  0  0  0  0  0  0  0  0  0  0  0
  -87.1222   33.9191   -1.8140 C   0  0  0  0  0  0  0  0  0  0  0  0
  -85.7001   33.7018   -0.8965 S   0  0  0  0  0  0  0  0  0  0  0  0
  -85.8768   32.0436   -0.5427 C   0  0  0  0  0  0  0  0  0  0  0  0
  -87.0053   31.7411   -1.1390 N   0  0  0  0  0  0  0  0  0  0  0  0
  -84.9779   31.1583    0.2450 C   0  0  0  0  0  0  0  0  0  0  0  0
  -83.7233   31.6085    0.4903 C   0  0  0  0  0  0  0  0  0  0  0  0
  -82.8358   30.8399    1.2145 C   0  0  0  0  0  0  0  0  0  0  0  0
  -83.2850   29.5989    1.6738 C   0  0  0  0  0  0  0  0  0  0  0  0
  -82.6306   28.6358    2.4087 O   0  0  0  0  0  0  0  0  0  0  0  0
  -83.5348   27.7253    2.9565 C   0  0  0  0  0  0  0  0  0  0  0  0
  -84.7430   27.8030    2.0344 C   0  0  0  0  0  0  0  0  0  0  0  0
  -84.5644   29.1529    1.4172 C   0  0  0  0  0  0  0  0  0  0  0  0
  -85.4319   29.9565    0.6827 C   0  0  0  0  0  0  0  0  0  0  0  0
  -89.5116   33.1707   -3.2511 O   0  0  0  0  0  0  0  0  0  0  0  0
  -88.9514   32.3471   -2.4802 C   0  0  0  0  0  0  0  0  0  0  0  0
  -89.5704   31.0921   -2.2690 N   0  0  0  0  0  0  0  0  0  0  0  0
  -89.1538   30.3578   -1.6359 H   0  0  0  0  0  0  0  0  0  0  0  0
  -90.7824   30.7688   -2.9035 C   0  0  0  0  0  0  0  0  0  0  0  0
  -91.0120   29.6284   -3.6193 N   0  0  0  0  0  0  0  0  0  0  0  0
  -92.2473   29.6066   -4.0962 C   0  0  0  0  0  0  0  0  0  0  0  0
  -92.8354   30.7800   -3.6698 C   0  0  0  0  0  0  0  0  0  0  0  0
  -91.9354   31.4711   -2.9498 N   0  0  0  0  0  0  0  0  0  0  0  0
  -92.0303   32.3965   -2.4747 H   0  0  0  0  0  0  0  0  0  0  0  0
 15 16  2  0  0  0
 16 17  1  0  0  0
 17 19  1  0  0  0
 19 20  2  0  0  0
 20 21  1  0  0  0
 21 22  2  0  0  0
 22 23  1  0  0  0
 16  1  1  0  0  0
  1  2  2  0  0  0
  2  3  1  0  0  0
  3  4  1  0  0  0
  4  5  2  0  0  0
  4  6  1  0  0  0
  6  7  2  0  0  0
  7  8  1  0  0  0
  8  9  2  0  0  0
  9 10  1  0  0  0
 10 11  1  0  0  0
 11 12  1  0  0  0
 12 13  1  0  0  0
 13 14  2  0  0  0
 23 19  1  0  0  0
  5  1  1  0  0  0
 14  6  1  0  0  0
 13  9  1  0  0  0
 17 18  1  0  0  0
 23 24  1  0  0  0
M  END
> <minimizedAffinity>
-7.72317

> <CNNscore>
0.1130733564

> <CNNaffinity>
5.5842485428

> <CNN_VS>
0.6314297318

> <CNNaffinity_variance>
0.1726258546

$$$$
[H]c1nc(N([H])C(=O)c2nc(-c3c([H])c([H])c4c(c3[H])C([H])([H])C([H])([H])O4)sc2[H])n([H])c1[H]


 24 27  0  0  0  0  0  0  0  0999 V2000
  -87.2218   31.6709   -0.7849 C   0  0  0  0  0  0  0  0  0  0  0  0
  -87.4590   32.9926   -1.0722 C   0  0  0  0  0  0  0  0  0  0  0  0
  -88.8607   32.8926   -2.0401 S   0  0  0  0  0  0  0  0  0  0  0  0
  -89.0609   31.1998   -2.0234 C   0  0  0  0  0  0  0  0  0  0  0  0
  -88.0541   30.7986   -1.2846 N   0  0  0  0  0  0  0  0  0  0  0  0
  -90.1130   30.3798   -2.6813 C   0  0  0  0  0  0  0  0  0  0  0  0
  -90.9946   31.0277   -3.4813 C   0  0  0  0  0  0  0  0  0  0  0  0
  -91.9967   30.3303   -4.1233 C   0  0  0  0  0  0  0  0  0  0  0  0
  -92.0570   28.9501   -3.9127 C   0  0  0  0  0  0  0  0  0  0  0  0
  -92.9339   28.0144   -4.4139 O   0  0  0  0  0  0  0  0  0  0  0  0
  -92.4337   26.7224   -4.2492 C   0  0  0  0  0  0  0  0  0  0  0  0
  -91.4755   26.8435   -3.0730 C   0  0  0  0  0  0  0  0  0  0  0  0
  -91.1535   28.3032   -3.0962 C   0  0  0  0  0  0  0  0  0  0  0  0
  -90.1557   29.0407   -2.4648 C   0  0  0  0  0  0  0  0  0  0  0  0
  -85.2954   32.0825    0.6004 O   0  0  0  0  0  0  0  0  0  0  0  0
  -86.0674   31.2476    0.0588 C   0  0  0  0  0  0  0  0  0  0  0  0
  -85.8215   29.8691    0.2645 N   0  0  0  0  0  0  0  0  0  0  0  0
  -86.4298   29.1187   -0.1604 H   0  0  0  0  0  0  0  0  0  0  0  0
  -84.7416   29.4383    1.0545 C   0  0  0  0  0  0  0  0  0  0  0  0
  -84.7662   28.3619    1.8950 N   0  0  0  0  0  0  0  0  0  0  0  0
  -83.6003   28.2063    2.5033 C   0  0  0  0  0  0  0  0  0  0  0  0
  -82.7936   29.2235    2.0350 C   0  0  0  0  0  0  0  0  0  0  0  0
  -83.4996   29.9593    1.1597 N   0  0  0  0  0  0  0  0  0  0  0  0
  -83.2131   30.8018    0.6129 H   0  0  0  0  0  0  0  0  0  0  0  0
 15 16  2  0  0  0
 16 17  1  0  0  0
 17 19  1  0  0  0
 19 20  2  0  0  0
 20 21  1  0  0  0
 21 22  2  0  0  0
 22 23  1  0  0  0
 16  1  1  0  0  0
  1  2  2  0  0  0
  2  3  1  0  0  0
  3  4  1  0  0  0
  4  5  2  0  0  0
  4  6  1  0  0  0
  6  7  2  0  0  0
  7  8  1  0  0  0
  8  9  2  0  0  0
  9 10  1  0  0  0
 10 11  1  0  0  0
 11 12  1  0  0  0
 12 13  1  0  0  0
 13 14  2  0  0  0
 23 19  1  0  0  0
  5  1  1  0  0  0
 14  6  1  0  0  0
 13  9  1  0  0  0
 17 18  1  0  0  0
 23 24  1  0  0  0
M  END
> <minimizedAffinity>
-6.24823

> <CNNscore>
0.1050969213

> <CNNaffinity>
5.5244135857

> <CNN_VS>
0.5805988312

> <CNNaffinity_variance>
0.2543269396

$$$$
[H]c1sc(-c2c([H])c([H])c3c(c2[H])C([H])([H])C([H])([H])O3)nc1C(=O)N([H])c1nc(SC([H])([H])C#N)nn1[H]


 28 31  0  0  0  0  0  0  0  0999 V2000
  -83.3691   33.8617   -0.5045 O   0  0  0  0  0  0  0  0  0  0  0  0
  -84.3917   33.1900   -0.7008 C   0  0  0  0  0  0  0  0  0  0  0  0
  -85.4280   33.4467   -1.5891 N   0  0  0  0  0  0  0  0  0  0  0  0
  -84.7278   34.5664   -2.0418 H   0  0  0  0  0  0  0  0  0  0  0  0
  -86.3960   33.6964   -2.4638 C   0  0  0  0  0  0  0  0  0  0  0  0
  -87.7168   33.2929   -2.4259 N   0  0  0  0  0  0  0  0  0  0  0  0
  -88.3832   33.8448   -3.3974 C   0  0  0  0  0  0  0  0  0  0  0  0
  -87.5837   34.6048   -4.1184 N   0  0  0  0  0  0  0  0  0  0  0  0
  -86.3737   34.5343   -3.5645 N   0  0  0  0  0  0  0  0  0  0  0  0
  -85.5455   35.0219   -3.9019 H   0  0  0  0  0  0  0  0  0  0  0  0
  -90.1527   33.6852   -3.7214 S   0  0  0  0  0  0  0  0  0  0  0  0
  -90.5243   31.9992   -4.2569 C   0  0  0  0  0  0  0  0  0  0  0  0
  -89.3372   31.3494   -4.7664 C   0  0  0  0  0  0  0  0  0  0  0  0
  -88.3850   30.8505   -5.1606 N   0  0  0  0  0  0  0  0  0  0  0  0
  -84.5248   31.8848    0.1176 C   0  0  0  0  0  0  0  0  0  0  0  0
  -83.6456   31.6990    1.1595 C   0  0  0  0  0  0  0  0  0  0  0  0
  -84.2626   30.2701    1.8965 S   0  0  0  0  0  0  0  0  0  0  0  0
  -85.6226   30.0266    0.7706 C   0  0  0  0  0  0  0  0  0  0  0  0
  -85.4761   31.0250   -0.0149 N   0  0  0  0  0  0  0  0  0  0  0  0
  -86.5064   28.9102    1.0462 C   0  0  0  0  0  0  0  0  0  0  0  0
  -86.0135   27.7982    1.7464 C   0  0  0  0  0  0  0  0  0  0  0  0
  -86.7574   26.6435    1.8780 C   0  0  0  0  0  0  0  0  0  0  0  0
  -87.9985   26.5308    1.3159 C   0  0  0  0  0  0  0  0  0  0  0  0
  -88.9196   25.4913    1.3003 O   0  0  0  0  0  0  0  0  0  0  0  0
  -89.5825   25.6153    0.0497 C   0  0  0  0  0  0  0  0  0  0  0  0
  -89.8330   27.1669    0.1067 C   0  0  0  0  0  0  0  0  0  0  0  0
  -88.4920   27.6223    0.6297 C   0  0  0  0  0  0  0  0  0  0  0  0
  -87.7573   28.8192    0.4915 C   0  0  0  0  0  0  0  0  0  0  0  0
  1  2  2  0  0  0
  2  3  1  0  0  0
  3  5  1  0  0  0
  5  6  2  0  0  0
  6  7  1  0  0  0
  7 11  1  0  0  0
 11 12  1  0  0  0
 12 13  1  0  0  0
 13 14  3  0  0  0
  7  8  2  0  0  0
  8  9  1  0  0  0
  2 15  1  0  0  0
 15 16  2  0  0  0
 16 17  1  0  0  0
 17 18  1  0  0  0
 18 19  2  0  0  0
 18 20  1  0  0  0
 20 21  2  0  0  0
 21 22  1  0  0  0
 22 23  2  0  0  0
 23 24  1  0  0  0
 24 25  1  0  0  0
 25 26  1  0  0  0
 26 27  1  0  0  0
 27 28  2  0  0  0
  9  5  1  0  0  0
 19 15  1  0  0  0
 28 20  1  0  0  0
 27 23  1  0  0  0
  3  4  1  0  0  0
  9 10  1  0  0  0
M  END
> <minimizedAffinity>
-7.71621

> <CNNscore>
0.6936253905

> <CNNaffinity>
6.8021078110

> <CNN_VS>
4.7181148529

> <CNNaffinity_variance>
0.0892926306

$$$$
[H]c1sc(-c2c([H])c([H])c3c(c2[H])C([H])([H])C([H])([H])O3)nc1C(=O)N([H])c1nc(SC([H])([H])C#N)nn1[H]


 28 31  0  0  0  0  0  0  0  0999 V2000
  -83.3200   28.9404    2.2280 O   0  0  0  0  0  0  0  0  0  0  0  0
  -84.4105   29.1380    1.6740 C   0  0  0  0  0  0  0  0  0  0  0  0
  -85.5159   28.2981    1.6340 N   0  0  0  0  0  0  0  0  0  0  0  0
  -84.8313   27.4009    2.4558 H   0  0  0  0  0  0  0  0  0  0  0  0
  -86.5714   27.4916    1.6301 C   0  0  0  0  0  0  0  0  0  0  0  0
  -87.7856   27.6583    2.2678 N   0  0  0  0  0  0  0  0  0  0  0  0
  -88.6098   26.7142    1.9184 C   0  0  0  0  0  0  0  0  0  0  0  0
  -88.0208   25.8898    1.0760 N   0  0  0  0  0  0  0  0  0  0  0  0
  -86.7843   26.3474    0.8819 N   0  0  0  0  0  0  0  0  0  0  0  0
  -86.0891   25.9177    0.2742 H   0  0  0  0  0  0  0  0  0  0  0  0
  -90.3347   26.5433    2.4256 S   0  0  0  0  0  0  0  0  0  0  0  0
  -90.6968   27.7111    3.7570 C   0  0  0  0  0  0  0  0  0  0  0  0
  -90.2611   27.1866    5.0321 C   0  0  0  0  0  0  0  0  0  0  0  0
  -89.9028   26.7573    6.0313 N   0  0  0  0  0  0  0  0  0  0  0  0
  -84.5837   30.4998    0.9623 C   0  0  0  0  0  0  0  0  0  0  0  0
  -83.4444   31.2239    0.6961 C   0  0  0  0  0  0  0  0  0  0  0  0
  -84.0603   32.5227   -0.2520 S   0  0  0  0  0  0  0  0  0  0  0  0
  -85.7682   32.0144   -0.2157 C   0  0  0  0  0  0  0  0  0  0  0  0
  -85.6938   30.9448    0.4813 N   0  0  0  0  0  0  0  0  0  0  0  0
  -86.7059   32.8220   -0.9718 C   0  0  0  0  0  0  0  0  0  0  0  0
  -88.0810   32.5626   -0.8643 C   0  0  0  0  0  0  0  0  0  0  0  0
  -88.9964   33.1801   -1.6919 C   0  0  0  0  0  0  0  0  0  0  0  0
  -88.5977   34.0567   -2.6623 C   0  0  0  0  0  0  0  0  0  0  0  0
  -89.3111   34.7839   -3.6064 O   0  0  0  0  0  0  0  0  0  0  0  0
  -88.4409   34.8733   -4.7260 C   0  0  0  0  0  0  0  0  0  0  0  0
  -87.1389   35.2711   -3.9387 C   0  0  0  0  0  0  0  0  0  0  0  0
  -87.2470   34.3205   -2.7708 C   0  0  0  0  0  0  0  0  0  0  0  0
  -86.2915   33.7127   -1.9288 C   0  0  0  0  0  0  0  0  0  0  0  0
  1  2  2  0  0  0
  2  3  1  0  0  0
  3  5  1  0  0  0
  5  6  2  0  0  0
  6  7  1  0  0  0
  7 11  1  0  0  0
 11 12  1  0  0  0
 12 13  1  0  0  0
 13 14  3  0  0  0
  7  8  2  0  0  0
  8  9  1  0  0  0
  2 15  1  0  0  0
 15 16  2  0  0  0
 16 17  1  0  0  0
 17 18  1  0  0  0
 18 19  2  0  0  0
 18 20  1  0  0  0
 20 21  2  0  0  0
 21 22  1  0  0  0
 22 23  2  0  0  0
 23 24  1  0  0  0
 24 25  1  0  0  0
 25 26  1  0  0  0
 26 27  1  0  0  0
 27 28  2  0  0  0
  9  5  1  0  0  0
 19 15  1  0  0  0
 28 20  1  0  0  0
 27 23  1  0  0  0
  3  4  1  0  0  0
  9 10  1  0  0  0
M  END
> <minimizedAffinity>
-8.05347

> <CNNscore>
0.6160193682

> <CNNaffinity>
6.6651282310

> <CNN_VS>
4.1058483124

> <CNNaffinity_variance>
0.0505592003

$$$$
[H]c1sc(-c2c([H])c([H])c3c(c2[H])C([H])([H])C([H])([H])O3)nc1C(=O)N([H])c1nc(SC([H])([H])C#N)nn1[H]


 28 31  0  0  0  0  0  0  0  0999 V2000
  -83.4607   33.6922   -0.4382 O   0  0  0  0  0  0  0  0  0  0  0  0
  -84.4938   33.0513   -0.6771 C   0  0  0  0  0  0  0  0  0  0  0  0
  -85.4912   33.3456   -1.5976 N   0  0  0  0  0  0  0  0  0  0  0  0
  -84.7452   34.4499   -2.0136 H   0  0  0  0  0  0  0  0  0  0  0  0
  -86.4210   33.6308   -2.5024 C   0  0  0  0  0  0  0  0  0  0  0  0
  -87.1907   34.7724   -2.6166 N   0  0  0  0  0  0  0  0  0  0  0  0
  -87.8975   34.7302   -3.7080 C   0  0  0  0  0  0  0  0  0  0  0  0
  -87.6648   33.6051   -4.3533 N   0  0  0  0  0  0  0  0  0  0  0  0
  -86.7658   32.9257   -3.6418 N   0  0  0  0  0  0  0  0  0  0  0  0
  -86.3863   32.0147   -3.8936 H   0  0  0  0  0  0  0  0  0  0  0  0
  -88.9990   36.0181   -4.3325 S   0  0  0  0  0  0  0  0  0  0  0  0
  -89.1103   35.9041   -6.1331 C   0  0  0  0  0  0  0  0  0  0  0  0
  -87.8810   36.3476   -6.7521 C   0  0  0  0  0  0  0  0  0  0  0  0
  -86.8963   36.6891   -7.2262 N   0  0  0  0  0  0  0  0  0  0  0  0
  -84.6910   31.7421    0.1218 C   0  0  0  0  0  0  0  0  0  0  0  0
  -84.1189   31.6709    1.3710 C   0  0  0  0  0  0  0  0  0  0  0  0
  -84.7400   30.1782    1.9637 S   0  0  0  0  0  0  0  0  0  0  0  0
  -85.6960   29.7627    0.5179 C   0  0  0  0  0  0  0  0  0  0  0  0
  -85.4584   30.7693   -0.2341 N   0  0  0  0  0  0  0  0  0  0  0  0
  -86.4814   28.5452    0.5823 C   0  0  0  0  0  0  0  0  0  0  0  0
  -86.9558   27.9681   -0.6059 C   0  0  0  0  0  0  0  0  0  0  0  0
  -87.8500   26.9173   -0.5881 C   0  0  0  0  0  0  0  0  0  0  0  0
  -88.3231   26.4077    0.5890 C   0  0  0  0  0  0  0  0  0  0  0  0
  -89.2171   25.3807    0.8632 O   0  0  0  0  0  0  0  0  0  0  0  0
  -89.8728   25.7825    2.0580 C   0  0  0  0  0  0  0  0  0  0  0  0
  -88.5904   26.2252    2.8534 C   0  0  0  0  0  0  0  0  0  0  0  0
  -87.8572   26.9671    1.7619 C   0  0  0  0  0  0  0  0  0  0  0  0
  -86.9331   28.0335    1.7718 C   0  0  0  0  0  0  0  0  0  0  0  0
  1  2  2  0  0  0
  2  3  1  0  0  0
  3  5  1  0  0  0
  5  6  2  0  0  0
  6  7  1  0  0  0
  7 11  1  0  0  0
 11 12  1  0  0  0
 12 13  1  0  0  0
 13 14  3  0  0  0
  7  8  2  0  0  0
  8  9  1  0  0  0
  2 15  1  0  0  0
 15 16  2  0  0  0
 16 17  1  0  0  0
 17 18  1  0  0  0
 18 19  2  0  0  0
 18 20  1  0  0  0
 20 21  2  0  0  0
 21 22  1  0  0  0
 22 23  2  0  0  0
 23 24  1  0  0  0
 24 25  1  0  0  0
 25 26  1  0  0  0
 26 27  1  0  0  0
 27 28  2  0  0  0
  9  5  1  0  0  0
 19 15  1  0  0  0
 28 20  1  0  0  0
 27 23  1  0  0  0
  3  4  1  0  0  0
  9 10  1  0  0  0
M  END
> <minimizedAffinity>
-7.56745

> <CNNscore>
0.5160951018

> <CNNaffinity>
6.3693094254

> <CNN_VS>
3.2871694565

> <CNNaffinity_variance>
0.0318357684

$$$$
[H]c1sc(-c2c([H])c([H])c3c(c2[H])C([H])([H])C([H])([H])O3)nc1C(=O)N([H])c1nc(SC([H])([H])C#N)nn1[H]


 28 31  0  0  0  0  0  0  0  0999 V2000
  -87.1408   34.2479   -4.1507 O   0  0  0  0  0  0  0  0  0  0  0  0
  -87.2362   33.3926   -3.2593 C   0  0  0  0  0  0  0  0  0  0  0  0
  -86.3463   33.1289   -2.2261 N   0  0  0  0  0  0  0  0  0  0  0  0
  -85.5611   34.1967   -2.6648 H   0  0  0  0  0  0  0  0  0  0  0  0
  -85.4953   32.9103   -1.2299 C   0  0  0  0  0  0  0  0  0  0  0  0
  -85.6447   32.0807   -0.1353 N   0  0  0  0  0  0  0  0  0  0  0  0
  -84.5401   32.0388    0.5507 C   0  0  0  0  0  0  0  0  0  0  0  0
  -83.6315   32.8117   -0.0092 N   0  0  0  0  0  0  0  0  0  0  0  0
  -84.1886   33.3451   -1.0959 N   0  0  0  0  0  0  0  0  0  0  0  0
  -83.7251   33.9859   -1.7376 H   0  0  0  0  0  0  0  0  0  0  0  0
  -84.2178   31.0391    2.0199 S   0  0  0  0  0  0  0  0  0  0  0  0
  -82.9579   29.7975    1.6475 C   0  0  0  0  0  0  0  0  0  0  0  0
  -83.2518   28.5510    2.3190 C   0  0  0  0  0  0  0  0  0  0  0  0
  -83.4883   27.5547    2.8313 N   0  0  0  0  0  0  0  0  0  0  0  0
  -88.5172   32.5266   -3.2713 C   0  0  0  0  0  0  0  0  0  0  0  0
  -89.6292   33.0506   -3.8894 C   0  0  0  0  0  0  0  0  0  0  0  0
  -90.7199   31.7186   -3.8506 S   0  0  0  0  0  0  0  0  0  0  0  0
  -89.6293   30.5816   -3.0172 C   0  0  0  0  0  0  0  0  0  0  0  0
  -88.5849   31.3042   -2.8678 N   0  0  0  0  0  0  0  0  0  0  0  0
  -90.1270   29.2358   -2.8058 C   0  0  0  0  0  0  0  0  0  0  0  0
  -91.5103   29.0004   -2.8370 C   0  0  0  0  0  0  0  0  0  0  0  0
  -92.0408   27.7810   -2.4683 C   0  0  0  0  0  0  0  0  0  0  0  0
  -91.2401   26.7587   -2.0408 C   0  0  0  0  0  0  0  0  0  0  0  0
  -91.5296   25.4684   -1.6156 O   0  0  0  0  0  0  0  0  0  0  0  0
  -90.5326   25.1757   -0.6465 C   0  0  0  0  0  0  0  0  0  0  0  0
  -89.2959   25.7008   -1.4637 C   0  0  0  0  0  0  0  0  0  0  0  0
  -89.8780   26.9814   -2.0120 C   0  0  0  0  0  0  0  0  0  0  0  0
  -89.3089   28.2142   -2.3960 C   0  0  0  0  0  0  0  0  0  0  0  0
  1  2  2  0  0  0
  2  3  1  0  0  0
  3  5  1  0  0  0
  5  6  2  0  0  0
  6  7  1  0  0  0
  7 11  1  0  0  0
 11 12  1  0  0  0
 12 13  1  0  0  0
 13 14  3  0  0  0
  7  8  2  0  0  0
  8  9  1  0  0  0
  2 15  1  0  0  0
 15 16  2  0  0  0
 16 17  1  0  0  0
 17 18  1  0  0  0
 18 19  2  0  0  0
 18 20  1  0  0  0
 20 21  2  0  0  0
 21 22  1  0  0  0
 22 23  2  0  0  0
 23 24  1  0  0  0
 24 25  1  0  0  0
 25 26  1  0  0  0
 26 27  1  0  0  0
 27 28  2  0  0  0
  9  5  1  0  0  0
 19 15  1  0  0  0
 28 20  1  0  0  0
 27 23  1  0  0  0
  3  4  1  0  0  0
  9 10  1  0  0  0
M  END
> <minimizedAffinity>
-6.66433

> <CNNscore>
0.4519327283

> <CNNaffinity>
6.6667861938

> <CNN_VS>
3.0129389763

> <CNNaffinity_variance>
0.5477185845

$$$$
[H]c1sc(-c2c([H])c([H])c3c(c2[H])C([H])([H])C([H])([H])O3)nc1C(=O)N([H])c1nc(SC([H])([H])C#N)nn1[H]


 28 31  0  0  0  0  0  0  0  0999 V2000
  -84.4102   26.7708    2.6635 O   0  0  0  0  0  0  0  0  0  0  0  0
  -85.0184   27.5838    1.9533 C   0  0  0  0  0  0  0  0  0  0  0  0
  -84.5762   28.8163    1.4906 N   0  0  0  0  0  0  0  0  0  0  0  0
  -83.3404   28.5691    2.0913 H   0  0  0  0  0  0  0  0  0  0  0  0
  -84.1245   29.9800    1.0364 C   0  0  0  0  0  0  0  0  0  0  0  0
  -84.7362   30.8613    0.1658 N   0  0  0  0  0  0  0  0  0  0  0  0
  -84.0337   31.9515    0.0631 C   0  0  0  0  0  0  0  0  0  0  0  0
  -82.9536   31.8648    0.8128 N   0  0  0  0  0  0  0  0  0  0  0  0
  -82.9926   30.6782    1.4181 N   0  0  0  0  0  0  0  0  0  0  0  0
  -82.2897   30.3277    2.0665 H   0  0  0  0  0  0  0  0  0  0  0  0
  -84.4568   33.4233   -0.8945 S   0  0  0  0  0  0  0  0  0  0  0  0
  -86.2534   33.5618   -1.0369 C   0  0  0  0  0  0  0  0  0  0  0  0
  -86.6349   33.9231   -2.3841 C   0  0  0  0  0  0  0  0  0  0  0  0
  -86.9504   34.2243   -3.4427 N   0  0  0  0  0  0  0  0  0  0  0  0
  -86.4355   27.1699    1.4933 C   0  0  0  0  0  0  0  0  0  0  0  0
  -87.1925   26.4254    2.3684 C   0  0  0  0  0  0  0  0  0  0  0  0
  -88.7139   26.3670    1.5639 S   0  0  0  0  0  0  0  0  0  0  0  0
  -88.2307   27.3193    0.1370 C   0  0  0  0  0  0  0  0  0  0  0  0
  -87.0099   27.5798    0.4144 N   0  0  0  0  0  0  0  0  0  0  0  0
  -89.2622   27.5928   -0.8453 C   0  0  0  0  0  0  0  0  0  0  0  0
  -89.5199   26.6510   -1.8535 C   0  0  0  0  0  0  0  0  0  0  0  0
  -90.3610   26.9391   -2.9088 C   0  0  0  0  0  0  0  0  0  0  0  0
  -90.9634   28.1610   -3.0232 C   0  0  0  0  0  0  0  0  0  0  0  0
  -91.8259   28.6850   -3.9775 O   0  0  0  0  0  0  0  0  0  0  0  0
  -91.5159   30.0710   -4.0219 C   0  0  0  0  0  0  0  0  0  0  0  0
  -91.4789   30.3197   -2.4695 C   0  0  0  0  0  0  0  0  0  0  0  0
  -90.7183   29.0908   -2.0327 C   0  0  0  0  0  0  0  0  0  0  0  0
  -89.8729   28.8173   -0.9365 C   0  0  0  0  0  0  0  0  0  0  0  0
  1  2  2  0  0  0
  2  3  1  0  0  0
  3  5  1  0  0  0
  5  6  2  0  0  0
  6  7  1  0  0  0
  7 11  1  0  0  0
 11 12  1  0  0  0
 12 13  1  0  0  0
 13 14  3  0  0  0
  7  8  2  0  0  0
  8  9  1  0  0  0
  2 15  1  0  0  0
 15 16  2  0  0  0
 16 17  1  0  0  0
 17 18  1  0  0  0
 18 19  2  0  0  0
 18 20  1  0  0  0
 20 21  2  0  0  0
 21 22  1  0  0  0
 22 23  2  0  0  0
 23 24  1  0  0  0
 24 25  1  0  0  0
 25 26  1  0  0  0
 26 27  1  0  0  0
 27 28  2  0  0  0
  9  5  1  0  0  0
 19 15  1  0  0  0
 28 20  1  0  0  0
 27 23  1  0  0  0
  3  4  1  0  0  0
  9 10  1  0  0  0
M  END
> <minimizedAffinity>
-6.77462

> <CNNscore>
0.3813264072

> <CNNaffinity>
6.6817650795

> <CNN_VS>
2.5479335785

> <CNNaffinity_variance>
0.2164285630

$$$$
[H]c1sc(-c2c([H])c([H])c3c(c2[H])C([H])([H])C([H])([H])O3)nc1C(=O)N([H])c1nc(SC([H])([H])C#N)nn1[H]


 28 31  0  0  0  0  0  0  0  0999 V2000
  -83.8055   28.7185    2.1601 O   0  0  0  0  0  0  0  0  0  0  0  0
  -84.8925   29.0077    1.6407 C   0  0  0  0  0  0  0  0  0  0  0  0
  -86.0591   28.2544    1.6189 N   0  0  0  0  0  0  0  0  0  0  0  0
  -85.4223   27.2934    2.4063 H   0  0  0  0  0  0  0  0  0  0  0  0
  -87.1724   27.5299    1.6321 C   0  0  0  0  0  0  0  0  0  0  0  0
  -88.3808   27.7957    1.0175 N   0  0  0  0  0  0  0  0  0  0  0  0
  -89.1880   26.7850    1.1577 C   0  0  0  0  0  0  0  0  0  0  0  0
  -88.6013   25.8320    1.8533 N   0  0  0  0  0  0  0  0  0  0  0  0
  -87.3739   26.2610    2.1456 N   0  0  0  0  0  0  0  0  0  0  0  0
  -86.6802   25.7360    2.6753 H   0  0  0  0  0  0  0  0  0  0  0  0
  -90.8499   26.6257    0.4689 S   0  0  0  0  0  0  0  0  0  0  0  0
  -90.7600   25.8696   -1.1705 C   0  0  0  0  0  0  0  0  0  0  0  0
  -90.1670   26.7810   -2.1239 C   0  0  0  0  0  0  0  0  0  0  0  0
  -89.6995   27.4873   -2.8943 N   0  0  0  0  0  0  0  0  0  0  0  0
  -84.9812   30.3914    0.9561 C   0  0  0  0  0  0  0  0  0  0  0  0
  -83.8059   31.0826    0.7721 C   0  0  0  0  0  0  0  0  0  0  0  0
  -84.3253   32.4241   -0.1746 S   0  0  0  0  0  0  0  0  0  0  0  0
  -86.0481   31.9732   -0.2457 C   0  0  0  0  0  0  0  0  0  0  0  0
  -86.0477   30.8852    0.4263 N   0  0  0  0  0  0  0  0  0  0  0  0
  -86.9153   32.8301   -1.0312 C   0  0  0  0  0  0  0  0  0  0  0  0
  -88.3024   32.6178   -1.0028 C   0  0  0  0  0  0  0  0  0  0  0  0
  -89.1500   33.2855   -1.8630 C   0  0  0  0  0  0  0  0  0  0  0  0
  -88.6696   34.1681   -2.7899 C   0  0  0  0  0  0  0  0  0  0  0  0
  -89.3057   34.9407   -3.7532 O   0  0  0  0  0  0  0  0  0  0  0  0
  -88.3739   35.0231   -4.8227 C   0  0  0  0  0  0  0  0  0  0  0  0
  -87.1031   35.3569   -3.9584 C   0  0  0  0  0  0  0  0  0  0  0  0
  -87.3067   34.3856   -2.8206 C   0  0  0  0  0  0  0  0  0  0  0  0
  -86.4195   33.7258   -1.9437 C   0  0  0  0  0  0  0  0  0  0  0  0
  1  2  2  0  0  0
  2  3  1  0  0  0
  3  5  1  0  0  0
  5  6  2  0  0  0
  6  7  1  0  0  0
  7 11  1  0  0  0
 11 12  1  0  0  0
 12 13  1  0  0  0
 13 14  3  0  0  0
  7  8  2  0  0  0
  8  9  1  0  0  0
  2 15  1  0  0  0
 15 16  2  0  0  0
 16 17  1  0  0  0
 17 18  1  0  0  0
 18 19  2  0  0  0
 18 20  1  0  0  0
 20 21  2  0  0  0
 21 22  1  0  0  0
 22 23  2  0  0  0
 23 24  1  0  0  0
 24 25  1  0  0  0
 25 26  1  0  0  0
 26 27  1  0  0  0
 27 28  2  0  0  0
  9  5  1  0  0  0
 19 15  1  0  0  0
 28 20  1  0  0  0
 27 23  1  0  0  0
  3  4  1  0  0  0
  9 10  1  0  0  0
M  END
> <minimizedAffinity>
-7.38025

> <CNNscore>
0.2994314432

> <CNNaffinity>
6.4943733215

> <CNN_VS>
1.9446195364

> <CNNaffinity_variance>
0.2161114663

$$$$
[H]c1sc(-c2c([H])c([H])c3c(c2[H])C([H])([H])C([H])([H])O3)nc1C(=O)N([H])c1nc(SC([H])([H])C#N)nn1[H]


 28 31  0  0  0  0  0  0  0  0999 V2000
  -82.9782   32.2665    0.4227 O   0  0  0  0  0  0  0  0  0  0  0  0
  -84.1181   31.8203    0.2312 C   0  0  0  0  0  0  0  0  0  0  0  0
  -85.1615   32.4083   -0.4720 N   0  0  0  0  0  0  0  0  0  0  0  0
  -84.3106   33.4656   -0.7991 H   0  0  0  0  0  0  0  0  0  0  0  0
  -86.1380   32.9757   -1.1713 C   0  0  0  0  0  0  0  0  0  0  0  0
  -86.1027   33.4598   -2.4648 N   0  0  0  0  0  0  0  0  0  0  0  0
  -87.2937   33.8242   -2.8406 C   0  0  0  0  0  0  0  0  0  0  0  0
  -88.1553   33.6280   -1.8631 N   0  0  0  0  0  0  0  0  0  0  0  0
  -87.4755   33.1068   -0.8422 N   0  0  0  0  0  0  0  0  0  0  0  0
  -87.8771   32.8447    0.0563 H   0  0  0  0  0  0  0  0  0  0  0  0
  -87.7695   34.4496   -4.4668 S   0  0  0  0  0  0  0  0  0  0  0  0
  -89.0544   33.3929   -5.1737 C   0  0  0  0  0  0  0  0  0  0  0  0
  -88.6669   32.0012   -5.1098 C   0  0  0  0  0  0  0  0  0  0  0  0
  -88.3433   30.9048   -5.0461 N   0  0  0  0  0  0  0  0  0  0  0  0
  -84.4164   30.4208    0.8175 C   0  0  0  0  0  0  0  0  0  0  0  0
  -83.6229   29.9871    1.8545 C   0  0  0  0  0  0  0  0  0  0  0  0
  -84.4081   28.5262    2.3178 S   0  0  0  0  0  0  0  0  0  0  0  0
  -85.7123   28.5981    1.1052 C   0  0  0  0  0  0  0  0  0  0  0  0
  -85.4300   29.6896    0.5017 N   0  0  0  0  0  0  0  0  0  0  0  0
  -86.7068   27.5435    1.1528 C   0  0  0  0  0  0  0  0  0  0  0  0
  -87.3107   27.1122   -0.0385 C   0  0  0  0  0  0  0  0  0  0  0  0
  -88.3825   26.2432   -0.0280 C   0  0  0  0  0  0  0  0  0  0  0  0
  -88.9102   25.7812    1.1455 C   0  0  0  0  0  0  0  0  0  0  0  0
  -89.9707   24.9250    1.4130 O   0  0  0  0  0  0  0  0  0  0  0  0
  -90.5093   25.3909    2.6425 C   0  0  0  0  0  0  0  0  0  0  0  0
  -89.1467   25.5582    3.4097 C   0  0  0  0  0  0  0  0  0  0  0  0
  -88.3184   26.1973    2.3212 C   0  0  0  0  0  0  0  0  0  0  0  0
  -87.2135   27.0750    2.3379 C   0  0  0  0  0  0  0  0  0  0  0  0
  1  2  2  0  0  0
  2  3  1  0  0  0
  3  5  1  0  0  0
  5  6  2  0  0  0
  6  7  1  0  0  0
  7 11  1  0  0  0
 11 12  1  0  0  0
 12 13  1  0  0  0
 13 14  3  0  0  0
  7  8  2  0  0  0
  8  9  1  0  0  0
  2 15  1  0  0  0
 15 16  2  0  0  0
 16 17  1  0  0  0
 17 18  1  0  0  0
 18 19  2  0  0  0
 18 20  1  0  0  0
 20 21  2  0  0  0
 21 22  1  0  0  0
 22 23  2  0  0  0
 23 24  1  0  0  0
 24 25  1  0  0  0
 25 26  1  0  0  0
 26 27  1  0  0  0
 27 28  2  0  0  0
  9  5  1  0  0  0
 19 15  1  0  0  0
 28 20  1  0  0  0
 27 23  1  0  0  0
  3  4  1  0  0  0
  9 10  1  0  0  0
M  END
> <minimizedAffinity>
-7.47987

> <CNNscore>
0.2841713727

> <CNNaffinity>
6.4720001221

> <CNN_VS>
1.8391571045

> <CNNaffinity_variance>
0.2256289721

$$$$
[H]c1sc(-c2c([H])c([H])c3c(c2[H])C([H])([H])C([H])([H])O3)nc1C(=O)N([H])c1nc(SC([H])([H])C#N)nn1[H]


 28 31  0  0  0  0  0  0  0  0999 V2000
  -84.6644   26.6517    2.5760 O   0  0  0  0  0  0  0  0  0  0  0  0
  -85.2166   27.5938    1.9905 C   0  0  0  0  0  0  0  0  0  0  0  0
  -84.6435   28.7748    1.5372 N   0  0  0  0  0  0  0  0  0  0  0  0
  -83.3999   28.3041    1.9624 H   0  0  0  0  0  0  0  0  0  0  0  0
  -84.0709   29.8860    1.0877 C   0  0  0  0  0  0  0  0  0  0  0  0
  -84.5959   30.8449    0.2429 N   0  0  0  0  0  0  0  0  0  0  0  0
  -83.7752   31.8489    0.1379 C   0  0  0  0  0  0  0  0  0  0  0  0
  -82.6963   31.6275    0.8614 N   0  0  0  0  0  0  0  0  0  0  0  0
  -82.8584   30.4439    1.4521 N   0  0  0  0  0  0  0  0  0  0  0  0
  -82.1867   30.0054    2.0796 H   0  0  0  0  0  0  0  0  0  0  0  0
  -84.0468   33.3740   -0.7906 S   0  0  0  0  0  0  0  0  0  0  0  0
  -85.8132   33.7557   -0.8320 C   0  0  0  0  0  0  0  0  0  0  0  0
  -86.3770   33.4357   -2.1246 C   0  0  0  0  0  0  0  0  0  0  0  0
  -86.8365   33.1676   -3.1385 N   0  0  0  0  0  0  0  0  0  0  0  0
  -86.7255   27.4301    1.6947 C   0  0  0  0  0  0  0  0  0  0  0  0
  -87.3409   28.4282    0.9749 C   0  0  0  0  0  0  0  0  0  0  0  0
  -88.9067   27.7627    0.7087 S   0  0  0  0  0  0  0  0  0  0  0  0
  -88.6296   26.2285    1.5724 C   0  0  0  0  0  0  0  0  0  0  0  0
  -87.4173   26.3733    1.9525 N   0  0  0  0  0  0  0  0  0  0  0  0
  -89.7170   25.2688    1.5637 C   0  0  0  0  0  0  0  0  0  0  0  0
  -90.2250   24.7927    2.7823 C   0  0  0  0  0  0  0  0  0  0  0  0
  -91.1317   23.7534    2.8267 C   0  0  0  0  0  0  0  0  0  0  0  0
  -91.5580   23.1342    1.6848 C   0  0  0  0  0  0  0  0  0  0  0  0
  -92.4395   22.0819    1.4732 O   0  0  0  0  0  0  0  0  0  0  0  0
  -91.9374   21.4164    0.3226 C   0  0  0  0  0  0  0  0  0  0  0  0
  -91.6845   22.6956   -0.5566 C   0  0  0  0  0  0  0  0  0  0  0  0
  -91.0663   23.6003    0.4820 C   0  0  0  0  0  0  0  0  0  0  0  0
  -90.1485   24.6696    0.4080 C   0  0  0  0  0  0  0  0  0  0  0  0
  1  2  2  0  0  0
  2  3  1  0  0  0
  3  5  1  0  0  0
  5  6  2  0  0  0
  6  7  1  0  0  0
  7 11  1  0  0  0
 11 12  1  0  0  0
 12 13  1  0  0  0
 13 14  3  0  0  0
  7  8  2  0  0  0
  8  9  1  0  0  0
  2 15  1  0  0  0
 15 16  2  0  0  0
 16 17  1  0  0  0
 17 18  1  0  0  0
 18 19  2  0  0  0
 18 20  1  0  0  0
 20 21  2  0  0  0
 21 22  1  0  0  0
 22 23  2  0  0  0
 23 24  1  0  0  0
 24 25  1  0  0  0
 25 26  1  0  0  0
 26 27  1  0  0  0
 27 28  2  0  0  0
  9  5  1  0  0  0
 19 15  1  0  0  0
 28 20  1  0  0  0
 27 23  1  0  0  0
  3  4  1  0  0  0
  9 10  1  0  0  0
M  END
> <minimizedAffinity>
-7.14375

> <CNNscore>
0.2779862285

> <CNNaffinity>
6.2279129028

> <CNN_VS>
1.7312740088

> <CNNaffinity_variance>
0.2238176614

$$$$
[H]c1sc(-c2c([H])c([H])c3c(c2[H])C([H])([H])C([H])([H])O3)nc1C(=O)N([H])c1nc(SC([H])([H])C#N)nn1[H]


 28 31  0  0  0  0  0  0  0  0999 V2000
  -85.0954   33.8771   -0.4036 O   0  0  0  0  0  0  0  0  0  0  0  0
  -85.9579   33.0598   -0.7548 C   0  0  0  0  0  0  0  0  0  0  0  0
  -87.0379   33.2652   -1.6036 N   0  0  0  0  0  0  0  0  0  0  0  0
  -86.5936   34.5725   -1.8099 H   0  0  0  0  0  0  0  0  0  0  0  0
  -88.0494   33.4754   -2.4386 C   0  0  0  0  0  0  0  0  0  0  0  0
  -88.8546   32.5458   -3.0680 N   0  0  0  0  0  0  0  0  0  0  0  0
  -89.8170   33.1444   -3.7068 C   0  0  0  0  0  0  0  0  0  0  0  0
  -89.7115   34.4498   -3.5616 N   0  0  0  0  0  0  0  0  0  0  0  0
  -88.6486   34.6722   -2.7891 N   0  0  0  0  0  0  0  0  0  0  0  0
  -88.3170   35.5904   -2.4987 H   0  0  0  0  0  0  0  0  0  0  0  0
  -91.1630   32.3567   -4.6176 S   0  0  0  0  0  0  0  0  0  0  0  0
  -91.6237   30.8086   -3.8061 C   0  0  0  0  0  0  0  0  0  0  0  0
  -92.0151   29.8150   -4.7810 C   0  0  0  0  0  0  0  0  0  0  0  0
  -92.3086   29.0154   -5.5462 N   0  0  0  0  0  0  0  0  0  0  0  0
  -85.8036   31.6205   -0.2109 C   0  0  0  0  0  0  0  0  0  0  0  0
  -84.8250   31.4019    0.7313 C   0  0  0  0  0  0  0  0  0  0  0  0
  -85.1318   29.7714    1.1927 S   0  0  0  0  0  0  0  0  0  0  0  0
  -86.5172   29.5048    0.1036 C   0  0  0  0  0  0  0  0  0  0  0  0
  -86.6042   30.6441   -0.4706 N   0  0  0  0  0  0  0  0  0  0  0  0
  -87.1757   28.2154    0.1886 C   0  0  0  0  0  0  0  0  0  0  0  0
  -87.4755   27.5162   -0.9908 C   0  0  0  0  0  0  0  0  0  0  0  0
  -88.2545   26.3773   -0.9736 C   0  0  0  0  0  0  0  0  0  0  0  0
  -88.7803   25.8946    0.1923 C   0  0  0  0  0  0  0  0  0  0  0  0
  -89.5855   24.7956    0.4627 O   0  0  0  0  0  0  0  0  0  0  0  0
  -90.3876   25.1982    1.5643 C   0  0  0  0  0  0  0  0  0  0  0  0
  -89.2373   25.8274    2.4326 C   0  0  0  0  0  0  0  0  0  0  0  0
  -88.4858   26.5744    1.3572 C   0  0  0  0  0  0  0  0  0  0  0  0
  -87.6813   27.7337    1.3690 C   0  0  0  0  0  0  0  0  0  0  0  0
  1  2  2  0  0  0
  2  3  1  0  0  0
  3  5  1  0  0  0
  5  6  2  0  0  0
  6  7  1  0  0  0
  7 11  1  0  0  0
 11 12  1  0  0  0
 12 13  1  0  0  0
 13 14  3  0  0  0
  7  8  2  0  0  0
  8  9  1  0  0  0
  2 15  1  0  0  0
 15 16  2  0  0  0
 16 17  1  0  0  0
 17 18  1  0  0  0
 18 19  2  0  0  0
 18 20  1  0  0  0
 20 21  2  0  0  0
 21 22  1  0  0  0
 22 23  2  0  0  0
 23 24  1  0  0  0
 24 25  1  0  0  0
 25 26  1  0  0  0
 26 27  1  0  0  0
 27 28  2  0  0  0
  9  5  1  0  0  0
 19 15  1  0  0  0
 28 20  1  0  0  0
 27 23  1  0  0  0
  3  4  1  0  0  0
  9 10  1  0  0  0
M  END
> <minimizedAffinity>
-6.49067

> <CNNscore>
0.1819766760

> <CNNaffinity>
5.8811063766

> <CNN_VS>
1.0702241659

> <CNNaffinity_variance>
0.8465256691

$$$$
[H]c1nc(-c2c([H])n([H])c3c([H])nc([H])c([H])c23)c([H])c(N([H])c2c([H])c([H])c(N3C([H])([H])C([H])([H])N(C([H])([H])[H])C([H])([H])C3([H])[H])c([H])c2[H])n1


 31 35  0  0  0  0  0  0  0  0999 V2000
  -85.3140   33.2610   -1.4584 C   0  0  0  0  0  0  0  0  0  0  0  0
  -85.7005   32.0531   -0.8444 C   0  0  0  0  0  0  0  0  0  0  0  0
  -84.9377   31.3587    0.0418 C   0  0  0  0  0  0  0  0  0  0  0  0
  -83.7124   31.9260    0.3157 N   0  0  0  0  0  0  0  0  0  0  0  0
  -83.3128   33.0705   -0.2487 C   0  0  0  0  0  0  0  0  0  0  0  0
  -84.1112   33.7105   -1.1153 N   0  0  0  0  0  0  0  0  0  0  0  0
  -85.2420   30.0973    0.6704 C   0  0  0  0  0  0  0  0  0  0  0  0
  -86.5000   29.4788    0.5837 C   0  0  0  0  0  0  0  0  0  0  0  0
  -86.4790   28.3131    1.2323 N   0  0  0  0  0  0  0  0  0  0  0  0
  -85.2595   28.1248    1.7485 C   0  0  0  0  0  0  0  0  0  0  0  0
  -84.7116   27.1109    2.4762 C   0  0  0  0  0  0  0  0  0  0  0  0
  -83.4382   27.1436    2.8710 N   0  0  0  0  0  0  0  0  0  0  0  0
  -82.6634   28.1778    2.5600 C   0  0  0  0  0  0  0  0  0  0  0  0
  -83.1655   29.2430    1.8198 C   0  0  0  0  0  0  0  0  0  0  0  0
  -84.4851   29.2249    1.4047 C   0  0  0  0  0  0  0  0  0  0  0  0
  -87.2774   27.6165    1.3461 H   0  0  0  0  0  0  0  0  0  0  0  0
  -86.1917   33.8749   -2.3849 N   0  0  0  0  0  0  0  0  0  0  0  0
  -85.8144   34.7550   -2.8775 H   0  0  0  0  0  0  0  0  0  0  0  0
  -90.0763   32.5237   -3.5296 C   0  0  0  0  0  0  0  0  0  0  0  0
  -89.8432   32.9980   -2.2653 C   0  0  0  0  0  0  0  0  0  0  0  0
  -88.5678   33.4420   -1.8548 C   0  0  0  0  0  0  0  0  0  0  0  0
  -87.4952   33.4229   -2.6993 C   0  0  0  0  0  0  0  0  0  0  0  0
  -87.7450   32.9319   -3.9994 C   0  0  0  0  0  0  0  0  0  0  0  0
  -88.9917   32.5046   -4.3799 C   0  0  0  0  0  0  0  0  0  0  0  0
  -94.3440   30.8366   -5.5776 C   0  0  0  0  0  0  0  0  0  0  0  0
  -92.9632   31.0041   -5.9007 N   0  0  0  0  0  0  0  0  0  0  0  0
  -92.5814   32.3771   -5.9582 C   0  0  0  0  0  0  0  0  0  0  0  0
  -92.3176   32.9676   -4.5642 C   0  0  0  0  0  0  0  0  0  0  0  0
  -91.3590   32.0917   -3.9386 N   0  0  0  0  0  0  0  0  0  0  0  0
  -91.8389   30.7190   -3.7548 C   0  0  0  0  0  0  0  0  0  0  0  0
  -92.0729   30.1697   -5.1243 C   0  0  0  0  0  0  0  0  0  0  0  0
 25 26  1  0  0  0
 26 27  1  0  0  0
 27 28  1  0  0  0
 28 29  1  0  0  0
 29 30  1  0  0  0
 30 31  1  0  0  0
 29 19  1  0  0  0
 19 20  2  0  0  0
 20 21  1  0  0  0
 21 22  2  0  0  0
 22 17  1  0  0  0
 17  1  1  0  0  0
  1  2  2  0  0  0
  2  3  1  0  0  0
  3  4  2  0  0  0
  4  5  1  0  0  0
  5  6  2  0  0  0
  3  7  1  0  0  0
  7  8  2  0  0  0
  8  9  1  0  0  0
  9 10  1  0  0  0
 10 11  2  0  0  0
 11 12  1  0  0  0
 12 13  2  0  0  0
 13 14  1  0  0  0
 14 15  2  0  0  0
 22 23  1  0  0  0
 23 24  2  0  0  0
 31 26  1  0  0  0
 24 19  1  0  0  0
  6  1  1  0  0  0
 15  7  1  0  0  0
 15 10  1  0  0  0
 17 18  1  0  0  0
  9 16  1  0  0  0
M  END
> <minimizedAffinity>
-8.34285

> <CNNscore>
0.9584436417

> <CNNaffinity>
7.5248899460

> <CNN_VS>
7.2121829987

> <CNNaffinity_variance>
0.1068699360

$$$$
[H]c1nc(-c2c([H])n([H])c3c([H])nc([H])c([H])c23)c([H])c(N([H])c2c([H])c([H])c(N3C([H])([H])C([H])([H])N(C([H])([H])[H])C([H])([H])C3([H])[H])c([H])c2[H])n1


 31 35  0  0  0  0  0  0  0  0999 V2000
  -85.0758   33.0478   -0.7180 C   0  0  0  0  0  0  0  0  0  0  0  0
  -85.3234   31.8167   -0.0790 C   0  0  0  0  0  0  0  0  0  0  0  0
  -84.3702   31.0482    0.5126 C   0  0  0  0  0  0  0  0  0  0  0  0
  -83.0935   31.5624    0.4475 N   0  0  0  0  0  0  0  0  0  0  0  0
  -82.8220   32.7268   -0.1509 C   0  0  0  0  0  0  0  0  0  0  0  0
  -83.8062   33.4409   -0.7163 N   0  0  0  0  0  0  0  0  0  0  0  0
  -84.5374   29.7604    1.1391 C   0  0  0  0  0  0  0  0  0  0  0  0
  -83.6873   29.2806    2.1489 C   0  0  0  0  0  0  0  0  0  0  0  0
  -84.1017   28.0809    2.5600 N   0  0  0  0  0  0  0  0  0  0  0  0
  -85.1943   27.7381    1.8686 C   0  0  0  0  0  0  0  0  0  0  0  0
  -86.0038   26.6422    1.9053 C   0  0  0  0  0  0  0  0  0  0  0  0
  -87.0692   26.5341    1.1105 N   0  0  0  0  0  0  0  0  0  0  0  0
  -87.3712   27.5043    0.2538 C   0  0  0  0  0  0  0  0  0  0  0  0
  -86.5828   28.6472    0.1698 C   0  0  0  0  0  0  0  0  0  0  0  0
  -85.4729   28.7733    0.9860 C   0  0  0  0  0  0  0  0  0  0  0  0
  -83.6655   27.4630    3.3107 H   0  0  0  0  0  0  0  0  0  0  0  0
  -86.1543   33.7418   -1.3189 N   0  0  0  0  0  0  0  0  0  0  0  0
  -86.0509   34.8121   -1.3759 H   0  0  0  0  0  0  0  0  0  0  0  0
  -89.6259   31.9739   -3.0649 C   0  0  0  0  0  0  0  0  0  0  0  0
  -89.6034   32.3115   -1.7369 C   0  0  0  0  0  0  0  0  0  0  0  0
  -88.4670   32.8878   -1.1295 C   0  0  0  0  0  0  0  0  0  0  0  0
  -87.3265   33.1410   -1.8358 C   0  0  0  0  0  0  0  0  0  0  0  0
  -87.3590   32.7891   -3.2029 C   0  0  0  0  0  0  0  0  0  0  0  0
  -88.4729   32.2296   -3.7754 C   0  0  0  0  0  0  0  0  0  0  0  0
  -94.0567   30.3256   -4.7692 C   0  0  0  0  0  0  0  0  0  0  0  0
  -93.5199   31.2094   -3.7845 N   0  0  0  0  0  0  0  0  0  0  0  0
  -92.7867   30.5176   -2.7755 C   0  0  0  0  0  0  0  0  0  0  0  0
  -91.3599   30.1690   -3.2274 C   0  0  0  0  0  0  0  0  0  0  0  0
  -90.7715   31.4080   -3.6704 N   0  0  0  0  0  0  0  0  0  0  0  0
  -91.4605   32.0196   -4.8104 C   0  0  0  0  0  0  0  0  0  0  0  0
  -92.8363   32.3582   -4.3364 C   0  0  0  0  0  0  0  0  0  0  0  0
 25 26  1  0  0  0
 26 27  1  0  0  0
 27 28  1  0  0  0
 28 29  1  0  0  0
 29 30  1  0  0  0
 30 31  1  0  0  0
 29 19  1  0  0  0
 19 20  2  0  0  0
 20 21  1  0  0  0
 21 22  2  0  0  0
 22 17  1  0  0  0
 17  1  1  0  0  0
  1  2  2  0  0  0
  2  3  1  0  0  0
  3  4  2  0  0  0
  4  5  1  0  0  0
  5  6  2  0  0  0
  3  7  1  0  0  0
  7  8  2  0  0  0
  8  9  1  0  0  0
  9 10  1  0  0  0
 10 11  2  0  0  0
 11 12  1  0  0  0
 12 13  2  0  0  0
 13 14  1  0  0  0
 14 15  2  0  0  0
 22 23  1  0  0  0
 23 24  2  0  0  0
 31 26  1  0  0  0
 24 19  1  0  0  0
  6  1  1  0  0  0
 15  7  1  0  0  0
 15 10  1  0  0  0
 17 18  1  0  0  0
  9 16  1  0  0  0
M  END
> <minimizedAffinity>
-8.67140

> <CNNscore>
0.8353184462

> <CNNaffinity>
7.2540497780

> <CNN_VS>
6.0594415665

> <CNNaffinity_variance>
0.0104510337

$$$$
[H]c1nc(-c2c([H])n([H])c3c([H])nc([H])c([H])c23)c([H])c(N([H])c2c([H])c([H])c(N3C([H])([H])C([H])([H])N(C([H])([H])[H])C([H])([H])C3([H])[H])c([H])c2[H])n1


 31 35  0  0  0  0  0  0  0  0999 V2000
  -85.0945   33.0311   -0.7489 C   0  0  0  0  0  0  0  0  0  0  0  0
  -85.2978   31.7982   -0.0979 C   0  0  0  0  0  0  0  0  0  0  0  0
  -84.3193   31.0748    0.5091 C   0  0  0  0  0  0  0  0  0  0  0  0
  -83.0636   31.6386    0.4475 N   0  0  0  0  0  0  0  0  0  0  0  0
  -82.8340   32.8064   -0.1620 C   0  0  0  0  0  0  0  0  0  0  0  0
  -83.8415   33.4745   -0.7424 N   0  0  0  0  0  0  0  0  0  0  0  0
  -84.4399   29.7882    1.1488 C   0  0  0  0  0  0  0  0  0  0  0  0
  -83.5409   29.3275    2.1245 C   0  0  0  0  0  0  0  0  0  0  0  0
  -83.9190   28.1240    2.5588 N   0  0  0  0  0  0  0  0  0  0  0  0
  -85.0340   27.7603    1.9157 C   0  0  0  0  0  0  0  0  0  0  0  0
  -85.8240   26.6523    1.9920 C   0  0  0  0  0  0  0  0  0  0  0  0
  -86.9200   26.5231    1.2432 N   0  0  0  0  0  0  0  0  0  0  0  0
  -87.2727   27.4836    0.3948 C   0  0  0  0  0  0  0  0  0  0  0  0
  -86.5065   28.6379    0.2719 C   0  0  0  0  0  0  0  0  0  0  0  0
  -85.3655   28.7859    1.0402 C   0  0  0  0  0  0  0  0  0  0  0  0
  -83.4421   27.5173    3.2938 H   0  0  0  0  0  0  0  0  0  0  0  0
  -86.1950   33.6750   -1.3652 N   0  0  0  0  0  0  0  0  0  0  0  0
  -86.1052   34.7405   -1.4924 H   0  0  0  0  0  0  0  0  0  0  0  0
  -89.7952   31.6947   -2.5244 C   0  0  0  0  0  0  0  0  0  0  0  0
  -88.7924   31.9147   -3.4321 C   0  0  0  0  0  0  0  0  0  0  0  0
  -87.5956   32.5754   -3.0809 C   0  0  0  0  0  0  0  0  0  0  0  0
  -87.3727   33.0312   -1.8135 C   0  0  0  0  0  0  0  0  0  0  0  0
  -88.4118   32.8006   -0.8856 C   0  0  0  0  0  0  0  0  0  0  0  0
  -89.5681   32.1567   -1.2458 C   0  0  0  0  0  0  0  0  0  0  0  0
  -93.6428   28.9325   -4.2035 C   0  0  0  0  0  0  0  0  0  0  0  0
  -92.2299   29.0591   -4.3659 N   0  0  0  0  0  0  0  0  0  0  0  0
  -91.8611   30.2979   -4.9690 C   0  0  0  0  0  0  0  0  0  0  0  0
  -91.8394   31.4547   -3.9577 C   0  0  0  0  0  0  0  0  0  0  0  0
  -90.9869   31.0215   -2.8793 N   0  0  0  0  0  0  0  0  0  0  0  0
  -91.4733   29.8295   -2.1786 C   0  0  0  0  0  0  0  0  0  0  0  0
  -91.4701   28.7227   -3.1821 C   0  0  0  0  0  0  0  0  0  0  0  0
 25 26  1  0  0  0
 26 27  1  0  0  0
 27 28  1  0  0  0
 28 29  1  0  0  0
 29 30  1  0  0  0
 30 31  1  0  0  0
 29 19  1  0  0  0
 19 20  2  0  0  0
 20 21  1  0  0  0
 21 22  2  0  0  0
 22 17  1  0  0  0
 17  1  1  0  0  0
  1  2  2  0  0  0
  2  3  1  0  0  0
  3  4  2  0  0  0
  4  5  1  0  0  0
  5  6  2  0  0  0
  3  7  1  0  0  0
  7  8  2  0  0  0
  8  9  1  0  0  0
  9 10  1  0  0  0
 10 11  2  0  0  0
 11 12  1  0  0  0
 12 13  2  0  0  0
 13 14  1  0  0  0
 14 15  2  0  0  0
 22 23  1  0  0  0
 23 24  2  0  0  0
 31 26  1  0  0  0
 24 19  1  0  0  0
  6  1  1  0  0  0
 15  7  1  0  0  0
 15 10  1  0  0  0
 17 18  1  0  0  0
  9 16  1  0  0  0
M  END
> <minimizedAffinity>
-8.97076

> <CNNscore>
0.8037803769

> <CNNaffinity>
7.2657613754

> <CNN_VS>
5.8400764465

> <CNNaffinity_variance>
0.0204507839

$$$$
[H]c1nc(-c2c([H])n([H])c3c([H])nc([H])c([H])c23)c([H])c(N([H])c2c([H])c([H])c(N3C([H])([H])C([H])([H])N(C([H])([H])[H])C([H])([H])C3([H])[H])c([H])c2[H])n1


 31 35  0  0  0  0  0  0  0  0999 V2000
  -85.1034   27.4366    2.0766 C   0  0  0  0  0  0  0  0  0  0  0  0
  -85.0599   28.6766    1.4088 C   0  0  0  0  0  0  0  0  0  0  0  0
  -83.9749   29.4954    1.3705 C   0  0  0  0  0  0  0  0  0  0  0  0
  -82.8738   29.0251    2.0524 N   0  0  0  0  0  0  0  0  0  0  0  0
  -82.8795   27.8538    2.6972 C   0  0  0  0  0  0  0  0  0  0  0  0
  -83.9810   27.0889    2.6979 N   0  0  0  0  0  0  0  0  0  0  0  0
  -83.8702   30.7945    0.7537 C   0  0  0  0  0  0  0  0  0  0  0  0
  -82.6594   31.4974    0.6424 C   0  0  0  0  0  0  0  0  0  0  0  0
  -82.8602   32.6500    0.0013 N   0  0  0  0  0  0  0  0  0  0  0  0
  -84.1544   32.7476   -0.3225 C   0  0  0  0  0  0  0  0  0  0  0  0
  -84.8713   33.6997   -0.9835 C   0  0  0  0  0  0  0  0  0  0  0  0
  -86.1791   33.5611   -1.2047 N   0  0  0  0  0  0  0  0  0  0  0  0
  -86.8223   32.4777   -0.7813 C   0  0  0  0  0  0  0  0  0  0  0  0
  -86.1450   31.4715   -0.1004 C   0  0  0  0  0  0  0  0  0  0  0  0
  -84.7886   31.6016    0.1388 C   0  0  0  0  0  0  0  0  0  0  0  0
  -82.1391   33.3982   -0.2349 H   0  0  0  0  0  0  0  0  0  0  0  0
  -86.3051   26.6875    2.0619 N   0  0  0  0  0  0  0  0  0  0  0  0
  -86.3883   25.9178    2.8103 H   0  0  0  0  0  0  0  0  0  0  0  0
  -89.6437   27.3319   -0.5198 C   0  0  0  0  0  0  0  0  0  0  0  0
  -88.6223   26.4965   -0.8896 C   0  0  0  0  0  0  0  0  0  0  0  0
  -87.5012   26.2717   -0.0620 C   0  0  0  0  0  0  0  0  0  0  0  0
  -87.3752   26.8764    1.1555 C   0  0  0  0  0  0  0  0  0  0  0  0
  -88.4321   27.7358    1.5275 C   0  0  0  0  0  0  0  0  0  0  0  0
  -89.5136   27.9419    0.7094 C   0  0  0  0  0  0  0  0  0  0  0  0
  -93.2027   28.1398   -3.9744 C   0  0  0  0  0  0  0  0  0  0  0  0
  -91.7846   28.0100   -3.8697 N   0  0  0  0  0  0  0  0  0  0  0  0
  -91.1957   29.0709   -3.1202 C   0  0  0  0  0  0  0  0  0  0  0  0
  -91.3186   28.8516   -1.6041 C   0  0  0  0  0  0  0  0  0  0  0  0
  -90.7700   27.5436   -1.3480 N   0  0  0  0  0  0  0  0  0  0  0  0
  -91.4918   26.4550   -2.0131 C   0  0  0  0  0  0  0  0  0  0  0  0
  -91.3428   26.6887   -3.4812 C   0  0  0  0  0  0  0  0  0  0  0  0
 25 26  1  0  0  0
 26 27  1  0  0  0
 27 28  1  0  0  0
 28 29  1  0  0  0
 29 30  1  0  0  0
 30 31  1  0  0  0
 29 19  1  0  0  0
 19 20  2  0  0  0
 20 21  1  0  0  0
 21 22  2  0  0  0
 22 17  1  0  0  0
 17  1  1  0  0  0
  1  2  2  0  0  0
  2  3  1  0  0  0
  3  4  2  0  0  0
  4  5  1  0  0  0
  5  6  2  0  0  0
  3  7  1  0  0  0
  7  8  2  0  0  0
  8  9  1  0  0  0
  9 10  1  0  0  0
 10 11  2  0  0  0
 11 12  1  0  0  0
 12 13  2  0  0  0
 13 14  1  0  0  0
 14 15  2  0  0  0
 22 23  1  0  0  0
 23 24  2  0  0  0
 31 26  1  0  0  0
 24 19  1  0  0  0
  6  1  1  0  0  0
 15  7  1  0  0  0
 15 10  1  0  0  0
 17 18  1  0  0  0
  9 16  1  0  0  0
M  END
> <minimizedAffinity>
-9.60321

> <CNNscore>
0.7299376726

> <CNNaffinity>
7.2926383018

> <CNN_VS>
5.3231716156

> <CNNaffinity_variance>
0.0293676257

$$$$
[H]c1nc(-c2c([H])n([H])c3c([H])nc([H])c([H])c23)c([H])c(N([H])c2c([H])c([H])c(N3C([H])([H])C([H])([H])N(C([H])([H])[H])C([H])([H])C3([H])[H])c([H])c2[H])n1


 31 35  0  0  0  0  0  0  0  0999 V2000
  -86.5733   26.9248    1.6985 C   0  0  0  0  0  0  0  0  0  0  0  0
  -86.7167   28.1544    1.0256 C   0  0  0  0  0  0  0  0  0  0  0  0
  -85.7636   29.1230    0.9753 C   0  0  0  0  0  0  0  0  0  0  0  0
  -84.6004   28.8222    1.6499 N   0  0  0  0  0  0  0  0  0  0  0  0
  -84.4298   27.6659    2.2993 C   0  0  0  0  0  0  0  0  0  0  0  0
  -85.4074   26.7482    2.3119 N   0  0  0  0  0  0  0  0  0  0  0  0
  -85.8548   30.4203    0.3527 C   0  0  0  0  0  0  0  0  0  0  0  0
  -87.0680   30.9848   -0.0737 C   0  0  0  0  0  0  0  0  0  0  0  0
  -86.8510   32.1999   -0.5800 N   0  0  0  0  0  0  0  0  0  0  0  0
  -85.5434   32.4729   -0.5095 C   0  0  0  0  0  0  0  0  0  0  0  0
  -84.8071   33.5619   -0.8695 C   0  0  0  0  0  0  0  0  0  0  0  0
  -83.4878   33.6066   -0.6794 N   0  0  0  0  0  0  0  0  0  0  0  0
  -82.8520   32.5783   -0.1272 C   0  0  0  0  0  0  0  0  0  0  0  0
  -83.5490   31.4389    0.2607 C   0  0  0  0  0  0  0  0  0  0  0  0
  -84.9175   31.3762    0.0683 C   0  0  0  0  0  0  0  0  0  0  0  0
  -87.5695   32.8749   -0.9847 H   0  0  0  0  0  0  0  0  0  0  0  0
  -87.6525   26.0078    1.6964 N   0  0  0  0  0  0  0  0  0  0  0  0
  -87.5614   25.1733    2.3707 H   0  0  0  0  0  0  0  0  0  0  0  0
  -91.0320   26.2881   -0.8973 C   0  0  0  0  0  0  0  0  0  0  0  0
  -91.0944   26.7566    0.3890 C   0  0  0  0  0  0  0  0  0  0  0  0
  -89.9972   26.6687    1.2726 C   0  0  0  0  0  0  0  0  0  0  0  0
  -88.8112   26.1107    0.8907 C   0  0  0  0  0  0  0  0  0  0  0  0
  -88.7567   25.6302   -0.4359 C   0  0  0  0  0  0  0  0  0  0  0  0
  -89.8338   25.7244   -1.2800 C   0  0  0  0  0  0  0  0  0  0  0  0
  -94.6178   26.1836   -4.4165 C   0  0  0  0  0  0  0  0  0  0  0  0
  -93.3695   25.5650   -4.1033 N   0  0  0  0  0  0  0  0  0  0  0  0
  -92.2800   26.4842   -4.1529 C   0  0  0  0  0  0  0  0  0  0  0  0
  -92.1718   27.3293   -2.8739 C   0  0  0  0  0  0  0  0  0  0  0  0
  -92.1306   26.3900   -1.7815 N   0  0  0  0  0  0  0  0  0  0  0  0
  -93.3336   25.5608   -1.6642 C   0  0  0  0  0  0  0  0  0  0  0  0
  -93.4031   24.7439   -2.9131 C   0  0  0  0  0  0  0  0  0  0  0  0
 25 26  1  0  0  0
 26 27  1  0  0  0
 27 28  1  0  0  0
 28 29  1  0  0  0
 29 30  1  0  0  0
 30 31  1  0  0  0
 29 19  1  0  0  0
 19 20  2  0  0  0
 20 21  1  0  0  0
 21 22  2  0  0  0
 22 17  1  0  0  0
 17  1  1  0  0  0
  1  2  2  0  0  0
  2  3  1  0  0  0
  3  4  2  0  0  0
  4  5  1  0  0  0
  5  6  2  0  0  0
  3  7  1  0  0  0
  7  8  2  0  0  0
  8  9  1  0  0  0
  9 10  1  0  0  0
 10 11  2  0  0  0
 11 12  1  0  0  0
 12 13  2  0  0  0
 13 14  1  0  0  0
 14 15  2  0  0  0
 22 23  1  0  0  0
 23 24  2  0  0  0
 31 26  1  0  0  0
 24 19  1  0  0  0
  6  1  1  0  0  0
 15  7  1  0  0  0
 15 10  1  0  0  0
 17 18  1  0  0  0
  9 16  1  0  0  0
M  END
> <minimizedAffinity>
-8.60625

> <CNNscore>
0.4899392128

> <CNNaffinity>
6.8355703354

> <CNN_VS>
3.3490140438

> <CNNaffinity_variance>
0.0345463045

$$$$
[H]c1nc(-c2c([H])n([H])c3c([H])nc([H])c([H])c23)c([H])c(N([H])c2c([H])c([H])c(N3C([H])([H])C([H])([H])N(C([H])([H])[H])C([H])([H])C3([H])[H])c([H])c2[H])n1


 31 35  0  0  0  0  0  0  0  0999 V2000
  -84.9833   32.3213    0.0975 C   0  0  0  0  0  0  0  0  0  0  0  0
  -85.6587   31.1215    0.3970 C   0  0  0  0  0  0  0  0  0  0  0  0
  -85.0715   30.0171    0.9305 C   0  0  0  0  0  0  0  0  0  0  0  0
  -83.7205   30.1420    1.1704 N   0  0  0  0  0  0  0  0  0  0  0  0
  -83.0474   31.2650    0.8983 C   0  0  0  0  0  0  0  0  0  0  0  0
  -83.6831   32.3225    0.3732 N   0  0  0  0  0  0  0  0  0  0  0  0
  -85.6828   28.7430    1.2168 C   0  0  0  0  0  0  0  0  0  0  0  0
  -85.0330   27.7211    1.9281 C   0  0  0  0  0  0  0  0  0  0  0  0
  -85.8492   26.6752    2.0687 N   0  0  0  0  0  0  0  0  0  0  0  0
  -87.0185   26.9545    1.4823 C   0  0  0  0  0  0  0  0  0  0  0  0
  -88.1774   26.2492    1.3516 C   0  0  0  0  0  0  0  0  0  0  0  0
  -89.2380   26.7587    0.7239 N   0  0  0  0  0  0  0  0  0  0  0  0
  -89.1899   27.9814    0.2049 C   0  0  0  0  0  0  0  0  0  0  0  0
  -88.0350   28.7499    0.3059 C   0  0  0  0  0  0  0  0  0  0  0  0
  -86.9256   28.2346    0.9522 C   0  0  0  0  0  0  0  0  0  0  0  0
  -85.6453   25.7509    2.5584 H   0  0  0  0  0  0  0  0  0  0  0  0
  -85.7059   33.3936   -0.4800 N   0  0  0  0  0  0  0  0  0  0  0  0
  -85.4001   34.3816   -0.1806 H   0  0  0  0  0  0  0  0  0  0  0  0
  -88.8117   33.0790   -3.3923 C   0  0  0  0  0  0  0  0  0  0  0  0
  -89.0840   32.9282   -2.0578 C   0  0  0  0  0  0  0  0  0  0  0  0
  -88.0767   33.0167   -1.0729 C   0  0  0  0  0  0  0  0  0  0  0  0
  -86.7734   33.2589   -1.3991 C   0  0  0  0  0  0  0  0  0  0  0  0
  -86.5026   33.4121   -2.7765 C   0  0  0  0  0  0  0  0  0  0  0  0
  -87.4950   33.3225   -3.7191 C   0  0  0  0  0  0  0  0  0  0  0  0
  -92.8412   33.0268   -6.3947 C   0  0  0  0  0  0  0  0  0  0  0  0
  -92.4755   33.3584   -5.0548 N   0  0  0  0  0  0  0  0  0  0  0  0
  -92.0705   32.2157   -4.3036 C   0  0  0  0  0  0  0  0  0  0  0  0
  -90.6153   31.8145   -4.5919 C   0  0  0  0  0  0  0  0  0  0  0  0
  -89.8271   33.0013   -4.3733 N   0  0  0  0  0  0  0  0  0  0  0  0
  -90.1655   34.1131   -5.2665 C   0  0  0  0  0  0  0  0  0  0  0  0
  -91.5775   34.4876   -4.9534 C   0  0  0  0  0  0  0  0  0  0  0  0
 25 26  1  0  0  0
 26 27  1  0  0  0
 27 28  1  0  0  0
 28 29  1  0  0  0
 29 30  1  0  0  0
 30 31  1  0  0  0
 29 19  1  0  0  0
 19 20  2  0  0  0
 20 21  1  0  0  0
 21 22  2  0  0  0
 22 17  1  0  0  0
 17  1  1  0  0  0
  1  2  2  0  0  0
  2  3  1  0  0  0
  3  4  2  0  0  0
  4  5  1  0  0  0
  5  6  2  0  0  0
  3  7  1  0  0  0
  7  8  2  0  0  0
  8  9  1  0  0  0
  9 10  1  0  0  0
 10 11  2  0  0  0
 11 12  1  0  0  0
 12 13  2  0  0  0
 13 14  1  0  0  0
 14 15  2  0  0  0
 22 23  1  0  0  0
 23 24  2  0  0  0
 31 26  1  0  0  0
 24 19  1  0  0  0
  6  1  1  0  0  0
 15  7  1  0  0  0
 15 10  1  0  0  0
 17 18  1  0  0  0
  9 16  1  0  0  0
M  END
> <minimizedAffinity>
-8.45765

> <CNNscore>
0.4384131134

> <CNNaffinity>
6.9953856468

> <CNN_VS>
3.0668687820

> <CNNaffinity_variance>
0.0877745152

$$$$
[H]c1nc(-c2c([H])n([H])c3c([H])nc([H])c([H])c23)c([H])c(N([H])c2c([H])c([H])c(N3C([H])([H])C([H])([H])N(C([H])([H])[H])C([H])([H])C3([H])[H])c([H])c2[H])n1


 31 35  0  0  0  0  0  0  0  0999 V2000
  -85.0174   27.5182    2.0542 C   0  0  0  0  0  0  0  0  0  0  0  0
  -85.1792   28.7151    1.3286 C   0  0  0  0  0  0  0  0  0  0  0  0
  -84.2167   29.6641    1.1798 C   0  0  0  0  0  0  0  0  0  0  0  0
  -83.0238   29.3780    1.8072 N   0  0  0  0  0  0  0  0  0  0  0  0
  -82.8351   28.2527    2.5042 C   0  0  0  0  0  0  0  0  0  0  0  0
  -83.8233   27.3530    2.6141 N   0  0  0  0  0  0  0  0  0  0  0  0
  -84.3228   30.9302    0.4982 C   0  0  0  0  0  0  0  0  0  0  0  0
  -83.2169   31.7526    0.2275 C   0  0  0  0  0  0  0  0  0  0  0  0
  -83.6107   32.8389   -0.4393 N   0  0  0  0  0  0  0  0  0  0  0  0
  -84.9336   32.7777   -0.6274 C   0  0  0  0  0  0  0  0  0  0  0  0
  -85.8168   33.6082   -1.2501 C   0  0  0  0  0  0  0  0  0  0  0  0
  -87.1160   33.3168   -1.3245 N   0  0  0  0  0  0  0  0  0  0  0  0
  -87.5862   32.1957   -0.7872 C   0  0  0  0  0  0  0  0  0  0  0  0
  -86.7341   31.3084   -0.1382 C   0  0  0  0  0  0  0  0  0  0  0  0
  -85.3840   31.5976   -0.0508 C   0  0  0  0  0  0  0  0  0  0  0  0
  -83.0065   33.6464   -0.7839 H   0  0  0  0  0  0  0  0  0  0  0  0
  -86.1079   26.6201    2.1547 N   0  0  0  0  0  0  0  0  0  0  0  0
  -85.9849   25.8075    2.8504 H   0  0  0  0  0  0  0  0  0  0  0  0
  -89.6549   26.8298   -0.2119 C   0  0  0  0  0  0  0  0  0  0  0  0
  -89.5423   27.5507    0.9481 C   0  0  0  0  0  0  0  0  0  0  0  0
  -88.3865   27.4939    1.7563 C   0  0  0  0  0  0  0  0  0  0  0  0
  -87.3155   26.7154    1.4234 C   0  0  0  0  0  0  0  0  0  0  0  0
  -87.4412   25.9759    0.2271 C   0  0  0  0  0  0  0  0  0  0  0  0
  -88.5727   26.0440   -0.5452 C   0  0  0  0  0  0  0  0  0  0  0  0
  -93.5160   26.5327   -3.4146 C   0  0  0  0  0  0  0  0  0  0  0  0
  -92.3028   25.8521   -3.0926 N   0  0  0  0  0  0  0  0  0  0  0  0
  -91.1475   26.6434   -3.3635 C   0  0  0  0  0  0  0  0  0  0  0  0
  -90.8627   27.6603   -2.2471 C   0  0  0  0  0  0  0  0  0  0  0  0
  -90.8106   26.9003   -1.0236 N   0  0  0  0  0  0  0  0  0  0  0  0
  -92.0653   26.2187   -0.6927 C   0  0  0  0  0  0  0  0  0  0  0  0
  -92.3068   25.2304   -1.7867 C   0  0  0  0  0  0  0  0  0  0  0  0
 25 26  1  0  0  0
 26 27  1  0  0  0
 27 28  1  0  0  0
 28 29  1  0  0  0
 29 30  1  0  0  0
 30 31  1  0  0  0
 29 19  1  0  0  0
 19 20  2  0  0  0
 20 21  1  0  0  0
 21 22  2  0  0  0
 22 17  1  0  0  0
 17  1  1  0  0  0
  1  2  2  0  0  0
  2  3  1  0  0  0
  3  4  2  0  0  0
  4  5  1  0  0  0
  5  6  2  0  0  0
  3  7  1  0  0  0
  7  8  2  0  0  0
  8  9  1  0  0  0
  9 10  1  0  0  0
 10 11  2  0  0  0
 11 12  1  0  0  0
 12 13  2  0  0  0
 13 14  1  0  0  0
 14 15  2  0  0  0
 22 23  1  0  0  0
 23 24  2  0  0  0
 31 26  1  0  0  0
 24 19  1  0  0  0
  6  1  1  0  0  0
 15  7  1  0  0  0
 15 10  1  0  0  0
 17 18  1  0  0  0
  9 16  1  0  0  0
M  END
> <minimizedAffinity>
-9.14174

> <CNNscore>
0.4198433757

> <CNNaffinity>
6.9156141281

> <CNN_VS>
2.9034748077

> <CNNaffinity_variance>
0.0683875531

$$$$
[H]c1nc(-c2c([H])n([H])c3c([H])nc([H])c([H])c23)c([H])c(N([H])c2c([H])c([H])c(N3C([H])([H])C([H])([H])N(C([H])([H])[H])C([H])([H])C3([H])[H])c([H])c2[H])n1


 31 35  0  0  0  0  0  0  0  0999 V2000
  -88.8019   32.8288   -1.5592 C   0  0  0  0  0  0  0  0  0  0  0  0
  -87.6124   32.4319   -0.9166 C   0  0  0  0  0  0  0  0  0  0  0  0
  -86.3901   32.9817   -1.1464 C   0  0  0  0  0  0  0  0  0  0  0  0
  -86.3794   33.9907   -2.0846 N   0  0  0  0  0  0  0  0  0  0  0  0
  -87.4885   34.3926   -2.7141 C   0  0  0  0  0  0  0  0  0  0  0  0
  -88.6664   33.8118   -2.4434 N   0  0  0  0  0  0  0  0  0  0  0  0
  -85.1262   32.5980   -0.5681 C   0  0  0  0  0  0  0  0  0  0  0  0
  -83.9507   33.3513   -0.7203 C   0  0  0  0  0  0  0  0  0  0  0  0
  -82.9508   32.7734   -0.0525 N   0  0  0  0  0  0  0  0  0  0  0  0
  -83.4079   31.6654    0.5415 C   0  0  0  0  0  0  0  0  0  0  0  0
  -82.8140   30.7340    1.3398 C   0  0  0  0  0  0  0  0  0  0  0  0
  -83.4976   29.7024    1.8368 N   0  0  0  0  0  0  0  0  0  0  0  0
  -84.7900   29.5565    1.5627 C   0  0  0  0  0  0  0  0  0  0  0  0
  -85.4515   30.4743    0.7536 C   0  0  0  0  0  0  0  0  0  0  0  0
  -84.7557   31.5487    0.2286 C   0  0  0  0  0  0  0  0  0  0  0  0
  -81.9405   33.1042    0.0224 H   0  0  0  0  0  0  0  0  0  0  0  0
  -90.0100   32.1583   -1.2484 N   0  0  0  0  0  0  0  0  0  0  0  0
  -90.5847   32.5762   -0.4393 H   0  0  0  0  0  0  0  0  0  0  0  0
  -91.6160   28.8077   -3.3510 C   0  0  0  0  0  0  0  0  0  0  0  0
  -90.9034   28.6333   -2.1935 C   0  0  0  0  0  0  0  0  0  0  0  0
  -90.3519   29.7206   -1.4821 C   0  0  0  0  0  0  0  0  0  0  0  0
  -90.5005   31.0082   -1.9109 C   0  0  0  0  0  0  0  0  0  0  0  0
  -91.2354   31.1777   -3.1046 C   0  0  0  0  0  0  0  0  0  0  0  0
  -91.7637   30.1085   -3.7822 C   0  0  0  0  0  0  0  0  0  0  0  0
  -94.1453   24.9988   -5.4363 C   0  0  0  0  0  0  0  0  0  0  0  0
  -94.2947   25.9874   -4.4169 N   0  0  0  0  0  0  0  0  0  0  0  0
  -93.3834   25.7959   -3.3365 C   0  0  0  0  0  0  0  0  0  0  0  0
  -91.9829   26.3448   -3.6511 C   0  0  0  0  0  0  0  0  0  0  0  0
  -92.1763   27.7155   -4.0526 N   0  0  0  0  0  0  0  0  0  0  0  0
  -92.9948   27.8723   -5.2584 C   0  0  0  0  0  0  0  0  0  0  0  0
  -94.3497   27.3434   -4.9172 C   0  0  0  0  0  0  0  0  0  0  0  0
 25 26  1  0  0  0
 26 27  1  0  0  0
 27 28  1  0  0  0
 28 29  1  0  0  0
 29 30  1  0  0  0
 30 31  1  0  0  0
 29 19  1  0  0  0
 19 20  2  0  0  0
 20 21  1  0  0  0
 21 22  2  0  0  0
 22 17  1  0  0  0
 17  1  1  0  0  0
  1  2  2  0  0  0
  2  3  1  0  0  0
  3  4  2  0  0  0
  4  5  1  0  0  0
  5  6  2  0  0  0
  3  7  1  0  0  0
  7  8  2  0  0  0
  8  9  1  0  0  0
  9 10  1  0  0  0
 10 11  2  0  0  0
 11 12  1  0  0  0
 12 13  2  0  0  0
 13 14  1  0  0  0
 14 15  2  0  0  0
 22 23  1  0  0  0
 23 24  2  0  0  0
 31 26  1  0  0  0
 24 19  1  0  0  0
  6  1  1  0  0  0
 15  7  1  0  0  0
 15 10  1  0  0  0
 17 18  1  0  0  0
  9 16  1  0  0  0
M  END
> <minimizedAffinity>
-8.32139

> <CNNscore>
0.3922910392

> <CNNaffinity>
6.5956535339

> <CNN_VS>
2.5874156952

> <CNNaffinity_variance>
0.0400479324

$$$$
[H]c1nc(-c2c([H])n([H])c3c([H])nc([H])c([H])c23)c([H])c(N([H])c2c([H])c([H])c(N3C([H])([H])C([H])([H])N(C([H])([H])[H])C([H])([H])C3([H])[H])c([H])c2[H])n1


 31 35  0  0  0  0  0  0  0  0999 V2000
  -89.0074   29.0567    0.2746 C   0  0  0  0  0  0  0  0  0  0  0  0
  -87.8122   29.8005    0.2148 C   0  0  0  0  0  0  0  0  0  0  0  0
  -86.6026   29.3543    0.6471 C   0  0  0  0  0  0  0  0  0  0  0  0
  -86.6122   28.0801    1.1711 N   0  0  0  0  0  0  0  0  0  0  0  0
  -87.7274   27.3460    1.2439 C   0  0  0  0  0  0  0  0  0  0  0  0
  -88.8916   27.8411    0.7994 N   0  0  0  0  0  0  0  0  0  0  0  0
  -85.3517   30.0713    0.6648 C   0  0  0  0  0  0  0  0  0  0  0  0
  -84.1848   29.5667    1.2616 C   0  0  0  0  0  0  0  0  0  0  0  0
  -83.1802   30.4289    1.0961 N   0  0  0  0  0  0  0  0  0  0  0  0
  -83.6255   31.4890    0.4126 C   0  0  0  0  0  0  0  0  0  0  0  0
  -83.0165   32.6267   -0.0258 C   0  0  0  0  0  0  0  0  0  0  0  0
  -83.6814   33.5520   -0.7190 N   0  0  0  0  0  0  0  0  0  0  0  0
  -84.9690   33.3844   -1.0028 C   0  0  0  0  0  0  0  0  0  0  0  0
  -85.6454   32.2442   -0.5822 C   0  0  0  0  0  0  0  0  0  0  0  0
  -84.9702   31.2762    0.1397 C   0  0  0  0  0  0  0  0  0  0  0  0
  -82.1748   30.3306    1.4355 H   0  0  0  0  0  0  0  0  0  0  0  0
  -90.2097   29.6455   -0.1874 N   0  0  0  0  0  0  0  0  0  0  0  0
  -90.6660   30.3628    0.4735 H   0  0  0  0  0  0  0  0  0  0  0  0
  -92.2124   28.9588   -3.8947 C   0  0  0  0  0  0  0  0  0  0  0  0
  -91.4923   27.9611   -3.2914 C   0  0  0  0  0  0  0  0  0  0  0  0
  -90.8114   28.1612   -2.0713 C   0  0  0  0  0  0  0  0  0  0  0  0
  -90.8352   29.3635   -1.4250 C   0  0  0  0  0  0  0  0  0  0  0  0
  -91.5790   30.3854   -2.0546 C   0  0  0  0  0  0  0  0  0  0  0  0
  -92.2340   30.1719   -3.2407 C   0  0  0  0  0  0  0  0  0  0  0  0
  -95.2321   28.2306   -7.8450 C   0  0  0  0  0  0  0  0  0  0  0  0
  -95.3023   28.4416   -6.4345 N   0  0  0  0  0  0  0  0  0  0  0  0
  -94.7415   27.3590   -5.6945 C   0  0  0  0  0  0  0  0  0  0  0  0
  -93.2084   27.4358   -5.6207 C   0  0  0  0  0  0  0  0  0  0  0  0
  -92.9023   28.7487   -5.1109 N   0  0  0  0  0  0  0  0  0  0  0  0
  -93.3598   29.8429   -5.9723 C   0  0  0  0  0  0  0  0  0  0  0  0
  -94.8503   29.7493   -6.0131 C   0  0  0  0  0  0  0  0  0  0  0  0
 25 26  1  0  0  0
 26 27  1  0  0  0
 27 28  1  0  0  0
 28 29  1  0  0  0
 29 30  1  0  0  0
 30 31  1  0  0  0
 29 19  1  0  0  0
 19 20  2  0  0  0
 20 21  1  0  0  0
 21 22  2  0  0  0
 22 17  1  0  0  0
 17  1  1  0  0  0
  1  2  2  0  0  0
  2  3  1  0  0  0
  3  4  2  0  0  0
  4  5  1  0  0  0
  5  6  2  0  0  0
  3  7  1  0  0  0
  7  8  2  0  0  0
  8  9  1  0  0  0
  9 10  1  0  0  0
 10 11  2  0  0  0
 11 12  1  0  0  0
 12 13  2  0  0  0
 13 14  1  0  0  0
 14 15  2  0  0  0
 22 23  1  0  0  0
 23 24  2  0  0  0
 31 26  1  0  0  0
 24 19  1  0  0  0
  6  1  1  0  0  0
 15  7  1  0  0  0
 15 10  1  0  0  0
 17 18  1  0  0  0
  9 16  1  0  0  0
M  END
> <minimizedAffinity>
-7.40935

> <CNNscore>
0.3652753830

> <CNNaffinity>
6.4554014206

> <CNN_VS>
2.3579993248

> <CNNaffinity_variance>
0.0963224545

$$$$
[H]c1sc(-c2c([H])c([H])c3c(c2[H])C([H])([H])C([H])([H])O3)nc1C(=O)N([H])c1nsc(N([H])[H])n1


 26 29  0  0  0  0  0  0  0  0999 V2000
  -85.9443   33.0149   -1.3297 C   0  0  0  0  0  0  0  0  0  0  0  0
  -84.6997   33.5029   -1.0071 C   0  0  0  0  0  0  0  0  0  0  0  0
  -84.1047   32.2774    0.0249 S   0  0  0  0  0  0  0  0  0  0  0  0
  -85.4529   31.2364   -0.0163 C   0  0  0  0  0  0  0  0  0  0  0  0
  -86.2858   31.8735   -0.8120 N   0  0  0  0  0  0  0  0  0  0  0  0
  -85.6836   29.9424    0.6480 C   0  0  0  0  0  0  0  0  0  0  0  0
  -84.7053   29.3809    1.4249 C   0  0  0  0  0  0  0  0  0  0  0  0
  -84.9378   28.1594    2.0453 C   0  0  0  0  0  0  0  0  0  0  0  0
  -86.1485   27.5312    1.8701 C   0  0  0  0  0  0  0  0  0  0  0  0
  -86.5927   26.3271    2.3844 O   0  0  0  0  0  0  0  0  0  0  0  0
  -88.0016   26.3125    2.2678 C   0  0  0  0  0  0  0  0  0  0  0  0
  -88.2671   27.2317    1.0883 C   0  0  0  0  0  0  0  0  0  0  0  0
  -87.0950   28.1267    1.0875 C   0  0  0  0  0  0  0  0  0  0  0  0
  -86.8903   29.3404    0.4589 C   0  0  0  0  0  0  0  0  0  0  0  0
  -86.3407   34.3542   -3.4188 N   0  0  0  0  0  0  0  0  0  0  0  0
  -86.8594   33.7611   -2.2316 C   0  0  0  0  0  0  0  0  0  0  0  0
  -88.0826   33.8731   -1.9575 O   0  0  0  0  0  0  0  0  0  0  0  0
  -85.3553   34.2957   -3.6928 H   0  0  0  0  0  0  0  0  0  0  0  0
  -88.4600   38.3799   -5.2271 N   0  0  0  0  0  0  0  0  0  0  0  0
  -88.1946   36.9775   -5.0827 C   0  0  0  0  0  0  0  0  0  0  0  0
  -87.3440   36.3724   -4.2646 N   0  0  0  0  0  0  0  0  0  0  0  0
  -87.2481   35.0767   -4.2844 C   0  0  0  0  0  0  0  0  0  0  0  0
  -88.0320   34.4178   -5.1492 N   0  0  0  0  0  0  0  0  0  0  0  0
  -88.8836   35.6483   -5.9112 S   0  0  0  0  0  0  0  0  0  0  0  0
  -88.8187   38.7106   -6.1317 H   0  0  0  0  0  0  0  0  0  0  0  0
  -88.2901   38.9963   -4.4482 H   0  0  0  0  0  0  0  0  0  0  0  0
 19 20  1  0  0  0
 20 21  2  0  0  0
 21 22  1  0  0  0
 22 15  1  0  0  0
 15 16  1  0  0  0
 16 17  2  0  0  0
 16  1  1  0  0  0
  1  2  2  0  0  0
  2  3  1  0  0  0
  3  4  1  0  0  0
  4  5  2  0  0  0
  4  6  1  0  0  0
  6  7  2  0  0  0
  7  8  1  0  0  0
  8  9  2  0  0  0
  9 10  1  0  0  0
 10 11  1  0  0  0
 11 12  1  0  0  0
 12 13  1  0  0  0
 13 14  2  0  0  0
 22 23  2  0  0  0
 23 24  1  0  0  0
 24 20  1  0  0  0
  5  1  1  0  0  0
 14  6  1  0  0  0
 13  9  1  0  0  0
 19 25  1  0  0  0
 19 26  1  0  0  0
 15 18  1  0  0  0
M  END
> <minimizedAffinity>
-7.57843

> <CNNscore>
0.3727499545

> <CNNaffinity>
5.7976093292

> <CNN_VS>
2.1610586643

> <CNNaffinity_variance>
0.1184322238

$$$$
[H]c1sc(-c2c([H])c([H])c3c(c2[H])C([H])([H])C([H])([H])O3)nc1C(=O)N([H])c1nsc(N([H])[H])n1


 26 29  0  0  0  0  0  0  0  0999 V2000
  -87.9955   33.6480   -2.1894 C   0  0  0  0  0  0  0  0  0  0  0  0
  -89.1585   33.0469   -1.7684 C   0  0  0  0  0  0  0  0  0  0  0  0
  -88.5657   31.8752   -0.6745 S   0  0  0  0  0  0  0  0  0  0  0  0
  -86.9023   32.2158   -0.8170 C   0  0  0  0  0  0  0  0  0  0  0  0
  -86.8829   33.2022   -1.6885 N   0  0  0  0  0  0  0  0  0  0  0  0
  -85.7389   31.5977   -0.1587 C   0  0  0  0  0  0  0  0  0  0  0  0
  -84.5393   32.2573   -0.1146 C   0  0  0  0  0  0  0  0  0  0  0  0
  -83.4505   31.6612    0.5100 C   0  0  0  0  0  0  0  0  0  0  0  0
  -83.5934   30.4159    1.0757 C   0  0  0  0  0  0  0  0  0  0  0  0
  -82.6586   29.6433    1.7397 O   0  0  0  0  0  0  0  0  0  0  0  0
  -83.3658   28.6655    2.4763 C   0  0  0  0  0  0  0  0  0  0  0  0
  -84.6544   28.4961    1.6907 C   0  0  0  0  0  0  0  0  0  0  0  0
  -84.8069   29.7947    1.0085 C   0  0  0  0  0  0  0  0  0  0  0  0
  -85.9058   30.3644    0.3937 C   0  0  0  0  0  0  0  0  0  0  0  0
  -86.8872   34.9508   -4.0304 N   0  0  0  0  0  0  0  0  0  0  0  0
  -88.0106   34.7597   -3.1751 C   0  0  0  0  0  0  0  0  0  0  0  0
  -89.0021   35.5300   -3.2607 O   0  0  0  0  0  0  0  0  0  0  0  0
  -86.0535   34.3558   -4.0057 H   0  0  0  0  0  0  0  0  0  0  0  0
  -86.0161   39.5210   -5.5540 N   0  0  0  0  0  0  0  0  0  0  0  0
  -86.4902   38.1694   -5.6336 C   0  0  0  0  0  0  0  0  0  0  0  0
  -86.4291   37.2119   -4.7179 N   0  0  0  0  0  0  0  0  0  0  0  0
  -86.9210   36.0390   -4.9839 C   0  0  0  0  0  0  0  0  0  0  0  0
  -87.4716   35.8660   -6.1936 N   0  0  0  0  0  0  0  0  0  0  0  0
  -87.2789   37.3666   -6.9223 S   0  0  0  0  0  0  0  0  0  0  0  0
  -85.7735   39.9978   -6.4316 H   0  0  0  0  0  0  0  0  0  0  0  0
  -85.9342   39.9623   -4.6517 H   0  0  0  0  0  0  0  0  0  0  0  0
 19 20  1  0  0  0
 20 21  2  0  0  0
 21 22  1  0  0  0
 22 15  1  0  0  0
 15 16  1  0  0  0
 16 17  2  0  0  0
 16  1  1  0  0  0
  1  2  2  0  0  0
  2  3  1  0  0  0
  3  4  1  0  0  0
  4  5  2  0  0  0
  4  6  1  0  0  0
  6  7  2  0  0  0
  7  8  1  0  0  0
  8  9  2  0  0  0
  9 10  1  0  0  0
 10 11  1  0  0  0
 11 12  1  0  0  0
 12 13  1  0  0  0
 13 14  2  0  0  0
 22 23  2  0  0  0
 23 24  1  0  0  0
 24 20  1  0  0  0
  5  1  1  0  0  0
 14  6  1  0  0  0
 13  9  1  0  0  0
 19 25  1  0  0  0
 19 26  1  0  0  0
 15 18  1  0  0  0
M  END
> <minimizedAffinity>
-8.35909

> <CNNscore>
0.3628280759

> <CNNaffinity>
5.8057928085

> <CNN_VS>
2.1065046787

> <CNNaffinity_variance>
0.1029186025

$$$$
[H]c1sc(-c2c([H])c([H])c3c(c2[H])C([H])([H])C([H])([H])O3)nc1C(=O)N([H])c1nsc(N([H])[H])n1


 26 29  0  0  0  0  0  0  0  0999 V2000
  -87.5527   32.6058   -1.6891 C   0  0  0  0  0  0  0  0  0  0  0  0
  -88.6852   31.9609   -2.1278 C   0  0  0  0  0  0  0  0  0  0  0  0
  -89.2793   33.0603   -3.2938 S   0  0  0  0  0  0  0  0  0  0  0  0
  -88.0708   34.2533   -3.1544 C   0  0  0  0  0  0  0  0  0  0  0  0
  -87.2782   33.7550   -2.2290 N   0  0  0  0  0  0  0  0  0  0  0  0
  -87.9042   35.5341   -3.8618 C   0  0  0  0  0  0  0  0  0  0  0  0
  -88.0426   36.7184   -3.1878 C   0  0  0  0  0  0  0  0  0  0  0  0
  -87.8825   37.9189   -3.8690 C   0  0  0  0  0  0  0  0  0  0  0  0
  -87.5870   37.9007   -5.2119 C   0  0  0  0  0  0  0  0  0  0  0  0
  -87.3871   38.9588   -6.0790 O   0  0  0  0  0  0  0  0  0  0  0  0
  -86.7199   38.4513   -7.2175 C   0  0  0  0  0  0  0  0  0  0  0  0
  -87.1449   36.9938   -7.2544 C   0  0  0  0  0  0  0  0  0  0  0  0
  -87.4580   36.6978   -5.8440 C   0  0  0  0  0  0  0  0  0  0  0  0
  -87.6120   35.4894   -5.1910 C   0  0  0  0  0  0  0  0  0  0  0  0
  -86.6745   30.6015   -0.4534 N   0  0  0  0  0  0  0  0  0  0  0  0
  -86.6802   32.0138   -0.6421 C   0  0  0  0  0  0  0  0  0  0  0  0
  -85.9498   32.7453    0.0756 O   0  0  0  0  0  0  0  0  0  0  0  0
  -87.2474   29.9575   -1.0072 H   0  0  0  0  0  0  0  0  0  0  0  0
  -82.3679   29.6510    1.6719 N   0  0  0  0  0  0  0  0  0  0  0  0
  -83.7931   29.6350    1.5088 C   0  0  0  0  0  0  0  0  0  0  0  0
  -84.5249   30.1685    0.5399 N   0  0  0  0  0  0  0  0  0  0  0  0
  -85.8179   30.0441    0.5713 C   0  0  0  0  0  0  0  0  0  0  0  0
  -86.3432   29.3696    1.6036 N   0  0  0  0  0  0  0  0  0  0  0  0
  -84.9945   28.9295    2.5020 S   0  0  0  0  0  0  0  0  0  0  0  0
  -81.9920   29.5623    2.6243 H   0  0  0  0  0  0  0  0  0  0  0  0
  -81.7799   29.7476    0.8591 H   0  0  0  0  0  0  0  0  0  0  0  0
 19 20  1  0  0  0
 20 21  2  0  0  0
 21 22  1  0  0  0
 22 15  1  0  0  0
 15 16  1  0  0  0
 16 17  2  0  0  0
 16  1  1  0  0  0
  1  2  2  0  0  0
  2  3  1  0  0  0
  3  4  1  0  0  0
  4  5  2  0  0  0
  4  6  1  0  0  0
  6  7  2  0  0  0
  7  8  1  0  0  0
  8  9  2  0  0  0
  9 10  1  0  0  0
 10 11  1  0  0  0
 11 12  1  0  0  0
 12 13  1  0  0  0
 13 14  2  0  0  0
 22 23  2  0  0  0
 23 24  1  0  0  0
 24 20  1  0  0  0
  5  1  1  0  0  0
 14  6  1  0  0  0
 13  9  1  0  0  0
 19 25  1  0  0  0
 19 26  1  0  0  0
 15 18  1  0  0  0
M  END
> <minimizedAffinity>
-6.52752

> <CNNscore>
0.1840890348

> <CNNaffinity>
5.5372376442

> <CNN_VS>
1.0193446875

> <CNNaffinity_variance>
0.1198645607

$$$$
[H]c1sc(-c2c([H])c([H])c3c(c2[H])C([H])([H])C([H])([H])O3)nc1C(=O)N([H])c1nsc(N([H])[H])n1


 26 29  0  0  0  0  0  0  0  0999 V2000
  -88.0740   31.1588   -2.2122 C   0  0  0  0  0  0  0  0  0  0  0  0
  -88.9740   30.2404   -2.6993 C   0  0  0  0  0  0  0  0  0  0  0  0
  -89.6135   31.0669   -4.0518 S   0  0  0  0  0  0  0  0  0  0  0  0
  -88.7118   32.5063   -3.9172 C   0  0  0  0  0  0  0  0  0  0  0  0
  -87.9714   32.2849   -2.8516 N   0  0  0  0  0  0  0  0  0  0  0  0
  -88.7174   33.7206   -4.7504 C   0  0  0  0  0  0  0  0  0  0  0  0
  -87.6857   34.6179   -4.6702 C   0  0  0  0  0  0  0  0  0  0  0  0
  -87.7051   35.7592   -5.4627 C   0  0  0  0  0  0  0  0  0  0  0  0
  -88.7614   35.9716   -6.3173 C   0  0  0  0  0  0  0  0  0  0  0  0
  -88.9867   37.0228   -7.1866 O   0  0  0  0  0  0  0  0  0  0  0  0
  -89.9603   36.5977   -8.1195 C   0  0  0  0  0  0  0  0  0  0  0  0
  -90.7430   35.5436   -7.3562 C   0  0  0  0  0  0  0  0  0  0  0  0
  -89.7682   35.0513   -6.3651 C   0  0  0  0  0  0  0  0  0  0  0  0
  -89.7743   33.9081   -5.5883 C   0  0  0  0  0  0  0  0  0  0  0  0
  -86.7510   29.5592   -0.7959 N   0  0  0  0  0  0  0  0  0  0  0  0
  -87.2538   30.8756   -1.0059 C   0  0  0  0  0  0  0  0  0  0  0  0
  -87.0006   31.7840   -0.1726 O   0  0  0  0  0  0  0  0  0  0  0  0
  -86.9246   28.7811   -1.4394 H   0  0  0  0  0  0  0  0  0  0  0  0
  -82.6163   29.5316    1.8254 N   0  0  0  0  0  0  0  0  0  0  0  0
  -84.0075   29.3160    1.5496 C   0  0  0  0  0  0  0  0  0  0  0  0
  -84.6843   29.5735    0.4385 N   0  0  0  0  0  0  0  0  0  0  0  0
  -85.9541   29.3033    0.3848 C   0  0  0  0  0  0  0  0  0  0  0  0
  -86.5133   28.7694    1.4797 N   0  0  0  0  0  0  0  0  0  0  0  0
  -85.2283   28.6640    2.5556 S   0  0  0  0  0  0  0  0  0  0  0  0
  -82.3351   29.6627    2.8052 H   0  0  0  0  0  0  0  0  0  0  0  0
  -81.9593   29.5486    1.0614 H   0  0  0  0  0  0  0  0  0  0  0  0
 19 20  1  0  0  0
 20 21  2  0  0  0
 21 22  1  0  0  0
 22 15  1  0  0  0
 15 16  1  0  0  0
 16 17  2  0  0  0
 16  1  1  0  0  0
  1  2  2  0  0  0
  2  3  1  0  0  0
  3  4  1  0  0  0
  4  5  2  0  0  0
  4  6  1  0  0  0
  6  7  2  0  0  0
  7  8  1  0  0  0
  8  9  2  0  0  0
  9 10  1  0  0  0
 10 11  1  0  0  0
 11 12  1  0  0  0
 12 13  1  0  0  0
 13 14  2  0  0  0
 22 23  2  0  0  0
 23 24  1  0  0  0
 24 20  1  0  0  0
  5  1  1  0  0  0
 14  6  1  0  0  0
 13  9  1  0  0  0
 19 25  1  0  0  0
 19 26  1  0  0  0
 15 18  1  0  0  0
M  END
> <minimizedAffinity>
-6.39032

> <CNNscore>
0.0920770392

> <CNNaffinity>
5.2952537537

> <CNN_VS>
0.4875712991

> <CNNaffinity_variance>
0.1512746662

$$$$
[H]c1sc(-c2c([H])c([H])c3c(c2[H])C([H])([H])C([H])([H])O3)nc1C(=O)N([H])c1nsc(N([H])[H])n1


 26 29  0  0  0  0  0  0  0  0999 V2000
  -89.3593   27.3449   -1.1541 C   0  0  0  0  0  0  0  0  0  0  0  0
  -88.9034   26.2501   -0.4581 C   0  0  0  0  0  0  0  0  0  0  0  0
  -87.4685   26.8590    0.2431 S   0  0  0  0  0  0  0  0  0  0  0  0
  -87.5351   28.4428   -0.3815 C   0  0  0  0  0  0  0  0  0  0  0  0
  -88.6440   28.4274   -1.0907 N   0  0  0  0  0  0  0  0  0  0  0  0
  -86.6158   29.5800   -0.2068 C   0  0  0  0  0  0  0  0  0  0  0  0
  -87.0277   30.8526   -0.5015 C   0  0  0  0  0  0  0  0  0  0  0  0
  -86.1489   31.9155   -0.3315 C   0  0  0  0  0  0  0  0  0  0  0  0
  -84.8765   31.6740    0.1309 C   0  0  0  0  0  0  0  0  0  0  0  0
  -83.8484   32.5664    0.3724 O   0  0  0  0  0  0  0  0  0  0  0  0
  -82.9116   31.9151    1.2073 C   0  0  0  0  0  0  0  0  0  0  0  0
  -83.1109   30.4453    0.8810 C   0  0  0  0  0  0  0  0  0  0  0  0
  -84.5080   30.3901    0.4122 C   0  0  0  0  0  0  0  0  0  0  0  0
  -85.3615   29.3149    0.2522 C   0  0  0  0  0  0  0  0  0  0  0  0
  -91.2131   26.0293   -2.2252 N   0  0  0  0  0  0  0  0  0  0  0  0
  -90.6161   27.2922   -1.9449 C   0  0  0  0  0  0  0  0  0  0  0  0
  -91.1551   28.3482   -2.3671 O   0  0  0  0  0  0  0  0  0  0  0  0
  -90.8199   25.1381   -1.9078 H   0  0  0  0  0  0  0  0  0  0  0  0
  -93.8308   26.0146   -6.3622 N   0  0  0  0  0  0  0  0  0  0  0  0
  -93.5957   25.9948   -4.9472 C   0  0  0  0  0  0  0  0  0  0  0  0
  -92.4408   26.0250   -4.2959 N   0  0  0  0  0  0  0  0  0  0  0  0
  -92.4371   25.9989   -2.9969 C   0  0  0  0  0  0  0  0  0  0  0  0
  -93.6269   25.9418   -2.3822 N   0  0  0  0  0  0  0  0  0  0  0  0
  -94.7187   25.9266   -3.6581 S   0  0  0  0  0  0  0  0  0  0  0  0
  -94.7014   25.5941   -6.7109 H   0  0  0  0  0  0  0  0  0  0  0  0
  -93.1453   26.4347   -6.9698 H   0  0  0  0  0  0  0  0  0  0  0  0
 19 20  1  0  0  0
 20 21  2  0  0  0
 21 22  1  0  0  0
 22 15  1  0  0  0
 15 16  1  0  0  0
 16 17  2  0  0  0
 16  1  1  0  0  0
  1  2  2  0  0  0
  2  3  1  0  0  0
  3  4  1  0  0  0
  4  5  2  0  0  0
  4  6  1  0  0  0
  6  7  2  0  0  0
  7  8  1  0  0  0
  8  9  2  0  0  0
  9 10  1  0  0  0
 10 11  1  0  0  0
 11 12  1  0  0  0
 12 13  1  0  0  0
 13 14  2  0  0  0
 22 23  2  0  0  0
 23 24  1  0  0  0
 24 20  1  0  0  0
  5  1  1  0  0  0
 14  6  1  0  0  0
 13  9  1  0  0  0
 19 25  1  0  0  0
 19 26  1  0  0  0
 15 18  1  0  0  0
M  END
> <minimizedAffinity>
-6.81570

> <CNNscore>
0.0805473179

> <CNNaffinity>
5.2314434052

> <CNN_VS>
0.4213787317

> <CNNaffinity_variance>
0.3792159855

$$$$
[H]c1sc(-c2c([H])c([H])c3c(c2[H])C([H])([H])C([H])([H])O3)nc1C(=O)N([H])c1nsc(N([H])[H])n1


 26 29  0  0  0  0  0  0  0  0999 V2000
  -87.8413   31.5027   -1.5309 C   0  0  0  0  0  0  0  0  0  0  0  0
  -86.7596   31.8820   -0.7714 C   0  0  0  0  0  0  0  0  0  0  0  0
  -86.4544   33.4551   -1.3658 S   0  0  0  0  0  0  0  0  0  0  0  0
  -87.7008   33.5330   -2.5249 C   0  0  0  0  0  0  0  0  0  0  0  0
  -88.2847   32.3597   -2.4006 N   0  0  0  0  0  0  0  0  0  0  0  0
  -88.0763   34.6107   -3.4556 C   0  0  0  0  0  0  0  0  0  0  0  0
  -87.2807   34.9022   -4.5317 C   0  0  0  0  0  0  0  0  0  0  0  0
  -87.6482   35.9220   -5.4011 C   0  0  0  0  0  0  0  0  0  0  0  0
  -88.8071   36.6248   -5.1683 C   0  0  0  0  0  0  0  0  0  0  0  0
  -89.3605   37.6652   -5.8913 O   0  0  0  0  0  0  0  0  0  0  0  0
  -90.7175   37.7700   -5.5089 C   0  0  0  0  0  0  0  0  0  0  0  0
  -90.7297   37.2118   -4.0965 C   0  0  0  0  0  0  0  0  0  0  0  0
  -89.5700   36.3009   -4.0838 C   0  0  0  0  0  0  0  0  0  0  0  0
  -89.2281   35.2918   -3.2034 C   0  0  0  0  0  0  0  0  0  0  0  0
  -88.0345   29.0796   -2.1685 N   0  0  0  0  0  0  0  0  0  0  0  0
  -88.4761   30.1696   -1.3641 C   0  0  0  0  0  0  0  0  0  0  0  0
  -89.3956   29.9958   -0.5227 O   0  0  0  0  0  0  0  0  0  0  0  0
  -87.2911   29.1619   -2.8686 H   0  0  0  0  0  0  0  0  0  0  0  0
  -88.6012   24.6861   -0.0844 N   0  0  0  0  0  0  0  0  0  0  0  0
  -88.8784   25.7662   -0.9870 C   0  0  0  0  0  0  0  0  0  0  0  0
  -88.2592   26.9334   -1.1016 N   0  0  0  0  0  0  0  0  0  0  0  0
  -88.6651   27.7891   -1.9911 C   0  0  0  0  0  0  0  0  0  0  0  0
  -89.7072   27.4312   -2.7544 N   0  0  0  0  0  0  0  0  0  0  0  0
  -90.0849   25.8941   -2.1935 S   0  0  0  0  0  0  0  0  0  0  0  0
  -89.3731   24.0526    0.1588 H   0  0  0  0  0  0  0  0  0  0  0  0
  -87.6690   24.5778    0.2830 H   0  0  0  0  0  0  0  0  0  0  0  0
 19 20  1  0  0  0
 20 21  2  0  0  0
 21 22  1  0  0  0
 22 15  1  0  0  0
 15 16  1  0  0  0
 16 17  2  0  0  0
 16  1  1  0  0  0
  1  2  2  0  0  0
  2  3  1  0  0  0
  3  4  1  0  0  0
  4  5  2  0  0  0
  4  6  1  0  0  0
  6  7  2  0  0  0
  7  8  1  0  0  0
  8  9  2  0  0  0
  9 10  1  0  0  0
 10 11  1  0  0  0
 11 12  1  0  0  0
 12 13  1  0  0  0
 13 14  2  0  0  0
 22 23  2  0  0  0
 23 24  1  0  0  0
 24 20  1  0  0  0
  5  1  1  0  0  0
 14  6  1  0  0  0
 13  9  1  0  0  0
 19 25  1  0  0  0
 19 26  1  0  0  0
 15 18  1  0  0  0
M  END
> <minimizedAffinity>
-6.33311

> <CNNscore>
0.0801054016

> <CNNaffinity>
5.0820670128

> <CNN_VS>
0.4071010053

> <CNNaffinity_variance>
0.2649107873

$$$$
[H]c1sc(-c2c([H])c([H])c3c(c2[H])C([H])([H])C([H])([H])O3)nc1C(=O)N([H])c1nsc(N([H])[H])n1


 26 29  0  0  0  0  0  0  0  0999 V2000
  -88.4244   27.0664    0.1817 C   0  0  0  0  0  0  0  0  0  0  0  0
  -88.1467   26.0966    1.1163 C   0  0  0  0  0  0  0  0  0  0  0  0
  -86.7039   26.6912    1.8132 S   0  0  0  0  0  0  0  0  0  0  0  0
  -86.5446   28.1135    0.8886 C   0  0  0  0  0  0  0  0  0  0  0  0
  -87.5958   28.0633    0.0979 N   0  0  0  0  0  0  0  0  0  0  0  0
  -85.5154   29.1663    0.9216 C   0  0  0  0  0  0  0  0  0  0  0  0
  -84.3633   28.9835    1.6394 C   0  0  0  0  0  0  0  0  0  0  0  0
  -83.4014   29.9861    1.6611 C   0  0  0  0  0  0  0  0  0  0  0  0
  -83.6203   31.1490    0.9604 C   0  0  0  0  0  0  0  0  0  0  0  0
  -82.8126   32.2648    0.8414 O   0  0  0  0  0  0  0  0  0  0  0  0
  -83.2652   32.9956   -0.2811 C   0  0  0  0  0  0  0  0  0  0  0  0
  -84.7329   32.6177   -0.3792 C   0  0  0  0  0  0  0  0  0  0  0  0
  -84.7825   31.2889    0.2585 C   0  0  0  0  0  0  0  0  0  0  0  0
  -85.7557   30.3083    0.2199 C   0  0  0  0  0  0  0  0  0  0  0  0
  -89.4965   26.3985   -1.9908 N   0  0  0  0  0  0  0  0  0  0  0  0
  -89.6208   26.9778   -0.6950 C   0  0  0  0  0  0  0  0  0  0  0  0
  -90.7374   27.4076   -0.3047 O   0  0  0  0  0  0  0  0  0  0  0  0
  -88.6142   26.0325   -2.3613 H   0  0  0  0  0  0  0  0  0  0  0  0
  -93.5841   24.3072   -3.6894 N   0  0  0  0  0  0  0  0  0  0  0  0
  -92.5578   25.3032   -3.5769 C   0  0  0  0  0  0  0  0  0  0  0  0
  -91.4960   25.3166   -2.7824 N   0  0  0  0  0  0  0  0  0  0  0  0
  -90.6733   26.3213   -2.8297 C   0  0  0  0  0  0  0  0  0  0  0  0
  -90.9550   27.3031   -3.6975 N   0  0  0  0  0  0  0  0  0  0  0  0
  -92.3758   26.7791   -4.4233 S   0  0  0  0  0  0  0  0  0  0  0  0
  -94.5081   24.6050   -4.0269 H   0  0  0  0  0  0  0  0  0  0  0  0
  -93.3753   23.3539   -3.4380 H   0  0  0  0  0  0  0  0  0  0  0  0
 19 20  1  0  0  0
 20 21  2  0  0  0
 21 22  1  0  0  0
 22 15  1  0  0  0
 15 16  1  0  0  0
 16 17  2  0  0  0
 16  1  1  0  0  0
  1  2  2  0  0  0
  2  3  1  0  0  0
  3  4  1  0  0  0
  4  5  2  0  0  0
  4  6  1  0  0  0
  6  7  2  0  0  0
  7  8  1  0  0  0
  8  9  2  0  0  0
  9 10  1  0  0  0
 10 11  1  0  0  0
 11 12  1  0  0  0
 12 13  1  0  0  0
 13 14  2  0  0  0
 22 23  2  0  0  0
 23 24  1  0  0  0
 24 20  1  0  0  0
  5  1  1  0  0  0
 14  6  1  0  0  0
 13  9  1  0  0  0
 19 25  1  0  0  0
 19 26  1  0  0  0
 15 18  1  0  0  0
M  END
> <minimizedAffinity>
-7.76572

> <CNNscore>
0.0784774572

> <CNNaffinity>
5.3906488419

> <CNN_VS>
0.4230444133

> <CNNaffinity_variance>
0.2658377588

$$$$
[H]c1sc(-c2c([H])c([H])c3c(c2[H])C([H])([H])C([H])([H])O3)nc1C(=O)N([H])c1nsc(N([H])[H])n1


 26 29  0  0  0  0  0  0  0  0999 V2000
  -87.7954   32.4304   -1.7468 C   0  0  0  0  0  0  0  0  0  0  0  0
  -87.3076   33.7110   -1.8618 C   0  0  0  0  0  0  0  0  0  0  0  0
  -85.8331   33.5975   -1.0050 S   0  0  0  0  0  0  0  0  0  0  0  0
  -85.9256   31.9553   -0.5603 C   0  0  0  0  0  0  0  0  0  0  0  0
  -87.0720   31.5778   -1.0856 N   0  0  0  0  0  0  0  0  0  0  0  0
  -84.9921   31.1191    0.2131 C   0  0  0  0  0  0  0  0  0  0  0  0
  -83.7210   31.5599    0.4705 C   0  0  0  0  0  0  0  0  0  0  0  0
  -82.8516   30.7596    1.2016 C   0  0  0  0  0  0  0  0  0  0  0  0
  -83.2804   29.5349    1.6569 C   0  0  0  0  0  0  0  0  0  0  0  0
  -82.5960   28.5858    2.3932 O   0  0  0  0  0  0  0  0  0  0  0  0
  -83.5568   27.7143    2.9554 C   0  0  0  0  0  0  0  0  0  0  0  0
  -84.7225   27.8023    1.9858 C   0  0  0  0  0  0  0  0  0  0  0  0
  -84.5552   29.1352    1.3773 C   0  0  0  0  0  0  0  0  0  0  0  0
  -85.4404   29.9108    0.6526 C   0  0  0  0  0  0  0  0  0  0  0  0
  -89.5180   30.6802   -2.2800 N   0  0  0  0  0  0  0  0  0  0  0  0
  -89.0943   32.0386   -2.3527 C   0  0  0  0  0  0  0  0  0  0  0  0
  -89.8198   32.8919   -2.9265 O   0  0  0  0  0  0  0  0  0  0  0  0
  -88.9698   29.9432   -1.8262 H   0  0  0  0  0  0  0  0  0  0  0  0
  -92.4801   29.5054   -5.9967 N   0  0  0  0  0  0  0  0  0  0  0  0
  -92.1093   29.7792   -4.6382 C   0  0  0  0  0  0  0  0  0  0  0  0
  -90.9203   30.1081   -4.1513 N   0  0  0  0  0  0  0  0  0  0  0  0
  -90.7863   30.3184   -2.8760 C   0  0  0  0  0  0  0  0  0  0  0  0
  -91.8820   30.1869   -2.1153 N   0  0  0  0  0  0  0  0  0  0  0  0
  -93.0722   29.7695   -3.2239 S   0  0  0  0  0  0  0  0  0  0  0  0
  -93.2922   28.8971   -6.1600 H   0  0  0  0  0  0  0  0  0  0  0  0
  -91.9419   29.9113   -6.7458 H   0  0  0  0  0  0  0  0  0  0  0  0
 19 20  1  0  0  0
 20 21  2  0  0  0
 21 22  1  0  0  0
 22 15  1  0  0  0
 15 16  1  0  0  0
 16 17  2  0  0  0
 16  1  1  0  0  0
  1  2  2  0  0  0
  2  3  1  0  0  0
  3  4  1  0  0  0
  4  5  2  0  0  0
  4  6  1  0  0  0
  6  7  2  0  0  0
  7  8  1  0  0  0
  8  9  2  0  0  0
  9 10  1  0  0  0
 10 11  1  0  0  0
 11 12  1  0  0  0
 12 13  1  0  0  0
 13 14  2  0  0  0
 22 23  2  0  0  0
 23 24  1  0  0  0
 24 20  1  0  0  0
  5  1  1  0  0  0
 14  6  1  0  0  0
 13  9  1  0  0  0
 19 25  1  0  0  0
 19 26  1  0  0  0
 15 18  1  0  0  0
M  END
> <minimizedAffinity>
-8.11469

> <CNNscore>
0.0730777755

> <CNNaffinity>
5.5617837906

> <CNN_VS>
0.4064427912

> <CNNaffinity_variance>
0.2311467677

$$$$
[H]c1sc(-c2c([H])c([H])c3c(c2[H])C([H])([H])C([H])([H])O3)nc1C(=O)N([H])c1nsc(N([H])[H])n1


 26 29  0  0  0  0  0  0  0  0999 V2000
  -87.1761   31.5270   -0.7262 C   0  0  0  0  0  0  0  0  0  0  0  0
  -85.9432   31.9994   -0.3420 C   0  0  0  0  0  0  0  0  0  0  0  0
  -85.8266   33.4416   -1.2517 S   0  0  0  0  0  0  0  0  0  0  0  0
  -87.3285   33.3570   -2.0519 C   0  0  0  0  0  0  0  0  0  0  0  0
  -87.8411   32.2373   -1.5868 N   0  0  0  0  0  0  0  0  0  0  0  0
  -87.9473   34.2728   -3.0252 C   0  0  0  0  0  0  0  0  0  0  0  0
  -89.2924   34.5267   -2.9760 C   0  0  0  0  0  0  0  0  0  0  0  0
  -89.8619   35.3931   -3.9012 C   0  0  0  0  0  0  0  0  0  0  0  0
  -89.0657   35.9840   -4.8541 C   0  0  0  0  0  0  0  0  0  0  0  0
  -89.4124   36.8668   -5.8601 O   0  0  0  0  0  0  0  0  0  0  0  0
  -88.2240   37.4943   -6.2991 C   0  0  0  0  0  0  0  0  0  0  0  0
  -87.1474   36.4710   -5.9823 C   0  0  0  0  0  0  0  0  0  0  0  0
  -87.7301   35.7027   -4.8665 C   0  0  0  0  0  0  0  0  0  0  0  0
  -87.1379   34.8452   -3.9586 C   0  0  0  0  0  0  0  0  0  0  0  0
  -86.8292   29.2603    0.3017 N   0  0  0  0  0  0  0  0  0  0  0  0
  -87.7244   30.2583   -0.1807 C   0  0  0  0  0  0  0  0  0  0  0  0
  -88.9663   30.0588   -0.1410 O   0  0  0  0  0  0  0  0  0  0  0  0
  -85.8104   29.3673    0.2946 H   0  0  0  0  0  0  0  0  0  0  0  0
  -88.5378   24.6840   -0.0241 N   0  0  0  0  0  0  0  0  0  0  0  0
  -88.1641   25.9125    0.6154 C   0  0  0  0  0  0  0  0  0  0  0  0
  -87.6580   27.0118    0.0726 N   0  0  0  0  0  0  0  0  0  0  0  0
  -87.3827   28.0315    0.8293 C   0  0  0  0  0  0  0  0  0  0  0  0
  -87.6327   27.9064    2.1402 N   0  0  0  0  0  0  0  0  0  0  0  0
  -88.2504   26.3500    2.2673 S   0  0  0  0  0  0  0  0  0  0  0  0
  -88.5278   23.8255    0.5409 H   0  0  0  0  0  0  0  0  0  0  0  0
  -88.7971   24.6943   -0.9979 H   0  0  0  0  0  0  0  0  0  0  0  0
 19 20  1  0  0  0
 20 21  2  0  0  0
 21 22  1  0  0  0
 22 15  1  0  0  0
 15 16  1  0  0  0
 16 17  2  0  0  0
 16  1  1  0  0  0
  1  2  2  0  0  0
  2  3  1  0  0  0
  3  4  1  0  0  0
  4  5  2  0  0  0
  4  6  1  0  0  0
  6  7  2  0  0  0
  7  8  1  0  0  0
  8  9  2  0  0  0
  9 10  1  0  0  0
 10 11  1  0  0  0
 11 12  1  0  0  0
 12 13  1  0  0  0
 13 14  2  0  0  0
 22 23  2  0  0  0
 23 24  1  0  0  0
 24 20  1  0  0  0
  5  1  1  0  0  0
 14  6  1  0  0  0
 13  9  1  0  0  0
 19 25  1  0  0  0
 19 26  1  0  0  0
 15 18  1  0  0  0
M  END
> <minimizedAffinity>
-6.77715

> <CNNscore>
0.0728283823

> <CNNaffinity>
5.3586449623

> <CNN_VS>
0.3902614415

> <CNNaffinity_variance>
0.1950009614

$$$$
[H]N=C(OC([H])([H])[H])c1nc2c([H])c([H])c3nc([H])nc(N([H])c4c([H])c([H])c(F)c([H])c4Br)c3c2s1


 28 31  0  0  0  0  0  0  0  0999 V2000
  -86.9505   27.1446    1.7185 C   0  0  0  0  0  0  0  0  0  0  0  0
  -85.7222   27.0959    2.1851 N   0  0  0  0  0  0  0  0  0  0  0  0
  -84.8967   28.0894    1.9535 C   0  0  0  0  0  0  0  0  0  0  0  0
  -83.5522   28.1511    2.3787 C   0  0  0  0  0  0  0  0  0  0  0  0
  -82.8153   29.2332    2.0463 C   0  0  0  0  0  0  0  0  0  0  0  0
  -83.2693   30.3053    1.3141 C   0  0  0  0  0  0  0  0  0  0  0  0
  -82.5201   31.3448    0.9810 N   0  0  0  0  0  0  0  0  0  0  0  0
  -83.0690   32.3424    0.2308 C   0  0  0  0  0  0  0  0  0  0  0  0
  -84.3417   32.2884   -0.1690 N   0  0  0  0  0  0  0  0  0  0  0  0
  -85.1701   31.2517    0.1374 C   0  0  0  0  0  0  0  0  0  0  0  0
  -84.5893   30.2650    0.8882 C   0  0  0  0  0  0  0  0  0  0  0  0
  -85.3697   29.1494    1.2220 C   0  0  0  0  0  0  0  0  0  0  0  0
  -86.9686   28.6352    0.9203 S   0  0  0  0  0  0  0  0  0  0  0  0
  -88.0301   26.1416    1.8661 C   0  0  0  0  0  0  0  0  0  0  0  0
  -88.2544   25.3636    0.8904 N   0  0  0  0  0  0  0  0  0  0  0  0
  -87.7089   25.4241    0.0272 H   0  0  0  0  0  0  0  0  0  0  0  0
  -89.4402   27.2216    3.4942 C   0  0  0  0  0  0  0  0  0  0  0  0
  -88.7636   26.0560    3.0190 O   0  0  0  0  0  0  0  0  0  0  0  0
  -86.5236   31.3569   -0.2081 N   0  0  0  0  0  0  0  0  0  0  0  0
  -87.2024   30.6705    0.1755 H   0  0  0  0  0  0  0  0  0  0  0  0
  -87.0821   32.3857   -1.0327 C   0  0  0  0  0  0  0  0  0  0  0  0
  -86.3147   33.3444   -1.6356 C   0  0  0  0  0  0  0  0  0  0  0  0
  -86.9080   34.3018   -2.4919 C   0  0  0  0  0  0  0  0  0  0  0  0
  -88.2621   34.2403   -2.6991 C   0  0  0  0  0  0  0  0  0  0  0  0
  -88.8015   35.1842   -3.5350 F   0  0  0  0  0  0  0  0  0  0  0  0
  -89.0406   33.2759   -2.0953 C   0  0  0  0  0  0  0  0  0  0  0  0
  -88.4655   32.3467   -1.2631 C   0  0  0  0  0  0  0  0  0  0  0  0
  -89.5555   31.0358   -0.4259 Br  0  0  0  0  0  0  0  0  0  0  0  0
 17 18  1  0  0  0
 18 14  1  0  0  0
 14 15  2  0  0  0
 14  1  1  0  0  0
  1  2  2  0  0  0
  2  3  1  0  0  0
  3  4  2  0  0  0
  4  5  1  0  0  0
  5  6  2  0  0  0
  6  7  1  0  0  0
  7  8  2  0  0  0
  8  9  1  0  0  0
  9 10  2  0  0  0
 10 19  1  0  0  0
 19 21  1  0  0  0
 21 22  2  0  0  0
 22 23  1  0  0  0
 23 24  2  0  0  0
 24 25  1  0  0  0
 24 26  1  0  0  0
 26 27  2  0  0  0
 27 28  1  0  0  0
 10 11  1  0  0  0
 11 12  2  0  0  0
 12 13  1  0  0  0
 13  1  1  0  0  0
 12  3  1  0  0  0
 11  6  1  0  0  0
 27 21  1  0  0  0
 15 16  1  0  0  0
 19 20  1  0  0  0
M  END
> <minimizedAffinity>
-9.64050

> <CNNscore>
0.8264012933

> <CNNaffinity>
7.4688553810

> <CNN_VS>
6.1722717285

> <CNNaffinity_variance>
0.0385561101

$$$$
[H]N=C(OC([H])([H])[H])c1nc2c([H])c([H])c3nc([H])nc(N([H])c4c([H])c([H])c(F)c([H])c4Br)c3c2s1


 28 31  0  0  0  0  0  0  0  0999 V2000
  -86.3349   33.2199   -1.5930 C   0  0  0  0  0  0  0  0  0  0  0  0
  -85.0453   33.3420   -1.3676 N   0  0  0  0  0  0  0  0  0  0  0  0
  -84.4319   32.4712   -0.6010 C   0  0  0  0  0  0  0  0  0  0  0  0
  -83.0614   32.5009   -0.2647 C   0  0  0  0  0  0  0  0  0  0  0  0
  -82.5735   31.5448    0.5552 C   0  0  0  0  0  0  0  0  0  0  0  0
  -83.3101   30.5209    1.1035 C   0  0  0  0  0  0  0  0  0  0  0  0
  -82.8133   29.6083    1.9239 N   0  0  0  0  0  0  0  0  0  0  0  0
  -83.6426   28.6503    2.4278 C   0  0  0  0  0  0  0  0  0  0  0  0
  -84.9383   28.6176    2.1078 N   0  0  0  0  0  0  0  0  0  0  0  0
  -85.5166   29.5223    1.2699 C   0  0  0  0  0  0  0  0  0  0  0  0
  -84.6594   30.4727    0.7834 C   0  0  0  0  0  0  0  0  0  0  0  0
  -85.1848   31.4573   -0.0648 C   0  0  0  0  0  0  0  0  0  0  0  0
  -86.7215   31.8348   -0.7035 S   0  0  0  0  0  0  0  0  0  0  0  0
  -87.2091   34.0833   -2.4197 C   0  0  0  0  0  0  0  0  0  0  0  0
  -86.6620   34.8045   -3.3075 N   0  0  0  0  0  0  0  0  0  0  0  0
  -85.6493   34.7928   -3.4508 H   0  0  0  0  0  0  0  0  0  0  0  0
  -89.4001   33.4087   -3.1614 C   0  0  0  0  0  0  0  0  0  0  0  0
  -88.5653   34.1032   -2.2325 O   0  0  0  0  0  0  0  0  0  0  0  0
  -86.8483   29.3179    0.8865 N   0  0  0  0  0  0  0  0  0  0  0  0
  -87.3849   30.1033    0.4691 H   0  0  0  0  0  0  0  0  0  0  0  0
  -87.5462   28.0709    0.9785 C   0  0  0  0  0  0  0  0  0  0  0  0
  -87.9353   27.5309    2.1736 C   0  0  0  0  0  0  0  0  0  0  0  0
  -88.6780   26.3271    2.2069 C   0  0  0  0  0  0  0  0  0  0  0  0
  -88.9947   25.7238    1.0169 C   0  0  0  0  0  0  0  0  0  0  0  0
  -89.7152   24.5591    1.0886 F   0  0  0  0  0  0  0  0  0  0  0  0
  -88.6064   26.2636   -0.1907 C   0  0  0  0  0  0  0  0  0  0  0  0
  -87.8846   27.4318   -0.2238 C   0  0  0  0  0  0  0  0  0  0  0  0
  -87.3429   28.1523   -1.8955 Br  0  0  0  0  0  0  0  0  0  0  0  0
 17 18  1  0  0  0
 18 14  1  0  0  0
 14 15  2  0  0  0
 14  1  1  0  0  0
  1  2  2  0  0  0
  2  3  1  0  0  0
  3  4  2  0  0  0
  4  5  1  0  0  0
  5  6  2  0  0  0
  6  7  1  0  0  0
  7  8  2  0  0  0
  8  9  1  0  0  0
  9 10  2  0  0  0
 10 19  1  0  0  0
 19 21  1  0  0  0
 21 22  2  0  0  0
 22 23  1  0  0  0
 23 24  2  0  0  0
 24 25  1  0  0  0
 24 26  1  0  0  0
 26 27  2  0  0  0
 27 28  1  0  0  0
 10 11  1  0  0  0
 11 12  2  0  0  0
 12 13  1  0  0  0
 13  1  1  0  0  0
 12  3  1  0  0  0
 11  6  1  0  0  0
 27 21  1  0  0  0
 15 16  1  0  0  0
 19 20  1  0  0  0
M  END
> <minimizedAffinity>
-8.90687

> <CNNscore>
0.6413056254

> <CNNaffinity>
7.2435708046

> <CNN_VS>
4.6453428268

> <CNNaffinity_variance>
0.1689479053

$$$$
[H]N=C(OC([H])([H])[H])c1nc2c([H])c([H])c3nc([H])nc(N([H])c4c([H])c([H])c(F)c([H])c4Br)c3c2s1


 28 31  0  0  0  0  0  0  0  0999 V2000
  -87.4394   27.4851    1.8516 C   0  0  0  0  0  0  0  0  0  0  0  0
  -86.2276   27.3046    2.3288 N   0  0  0  0  0  0  0  0  0  0  0  0
  -85.2837   28.1752    2.0579 C   0  0  0  0  0  0  0  0  0  0  0  0
  -83.9427   28.0876    2.4896 C   0  0  0  0  0  0  0  0  0  0  0  0
  -83.0754   29.0523    2.1133 C   0  0  0  0  0  0  0  0  0  0  0  0
  -83.3903   30.1378    1.3295 C   0  0  0  0  0  0  0  0  0  0  0  0
  -82.5162   31.0587    0.9545 N   0  0  0  0  0  0  0  0  0  0  0  0
  -82.9345   32.0813    0.1554 C   0  0  0  0  0  0  0  0  0  0  0  0
  -84.2033   32.1686   -0.2507 N   0  0  0  0  0  0  0  0  0  0  0  0
  -85.1557   31.2592    0.0969 C   0  0  0  0  0  0  0  0  0  0  0  0
  -84.7043   30.2433    0.8964 C   0  0  0  0  0  0  0  0  0  0  0  0
  -85.6189   29.2510    1.2752 C   0  0  0  0  0  0  0  0  0  0  0  0
  -87.2692   28.9276    0.9859 S   0  0  0  0  0  0  0  0  0  0  0  0
  -88.6365   26.6331    2.0372 C   0  0  0  0  0  0  0  0  0  0  0  0
  -88.5014   25.3807    1.8926 N   0  0  0  0  0  0  0  0  0  0  0  0
  -87.5957   24.9686    1.6554 H   0  0  0  0  0  0  0  0  0  0  0  0
  -90.8532   27.2695    1.3400 C   0  0  0  0  0  0  0  0  0  0  0  0
  -89.8512   27.1790    2.3548 O   0  0  0  0  0  0  0  0  0  0  0  0
  -86.4847   31.5168   -0.2628 N   0  0  0  0  0  0  0  0  0  0  0  0
  -87.1406   31.8967    0.4474 H   0  0  0  0  0  0  0  0  0  0  0  0
  -87.0278   31.3412   -1.5762 C   0  0  0  0  0  0  0  0  0  0  0  0
  -87.4108   30.1194   -2.0577 C   0  0  0  0  0  0  0  0  0  0  0  0
  -88.0005   30.0081   -3.3390 C   0  0  0  0  0  0  0  0  0  0  0  0
  -88.1765   31.1505   -4.0767 C   0  0  0  0  0  0  0  0  0  0  0  0
  -88.7510   31.0037   -5.3133 F   0  0  0  0  0  0  0  0  0  0  0  0
  -87.7935   32.3848   -3.5965 C   0  0  0  0  0  0  0  0  0  0  0  0
  -87.2202   32.4935   -2.3530 C   0  0  0  0  0  0  0  0  0  0  0  0
  -86.6828   34.1995   -1.7143 Br  0  0  0  0  0  0  0  0  0  0  0  0
 17 18  1  0  0  0
 18 14  1  0  0  0
 14 15  2  0  0  0
 14  1  1  0  0  0
  1  2  2  0  0  0
  2  3  1  0  0  0
  3  4  2  0  0  0
  4  5  1  0  0  0
  5  6  2  0  0  0
  6  7  1  0  0  0
  7  8  2  0  0  0
  8  9  1  0  0  0
  9 10  2  0  0  0
 10 19  1  0  0  0
 19 21  1  0  0  0
 21 22  2  0  0  0
 22 23  1  0  0  0
 23 24  2  0  0  0
 24 25  1  0  0  0
 24 26  1  0  0  0
 26 27  2  0  0  0
 27 28  1  0  0  0
 10 11  1  0  0  0
 11 12  2  0  0  0
 12 13  1  0  0  0
 13  1  1  0  0  0
 12  3  1  0  0  0
 11  6  1  0  0  0
 27 21  1  0  0  0
 15 16  1  0  0  0
 19 20  1  0  0  0
M  END
> <minimizedAffinity>
-8.47957

> <CNNscore>
0.5478219390

> <CNNaffinity>
7.1126680374

> <CNN_VS>
3.8964755535

> <CNNaffinity_variance>
0.1216623783

$$$$
[H]N=C(OC([H])([H])[H])c1nc2c([H])c([H])c3nc([H])nc(N([H])c4c([H])c([H])c(F)c([H])c4Br)c3c2s1


 28 31  0  0  0  0  0  0  0  0999 V2000
  -85.0887   31.5258    0.4546 C   0  0  0  0  0  0  0  0  0  0  0  0
  -85.5917   32.5317   -0.2265 N   0  0  0  0  0  0  0  0  0  0  0  0
  -86.7657   32.4089   -0.7999 C   0  0  0  0  0  0  0  0  0  0  0  0
  -87.4055   33.4014   -1.5730 C   0  0  0  0  0  0  0  0  0  0  0  0
  -88.6086   33.1227   -2.1201 C   0  0  0  0  0  0  0  0  0  0  0  0
  -89.2815   31.9306   -1.9870 C   0  0  0  0  0  0  0  0  0  0  0  0
  -90.4504   31.6730   -2.5527 N   0  0  0  0  0  0  0  0  0  0  0  0
  -91.0165   30.4457   -2.3723 C   0  0  0  0  0  0  0  0  0  0  0  0
  -90.4152   29.5067   -1.6379 N   0  0  0  0  0  0  0  0  0  0  0  0
  -89.2141   29.7021   -1.0263 C   0  0  0  0  0  0  0  0  0  0  0  0
  -88.6702   30.9422   -1.2288 C   0  0  0  0  0  0  0  0  0  0  0  0
  -87.4204   31.2120   -0.6542 C   0  0  0  0  0  0  0  0  0  0  0  0
  -86.2950   30.3514    0.2968 S   0  0  0  0  0  0  0  0  0  0  0  0
  -83.7952   31.4574    1.1725 C   0  0  0  0  0  0  0  0  0  0  0  0
  -82.8866   32.2757    0.8369 N   0  0  0  0  0  0  0  0  0  0  0  0
  -83.0389   32.9625    0.0944 H   0  0  0  0  0  0  0  0  0  0  0  0
  -82.8020   29.3798    1.8812 C   0  0  0  0  0  0  0  0  0  0  0  0
  -83.5854   30.5402    2.1670 O   0  0  0  0  0  0  0  0  0  0  0  0
  -88.7365   28.7067   -0.1642 N   0  0  0  0  0  0  0  0  0  0  0  0
  -87.8705   28.1898   -0.4126 H   0  0  0  0  0  0  0  0  0  0  0  0
  -89.3278   28.3568    1.0922 C   0  0  0  0  0  0  0  0  0  0  0  0
  -90.5273   28.8656    1.5090 C   0  0  0  0  0  0  0  0  0  0  0  0
  -91.0994   28.4397    2.7310 C   0  0  0  0  0  0  0  0  0  0  0  0
  -90.4232   27.5095    3.4778 C   0  0  0  0  0  0  0  0  0  0  0  0
  -91.0082   27.1208    4.6556 F   0  0  0  0  0  0  0  0  0  0  0  0
  -89.2146   26.9923    3.0626 C   0  0  0  0  0  0  0  0  0  0  0  0
  -88.6582   27.4058    1.8768 C   0  0  0  0  0  0  0  0  0  0  0  0
  -86.9842   26.6957    1.3285 Br  0  0  0  0  0  0  0  0  0  0  0  0
 17 18  1  0  0  0
 18 14  1  0  0  0
 14 15  2  0  0  0
 14  1  1  0  0  0
  1  2  2  0  0  0
  2  3  1  0  0  0
  3  4  2  0  0  0
  4  5  1  0  0  0
  5  6  2  0  0  0
  6  7  1  0  0  0
  7  8  2  0  0  0
  8  9  1  0  0  0
  9 10  2  0  0  0
 10 19  1  0  0  0
 19 21  1  0  0  0
 21 22  2  0  0  0
 22 23  1  0  0  0
 23 24  2  0  0  0
 24 25  1  0  0  0
 24 26  1  0  0  0
 26 27  2  0  0  0
 27 28  1  0  0  0
 10 11  1  0  0  0
 11 12  2  0  0  0
 12 13  1  0  0  0
 13  1  1  0  0  0
 12  3  1  0  0  0
 11  6  1  0  0  0
 27 21  1  0  0  0
 15 16  1  0  0  0
 19 20  1  0  0  0
M  END
> <minimizedAffinity>
-8.13912

> <CNNscore>
0.5160175562

> <CNNaffinity>
7.0099587440

> <CNN_VS>
3.6172618866

> <CNNaffinity_variance>
0.0525100939

$$$$
[H]N=C(OC([H])([H])[H])c1nc2c([H])c([H])c3nc([H])nc(N([H])c4c([H])c([H])c(F)c([H])c4Br)c3c2s1


 28 31  0  0  0  0  0  0  0  0999 V2000
  -84.8107   31.6738    0.3999 C   0  0  0  0  0  0  0  0  0  0  0  0
  -85.1378   32.6768   -0.3848 N   0  0  0  0  0  0  0  0  0  0  0  0
  -86.3113   32.6897   -0.9719 C   0  0  0  0  0  0  0  0  0  0  0  0
  -86.7749   33.6926   -1.8503 C   0  0  0  0  0  0  0  0  0  0  0  0
  -88.0027   33.5596   -2.3972 C   0  0  0  0  0  0  0  0  0  0  0  0
  -88.8615   32.5099   -2.1685 C   0  0  0  0  0  0  0  0  0  0  0  0
  -90.0520   32.3903   -2.7351 N   0  0  0  0  0  0  0  0  0  0  0  0
  -90.8115   31.2934   -2.4534 C   0  0  0  0  0  0  0  0  0  0  0  0
  -90.3770   30.3456   -1.6197 N   0  0  0  0  0  0  0  0  0  0  0  0
  -89.1653   30.4034   -1.0006 C   0  0  0  0  0  0  0  0  0  0  0  0
  -88.4253   31.5142   -1.3061 C   0  0  0  0  0  0  0  0  0  0  0  0
  -87.1531   31.6336   -0.7298 C   0  0  0  0  0  0  0  0  0  0  0  0
  -86.1905   30.6993    0.3248 S   0  0  0  0  0  0  0  0  0  0  0  0
  -83.5515   31.4680    1.1517 C   0  0  0  0  0  0  0  0  0  0  0  0
  -82.5624   32.2083    0.8664 N   0  0  0  0  0  0  0  0  0  0  0  0
  -82.6288   32.9260    0.1406 H   0  0  0  0  0  0  0  0  0  0  0  0
  -82.6761   29.3400    1.8664 C   0  0  0  0  0  0  0  0  0  0  0  0
  -83.4566   30.5089    2.1242 O   0  0  0  0  0  0  0  0  0  0  0  0
  -88.8630   29.4323   -0.0374 N   0  0  0  0  0  0  0  0  0  0  0  0
  -88.4277   29.7226    0.8600 H   0  0  0  0  0  0  0  0  0  0  0  0
  -89.1508   28.0352   -0.1627 C   0  0  0  0  0  0  0  0  0  0  0  0
  -88.4933   27.2239   -1.0464 C   0  0  0  0  0  0  0  0  0  0  0  0
  -88.7707   25.8371   -1.0874 C   0  0  0  0  0  0  0  0  0  0  0  0
  -89.7084   25.3344   -0.2224 C   0  0  0  0  0  0  0  0  0  0  0  0
  -89.9506   23.9863   -0.2909 F   0  0  0  0  0  0  0  0  0  0  0  0
  -90.3736   26.1466    0.6712 C   0  0  0  0  0  0  0  0  0  0  0  0
  -90.1054   27.4932    0.7110 C   0  0  0  0  0  0  0  0  0  0  0  0
  -91.0436   28.6002    1.9364 Br  0  0  0  0  0  0  0  0  0  0  0  0
 17 18  1  0  0  0
 18 14  1  0  0  0
 14 15  2  0  0  0
 14  1  1  0  0  0
  1  2  2  0  0  0
  2  3  1  0  0  0
  3  4  2  0  0  0
  4  5  1  0  0  0
  5  6  2  0  0  0
  6  7  1  0  0  0
  7  8  2  0  0  0
  8  9  1  0  0  0
  9 10  2  0  0  0
 10 19  1  0  0  0
 19 21  1  0  0  0
 21 22  2  0  0  0
 22 23  1  0  0  0
 23 24  2  0  0  0
 24 25  1  0  0  0
 24 26  1  0  0  0
 26 27  2  0  0  0
 27 28  1  0  0  0
 10 11  1  0  0  0
 11 12  2  0  0  0
 12 13  1  0  0  0
 13  1  1  0  0  0
 12  3  1  0  0  0
 11  6  1  0  0  0
 27 21  1  0  0  0
 15 16  1  0  0  0
 19 20  1  0  0  0
M  END
> <minimizedAffinity>
-7.72209

> <CNNscore>
0.2911447287

> <CNNaffinity>
6.8173246384

> <CNN_VS>
1.9848281145

> <CNNaffinity_variance>
0.0680450201

$$$$
[H]N=C(OC([H])([H])[H])c1nc2c([H])c([H])c3nc([H])nc(N([H])c4c([H])c([H])c(F)c([H])c4Br)c3c2s1


 28 31  0  0  0  0  0  0  0  0999 V2000
  -88.4416   28.2266    0.7119 C   0  0  0  0  0  0  0  0  0  0  0  0
  -87.2993   28.0403    1.3359 N   0  0  0  0  0  0  0  0  0  0  0  0
  -86.3298   28.9136    1.1960 C   0  0  0  0  0  0  0  0  0  0  0  0
  -85.0537   28.8206    1.7920 C   0  0  0  0  0  0  0  0  0  0  0  0
  -84.1470   29.7893    1.5390 C   0  0  0  0  0  0  0  0  0  0  0  0
  -84.3619   30.8838    0.7343 C   0  0  0  0  0  0  0  0  0  0  0  0
  -83.4486   31.8087    0.4830 N   0  0  0  0  0  0  0  0  0  0  0  0
  -83.7641   32.8406   -0.3507 C   0  0  0  0  0  0  0  0  0  0  0  0
  -84.9718   32.9329   -0.9122 N   0  0  0  0  0  0  0  0  0  0  0  0
  -85.9593   32.0199   -0.6978 C   0  0  0  0  0  0  0  0  0  0  0  0
  -85.6111   30.9948    0.1404 C   0  0  0  0  0  0  0  0  0  0  0  0
  -86.5650   29.9984    0.3896 C   0  0  0  0  0  0  0  0  0  0  0  0
  -88.1654   29.6789   -0.1089 S   0  0  0  0  0  0  0  0  0  0  0  0
  -89.6516   27.3730    0.7356 C   0  0  0  0  0  0  0  0  0  0  0  0
  -90.7493   27.9092    1.0751 N   0  0  0  0  0  0  0  0  0  0  0  0
  -90.8010   28.8997    1.3253 H   0  0  0  0  0  0  0  0  0  0  0  0
  -89.0978   25.6831   -0.8902 C   0  0  0  0  0  0  0  0  0  0  0  0
  -89.5885   26.0467    0.4017 O   0  0  0  0  0  0  0  0  0  0  0  0
  -87.2328   32.2821   -1.2191 N   0  0  0  0  0  0  0  0  0  0  0  0
  -88.0712   31.9255   -0.7201 H   0  0  0  0  0  0  0  0  0  0  0  0
  -87.4947   33.0618   -2.3913 C   0  0  0  0  0  0  0  0  0  0  0  0
  -87.4010   34.4265   -2.4044 C   0  0  0  0  0  0  0  0  0  0  0  0
  -87.6084   35.1464   -3.6046 C   0  0  0  0  0  0  0  0  0  0  0  0
  -87.9021   34.4426   -4.7442 C   0  0  0  0  0  0  0  0  0  0  0  0
  -88.0964   35.1739   -5.8879 F   0  0  0  0  0  0  0  0  0  0  0  0
  -87.9968   33.0672   -4.7375 C   0  0  0  0  0  0  0  0  0  0  0  0
  -87.7964   32.3676   -3.5725 C   0  0  0  0  0  0  0  0  0  0  0  0
  -87.9479   30.4744   -3.5778 Br  0  0  0  0  0  0  0  0  0  0  0  0
 17 18  1  0  0  0
 18 14  1  0  0  0
 14 15  2  0  0  0
 14  1  1  0  0  0
  1  2  2  0  0  0
  2  3  1  0  0  0
  3  4  2  0  0  0
  4  5  1  0  0  0
  5  6  2  0  0  0
  6  7  1  0  0  0
  7  8  2  0  0  0
  8  9  1  0  0  0
  9 10  2  0  0  0
 10 19  1  0  0  0
 19 21  1  0  0  0
 21 22  2  0  0  0
 22 23  1  0  0  0
 23 24  2  0  0  0
 24 25  1  0  0  0
 24 26  1  0  0  0
 26 27  2  0  0  0
 27 28  1  0  0  0
 10 11  1  0  0  0
 11 12  2  0  0  0
 12 13  1  0  0  0
 13  1  1  0  0  0
 12  3  1  0  0  0
 11  6  1  0  0  0
 27 21  1  0  0  0
 15 16  1  0  0  0
 19 20  1  0  0  0
M  END
> <minimizedAffinity>
-7.90511

> <CNNscore>
0.2853854001

> <CNNaffinity>
6.8122739792

> <CNN_VS>
1.9441235065

> <CNNaffinity_variance>
0.0957307667

$$$$
[H]N=C(OC([H])([H])[H])c1nc2c([H])c([H])c3nc([H])nc(N([H])c4c([H])c([H])c(F)c([H])c4Br)c3c2s1


 28 31  0  0  0  0  0  0  0  0999 V2000
  -90.7831   29.1411    0.0100 C   0  0  0  0  0  0  0  0  0  0  0  0
  -91.2821   29.2484   -1.2017 N   0  0  0  0  0  0  0  0  0  0  0  0
  -90.6985   30.0288   -2.0806 C   0  0  0  0  0  0  0  0  0  0  0  0
  -91.1429   30.2469   -3.4025 C   0  0  0  0  0  0  0  0  0  0  0  0
  -90.4482   31.0975   -4.1887 C   0  0  0  0  0  0  0  0  0  0  0  0
  -89.3198   31.7852   -3.8073 C   0  0  0  0  0  0  0  0  0  0  0  0
  -88.6690   32.6321   -4.5897 N   0  0  0  0  0  0  0  0  0  0  0  0
  -87.5733   33.2781   -4.0984 C   0  0  0  0  0  0  0  0  0  0  0  0
  -87.1485   33.0702   -2.8498 N   0  0  0  0  0  0  0  0  0  0  0  0
  -87.7672   32.2133   -1.9908 C   0  0  0  0  0  0  0  0  0  0  0  0
  -88.8652   31.5829   -2.5120 C   0  0  0  0  0  0  0  0  0  0  0  0
  -89.5739   30.7050   -1.6802 C   0  0  0  0  0  0  0  0  0  0  0  0
  -89.4417   30.1677   -0.0660 S   0  0  0  0  0  0  0  0  0  0  0  0
  -91.2809   28.3231    1.1397 C   0  0  0  0  0  0  0  0  0  0  0  0
  -91.5278   27.0986    0.9219 N   0  0  0  0  0  0  0  0  0  0  0  0
  -91.3886   26.6857   -0.0035 H   0  0  0  0  0  0  0  0  0  0  0  0
  -90.8901   28.2226    3.5151 C   0  0  0  0  0  0  0  0  0  0  0  0
  -91.4692   28.8702    2.3806 O   0  0  0  0  0  0  0  0  0  0  0  0
  -87.1620   31.9592   -0.7533 N   0  0  0  0  0  0  0  0  0  0  0  0
  -87.7528   31.6886    0.0571 H   0  0  0  0  0  0  0  0  0  0  0  0
  -85.7518   31.9952   -0.5071 C   0  0  0  0  0  0  0  0  0  0  0  0
  -85.0033   33.1278   -0.6751 C   0  0  0  0  0  0  0  0  0  0  0  0
  -83.6245   33.1279   -0.3577 C   0  0  0  0  0  0  0  0  0  0  0  0
  -83.0658   31.9704    0.1202 C   0  0  0  0  0  0  0  0  0  0  0  0
  -81.7275   32.0084    0.4169 F   0  0  0  0  0  0  0  0  0  0  0  0
  -83.8151   30.8261    0.2927 C   0  0  0  0  0  0  0  0  0  0  0  0
  -85.1536   30.8250   -0.0160 C   0  0  0  0  0  0  0  0  0  0  0  0
  -86.1670   29.2349    0.2115 Br  0  0  0  0  0  0  0  0  0  0  0  0
 17 18  1  0  0  0
 18 14  1  0  0  0
 14 15  2  0  0  0
 14  1  1  0  0  0
  1  2  2  0  0  0
  2  3  1  0  0  0
  3  4  2  0  0  0
  4  5  1  0  0  0
  5  6  2  0  0  0
  6  7  1  0  0  0
  7  8  2  0  0  0
  8  9  1  0  0  0
  9 10  2  0  0  0
 10 19  1  0  0  0
 19 21  1  0  0  0
 21 22  2  0  0  0
 22 23  1  0  0  0
 23 24  2  0  0  0
 24 25  1  0  0  0
 24 26  1  0  0  0
 26 27  2  0  0  0
 27 28  1  0  0  0
 10 11  1  0  0  0
 11 12  2  0  0  0
 12 13  1  0  0  0
 13  1  1  0  0  0
 12  3  1  0  0  0
 11  6  1  0  0  0
 27 21  1  0  0  0
 15 16  1  0  0  0
 19 20  1  0  0  0
M  END
> <minimizedAffinity>
-7.91658

> <CNNscore>
0.1544303000

> <CNNaffinity>
6.0734262466

> <CNN_VS>
0.9379210472

> <CNNaffinity_variance>
0.2772101164

$$$$
[H]N=C(OC([H])([H])[H])c1nc2c([H])c([H])c3nc([H])nc(N([H])c4c([H])c([H])c(F)c([H])c4Br)c3c2s1


 28 31  0  0  0  0  0  0  0  0999 V2000
  -88.4985   26.4094   -0.7699 C   0  0  0  0  0  0  0  0  0  0  0  0
  -87.7174   26.1597    0.2579 N   0  0  0  0  0  0  0  0  0  0  0  0
  -86.9324   27.1022    0.7246 C   0  0  0  0  0  0  0  0  0  0  0  0
  -86.0350   26.9581    1.8045 C   0  0  0  0  0  0  0  0  0  0  0  0
  -85.2728   28.0149    2.1605 C   0  0  0  0  0  0  0  0  0  0  0  0
  -85.2945   29.2475    1.5506 C   0  0  0  0  0  0  0  0  0  0  0  0
  -84.5202   30.2618    1.9034 N   0  0  0  0  0  0  0  0  0  0  0  0
  -84.6093   31.4336    1.2120 C   0  0  0  0  0  0  0  0  0  0  0  0
  -85.4603   31.5737    0.1929 N   0  0  0  0  0  0  0  0  0  0  0  0
  -86.2869   30.5745   -0.2235 C   0  0  0  0  0  0  0  0  0  0  0  0
  -86.1717   29.4103    0.4879 C   0  0  0  0  0  0  0  0  0  0  0  0
  -86.9699   28.3244    0.1025 C   0  0  0  0  0  0  0  0  0  0  0  0
  -88.1325   28.0248   -1.1102 S   0  0  0  0  0  0  0  0  0  0  0  0
  -89.4512   25.4971   -1.4431 C   0  0  0  0  0  0  0  0  0  0  0  0
  -88.9936   24.4258   -1.9437 N   0  0  0  0  0  0  0  0  0  0  0  0
  -87.9986   24.1959   -1.8862 H   0  0  0  0  0  0  0  0  0  0  0  0
  -91.2871   26.3867   -2.7249 C   0  0  0  0  0  0  0  0  0  0  0  0
  -90.7841   25.7995   -1.5232 O   0  0  0  0  0  0  0  0  0  0  0  0
  -87.2406   30.8662   -1.2072 N   0  0  0  0  0  0  0  0  0  0  0  0
  -87.8304   30.1008   -1.5882 H   0  0  0  0  0  0  0  0  0  0  0  0
  -87.5169   32.1746   -1.7193 C   0  0  0  0  0  0  0  0  0  0  0  0
  -86.5299   33.0784   -2.0028 C   0  0  0  0  0  0  0  0  0  0  0  0
  -86.8513   34.3356   -2.5667 C   0  0  0  0  0  0  0  0  0  0  0  0
  -88.1690   34.6185   -2.8197 C   0  0  0  0  0  0  0  0  0  0  0  0
  -88.4422   35.8462   -3.3663 F   0  0  0  0  0  0  0  0  0  0  0  0
  -89.1681   33.7115   -2.5372 C   0  0  0  0  0  0  0  0  0  0  0  0
  -88.8569   32.4911   -1.9890 C   0  0  0  0  0  0  0  0  0  0  0  0
  -90.2474   31.2604   -1.5901 Br  0  0  0  0  0  0  0  0  0  0  0  0
 17 18  1  0  0  0
 18 14  1  0  0  0
 14 15  2  0  0  0
 14  1  1  0  0  0
  1  2  2  0  0  0
  2  3  1  0  0  0
  3  4  2  0  0  0
  4  5  1  0  0  0
  5  6  2  0  0  0
  6  7  1  0  0  0
  7  8  2  0  0  0
  8  9  1  0  0  0
  9 10  2  0  0  0
 10 19  1  0  0  0
 19 21  1  0  0  0
 21 22  2  0  0  0
 22 23  1  0  0  0
 23 24  2  0  0  0
 24 25  1  0  0  0
 24 26  1  0  0  0
 26 27  2  0  0  0
 27 28  1  0  0  0
 10 11  1  0  0  0
 11 12  2  0  0  0
 12 13  1  0  0  0
 13  1  1  0  0  0
 12  3  1  0  0  0
 11  6  1  0  0  0
 27 21  1  0  0  0
 15 16  1  0  0  0
 19 20  1  0  0  0
M  END
> <minimizedAffinity>
-7.97239

> <CNNscore>
0.1519285589

> <CNNaffinity>
6.4486761093

> <CNN_VS>
0.9797380567

> <CNNaffinity_variance>
0.2095488608

$$$$
[H]N=C(OC([H])([H])[H])c1nc2c([H])c([H])c3nc([H])nc(N([H])c4c([H])c([H])c(F)c([H])c4Br)c3c2s1


 28 31  0  0  0  0  0  0  0  0999 V2000
  -85.6322   29.0822    1.2518 C   0  0  0  0  0  0  0  0  0  0  0  0
  -85.0872   30.2787    1.2383 N   0  0  0  0  0  0  0  0  0  0  0  0
  -85.5895   31.2154    0.4686 C   0  0  0  0  0  0  0  0  0  0  0  0
  -85.0880   32.5292    0.3467 C   0  0  0  0  0  0  0  0  0  0  0  0
  -85.6995   33.3810   -0.5047 C   0  0  0  0  0  0  0  0  0  0  0  0
  -86.7930   33.0751   -1.2809 C   0  0  0  0  0  0  0  0  0  0  0  0
  -87.3610   33.9212   -2.1260 N   0  0  0  0  0  0  0  0  0  0  0  0
  -88.4283   33.5023   -2.8642 C   0  0  0  0  0  0  0  0  0  0  0  0
  -88.9070   32.2615   -2.7476 N   0  0  0  0  0  0  0  0  0  0  0  0
  -88.3742   31.3396   -1.8984 C   0  0  0  0  0  0  0  0  0  0  0  0
  -87.3026   31.7889   -1.1741 C   0  0  0  0  0  0  0  0  0  0  0  0
  -86.6805   30.8898   -0.2969 C   0  0  0  0  0  0  0  0  0  0  0  0
  -86.9010   29.2572    0.1478 S   0  0  0  0  0  0  0  0  0  0  0  0
  -85.2265   27.8964    2.0407 C   0  0  0  0  0  0  0  0  0  0  0  0
  -85.8293   26.8028    1.8206 N   0  0  0  0  0  0  0  0  0  0  0  0
  -86.5727   26.7383    1.1210 H   0  0  0  0  0  0  0  0  0  0  0  0
  -82.8723   27.8702    2.5528 C   0  0  0  0  0  0  0  0  0  0  0  0
  -84.2322   27.9768    2.9785 O   0  0  0  0  0  0  0  0  0  0  0  0
  -89.0355   30.1141   -1.7466 N   0  0  0  0  0  0  0  0  0  0  0  0
  -88.5530   29.3309   -1.2641 H   0  0  0  0  0  0  0  0  0  0  0  0
  -90.3775   29.8482   -2.1695 C   0  0  0  0  0  0  0  0  0  0  0  0
  -90.7741   29.9582   -3.4741 C   0  0  0  0  0  0  0  0  0  0  0  0
  -92.0962   29.6232   -3.8506 C   0  0  0  0  0  0  0  0  0  0  0  0
  -92.9600   29.1878   -2.8787 C   0  0  0  0  0  0  0  0  0  0  0  0
  -94.2326   28.8724   -3.2809 F   0  0  0  0  0  0  0  0  0  0  0  0
  -92.5659   29.0739   -1.5625 C   0  0  0  0  0  0  0  0  0  0  0  0
  -91.2828   29.3997   -1.1961 C   0  0  0  0  0  0  0  0  0  0  0  0
  -90.7618   29.2534    0.6245 Br  0  0  0  0  0  0  0  0  0  0  0  0
 17 18  1  0  0  0
 18 14  1  0  0  0
 14 15  2  0  0  0
 14  1  1  0  0  0
  1  2  2  0  0  0
  2  3  1  0  0  0
  3  4  2  0  0  0
  4  5  1  0  0  0
  5  6  2  0  0  0
  6  7  1  0  0  0
  7  8  2  0  0  0
  8  9  1  0  0  0
  9 10  2  0  0  0
 10 19  1  0  0  0
 19 21  1  0  0  0
 21 22  2  0  0  0
 22 23  1  0  0  0
 23 24  2  0  0  0
 24 25  1  0  0  0
 24 26  1  0  0  0
 26 27  2  0  0  0
 27 28  1  0  0  0
 10 11  1  0  0  0
 11 12  2  0  0  0
 12 13  1  0  0  0
 13  1  1  0  0  0
 12  3  1  0  0  0
 11  6  1  0  0  0
 27 21  1  0  0  0
 15 16  1  0  0  0
 19 20  1  0  0  0
M  END
> <minimizedAffinity>
-7.29665

> <CNNscore>
0.1419662982

> <CNNaffinity>
6.4538984299

> <CNN_VS>
0.9162360430

> <CNNaffinity_variance>
0.1266523749

$$$$
[H]c1c([H])c([H])c(C([H])([H])N([H])C(=O)c2c([H])c([H])c(Cl)c(N([H])C(=O)c3c([H])c4c([H])nc(OC([H])([H])[H])nc4n([H])c3=O)c2[H])c([H])c1[H]


 36 39  0  0  0  0  0  0  0  0999 V2000
  -86.9959   31.8260   -1.3800 C   0  0  0  0  0  0  0  0  0  0  0  0
  -87.3499   30.6855   -1.7682 O   0  0  0  0  0  0  0  0  0  0  0  0
  -86.0257   32.0354   -0.4116 N   0  0  0  0  0  0  0  0  0  0  0  0
  -85.8369   33.0764   -0.1725 H   0  0  0  0  0  0  0  0  0  0  0  0
  -89.0134   36.8003   -4.8222 C   0  0  0  0  0  0  0  0  0  0  0  0
  -87.6923   36.6256   -4.9499 N   0  0  0  0  0  0  0  0  0  0  0  0
  -86.9664   35.6986   -4.3306 C   0  0  0  0  0  0  0  0  0  0  0  0
  -87.6442   34.8454   -3.4849 C   0  0  0  0  0  0  0  0  0  0  0  0
  -86.9791   33.8274   -2.8193 C   0  0  0  0  0  0  0  0  0  0  0  0
  -87.6783   32.9702   -2.0041 C   0  0  0  0  0  0  0  0  0  0  0  0
  -89.0278   33.1509   -1.8704 C   0  0  0  0  0  0  0  0  0  0  0  0
  -89.6684   32.3440   -1.1077 O   0  0  0  0  0  0  0  0  0  0  0  0
  -89.6548   34.1361   -2.5183 N   0  0  0  0  0  0  0  0  0  0  0  0
  -88.9934   34.9996   -3.3338 C   0  0  0  0  0  0  0  0  0  0  0  0
  -89.6658   35.9649   -3.9951 N   0  0  0  0  0  0  0  0  0  0  0  0
  -90.6756   34.2580   -2.4087 H   0  0  0  0  0  0  0  0  0  0  0  0
  -90.3147   37.5308   -6.7391 C   0  0  0  0  0  0  0  0  0  0  0  0
  -89.6721   37.8119   -5.5252 O   0  0  0  0  0  0  0  0  0  0  0  0
  -85.2387   31.1257    0.3095 C   0  0  0  0  0  0  0  0  0  0  0  0
  -85.6543   29.9005    0.7941 C   0  0  0  0  0  0  0  0  0  0  0  0
  -84.8340   29.0193    1.4813 C   0  0  0  0  0  0  0  0  0  0  0  0
  -83.5285   29.3580    1.7094 C   0  0  0  0  0  0  0  0  0  0  0  0
  -83.0691   30.5661    1.2452 C   0  0  0  0  0  0  0  0  0  0  0  0
  -83.9008   31.4281    0.5630 C   0  0  0  0  0  0  0  0  0  0  0  0
  -83.2486   32.9641   -0.0058 Cl  0  0  0  0  0  0  0  0  0  0  0  0
  -85.3641   27.7251    1.9241 C   0  0  0  0  0  0  0  0  0  0  0  0
  -84.5713   26.9213    2.4484 O   0  0  0  0  0  0  0  0  0  0  0  0
  -86.7287   27.4002    1.7607 N   0  0  0  0  0  0  0  0  0  0  0  0
  -87.3367   28.1602    1.2965 H   0  0  0  0  0  0  0  0  0  0  0  0
  -87.3865   26.2021    2.1406 C   0  0  0  0  0  0  0  0  0  0  0  0
  -88.5833   26.3636    2.9867 C   0  0  0  0  0  0  0  0  0  0  0  0
  -89.1387   27.6567    2.9828 C   0  0  0  0  0  0  0  0  0  0  0  0
  -90.2651   27.8786    3.7425 C   0  0  0  0  0  0  0  0  0  0  0  0
  -90.8335   26.8782    4.4843 C   0  0  0  0  0  0  0  0  0  0  0  0
  -90.2768   25.6084    4.4823 C   0  0  0  0  0  0  0  0  0  0  0  0
  -89.1487   25.3595    3.7281 C   0  0  0  0  0  0  0  0  0  0  0  0
 17 18  1  0  0  0
 18  5  1  0  0  0
  5  6  2  0  0  0
  6  7  1  0  0  0
  7  8  2  0  0  0
  8  9  1  0  0  0
  9 10  2  0  0  0
 10  1  1  0  0  0
  1  2  2  0  0  0
  1  3  1  0  0  0
  3 19  1  0  0  0
 19 20  2  0  0  0
 20 21  1  0  0  0
 21 22  2  0  0  0
 22 23  1  0  0  0
 23 24  2  0  0  0
 24 25  1  0  0  0
 21 26  1  0  0  0
 26 27  2  0  0  0
 26 28  1  0  0  0
 28 30  1  0  0  0
 30 31  1  0  0  0
 31 32  2  0  0  0
 32 33  1  0  0  0
 33 34  2  0  0  0
 34 35  1  0  0  0
 35 36  2  0  0  0
 10 11  1  0  0  0
 11 12  2  0  0  0
 11 13  1  0  0  0
 13 14  1  0  0  0
 14 15  2  0  0  0
 15  5  1  0  0  0
 14  8  1  0  0  0
 24 19  1  0  0  0
 36 31  1  0  0  0
  3  4  1  0  0  0
 28 29  1  0  0  0
 13 16  1  0  0  0
M  END
> <minimizedAffinity>
-10.01902

> <CNNscore>
0.6530883908

> <CNNaffinity>
7.1446633339

> <CNN_VS>
4.6660966873

> <CNNaffinity_variance>
0.0884139910

$$$$
[H]c1c([H])c([H])c(C([H])([H])N([H])C(=O)c2c([H])c([H])c(Cl)c(N([H])C(=O)c3c([H])c4c([H])nc(OC([H])([H])[H])nc4n([H])c3=O)c2[H])c([H])c1[H]


 36 39  0  0  0  0  0  0  0  0999 V2000
  -87.0078   32.1478   -1.2217 C   0  0  0  0  0  0  0  0  0  0  0  0
  -87.9265   31.8762   -0.4099 O   0  0  0  0  0  0  0  0  0  0  0  0
  -85.6963   31.7280   -1.0581 N   0  0  0  0  0  0  0  0  0  0  0  0
  -85.0132   32.0516   -1.8361 H   0  0  0  0  0  0  0  0  0  0  0  0
  -88.1533   36.5851   -5.6556 C   0  0  0  0  0  0  0  0  0  0  0  0
  -87.9605   37.1397   -4.4525 N   0  0  0  0  0  0  0  0  0  0  0  0
  -87.7373   36.4807   -3.3186 C   0  0  0  0  0  0  0  0  0  0  0  0
  -87.7017   35.1042   -3.4000 C   0  0  0  0  0  0  0  0  0  0  0  0
  -87.4444   34.3320   -2.2778 C   0  0  0  0  0  0  0  0  0  0  0  0
  -87.3844   32.9635   -2.3865 C   0  0  0  0  0  0  0  0  0  0  0  0
  -87.5852   32.3964   -3.6153 C   0  0  0  0  0  0  0  0  0  0  0  0
  -87.5257   31.1189   -3.7032 O   0  0  0  0  0  0  0  0  0  0  0  0
  -87.8320   33.1535   -4.6874 N   0  0  0  0  0  0  0  0  0  0  0  0
  -87.8957   34.5094   -4.6148 C   0  0  0  0  0  0  0  0  0  0  0  0
  -88.1180   35.2429   -5.7255 N   0  0  0  0  0  0  0  0  0  0  0  0
  -87.9791   32.7097   -5.6096 H   0  0  0  0  0  0  0  0  0  0  0  0
  -87.4650   38.3796   -7.1414 C   0  0  0  0  0  0  0  0  0  0  0  0
  -88.3802   37.3805   -6.7814 O   0  0  0  0  0  0  0  0  0  0  0  0
  -85.1018   30.9466   -0.0566 C   0  0  0  0  0  0  0  0  0  0  0  0
  -85.5879   29.7500    0.4335 C   0  0  0  0  0  0  0  0  0  0  0  0
  -84.9533   28.9957    1.4082 C   0  0  0  0  0  0  0  0  0  0  0  0
  -83.7722   29.4400    1.9362 C   0  0  0  0  0  0  0  0  0  0  0  0
  -83.2488   30.6246    1.4791 C   0  0  0  0  0  0  0  0  0  0  0  0
  -83.8951   31.3594    0.5084 C   0  0  0  0  0  0  0  0  0  0  0  0
  -83.1700   32.8721   -0.0341 Cl  0  0  0  0  0  0  0  0  0  0  0  0
  -85.5356   27.7190    1.8355 C   0  0  0  0  0  0  0  0  0  0  0  0
  -84.7801   26.8851    2.3679 O   0  0  0  0  0  0  0  0  0  0  0  0
  -86.9081   27.4432    1.6490 N   0  0  0  0  0  0  0  0  0  0  0  0
  -87.4814   28.2265    1.1794 H   0  0  0  0  0  0  0  0  0  0  0  0
  -87.6136   26.2673    2.0120 C   0  0  0  0  0  0  0  0  0  0  0  0
  -88.7513   26.4554    2.9311 C   0  0  0  0  0  0  0  0  0  0  0  0
  -89.4143   25.2702    3.3000 C   0  0  0  0  0  0  0  0  0  0  0  0
  -90.4806   25.3685    4.1651 C   0  0  0  0  0  0  0  0  0  0  0  0
  -90.8922   26.5787    4.6551 C   0  0  0  0  0  0  0  0  0  0  0  0
  -90.2329   27.7403    4.2835 C   0  0  0  0  0  0  0  0  0  0  0  0
  -89.1602   27.6689    3.4188 C   0  0  0  0  0  0  0  0  0  0  0  0
 17 18  1  0  0  0
 18  5  1  0  0  0
  5  6  2  0  0  0
  6  7  1  0  0  0
  7  8  2  0  0  0
  8  9  1  0  0  0
  9 10  2  0  0  0
 10  1  1  0  0  0
  1  2  2  0  0  0
  1  3  1  0  0  0
  3 19  1  0  0  0
 19 20  2  0  0  0
 20 21  1  0  0  0
 21 22  2  0  0  0
 22 23  1  0  0  0
 23 24  2  0  0  0
 24 25  1  0  0  0
 21 26  1  0  0  0
 26 27  2  0  0  0
 26 28  1  0  0  0
 28 30  1  0  0  0
 30 31  1  0  0  0
 31 32  2  0  0  0
 32 33  1  0  0  0
 33 34  2  0  0  0
 34 35  1  0  0  0
 35 36  2  0  0  0
 10 11  1  0  0  0
 11 12  2  0  0  0
 11 13  1  0  0  0
 13 14  1  0  0  0
 14 15  2  0  0  0
 15  5  1  0  0  0
 14  8  1  0  0  0
 24 19  1  0  0  0
 36 31  1  0  0  0
  3  4  1  0  0  0
 28 29  1  0  0  0
 13 16  1  0  0  0
M  END
> <minimizedAffinity>
-9.69656

> <CNNscore>
0.5777074695

> <CNNaffinity>
6.9922156334

> <CNN_VS>
4.0394554138

> <CNNaffinity_variance>
0.0705141574

$$$$
[H]c1c([H])c([H])c(C([H])([H])N([H])C(=O)c2c([H])c([H])c(Cl)c(N([H])C(=O)c3c([H])c4c([H])nc(OC([H])([H])[H])nc4n([H])c3=O)c2[H])c([H])c1[H]


 36 39  0  0  0  0  0  0  0  0999 V2000
  -86.9843   32.0406   -1.0184 C   0  0  0  0  0  0  0  0  0  0  0  0
  -87.9548   31.7058   -0.2953 O   0  0  0  0  0  0  0  0  0  0  0  0
  -85.6849   31.6087   -0.7994 N   0  0  0  0  0  0  0  0  0  0  0  0
  -84.9521   31.9927   -1.5009 H   0  0  0  0  0  0  0  0  0  0  0  0
  -89.4128   35.8981   -5.4776 C   0  0  0  0  0  0  0  0  0  0  0  0
  -90.3614   35.1230   -4.9375 N   0  0  0  0  0  0  0  0  0  0  0  0
  -90.1685   34.1896   -4.0094 C   0  0  0  0  0  0  0  0  0  0  0  0
  -88.8731   34.0129   -3.5698 C   0  0  0  0  0  0  0  0  0  0  0  0
  -88.5776   33.0859   -2.5823 C   0  0  0  0  0  0  0  0  0  0  0  0
  -87.2848   32.9463   -2.1380 C   0  0  0  0  0  0  0  0  0  0  0  0
  -86.3146   33.7356   -2.6926 C   0  0  0  0  0  0  0  0  0  0  0  0
  -85.1129   33.5960   -2.2688 O   0  0  0  0  0  0  0  0  0  0  0  0
  -86.6147   34.6244   -3.6431 N   0  0  0  0  0  0  0  0  0  0  0  0
  -87.8832   34.7891   -4.1032 C   0  0  0  0  0  0  0  0  0  0  0  0
  -88.1530   35.7183   -5.0441 N   0  0  0  0  0  0  0  0  0  0  0  0
  -85.8704   35.2152   -4.0505 H   0  0  0  0  0  0  0  0  0  0  0  0
  -89.8208   36.4830   -7.7998 C   0  0  0  0  0  0  0  0  0  0  0  0
  -89.7340   36.8489   -6.4493 O   0  0  0  0  0  0  0  0  0  0  0  0
  -85.1561   30.7502    0.1754 C   0  0  0  0  0  0  0  0  0  0  0  0
  -85.7421   29.5866    0.6349 C   0  0  0  0  0  0  0  0  0  0  0  0
  -85.1710   28.7524    1.5834 C   0  0  0  0  0  0  0  0  0  0  0  0
  -83.9535   29.0771    2.1155 C   0  0  0  0  0  0  0  0  0  0  0  0
  -83.3311   30.2245    1.6885 C   0  0  0  0  0  0  0  0  0  0  0  0
  -83.9155   31.0404    0.7434 C   0  0  0  0  0  0  0  0  0  0  0  0
  -83.0641   32.4994    0.2389 Cl  0  0  0  0  0  0  0  0  0  0  0  0
  -85.8602   27.5192    1.9785 C   0  0  0  0  0  0  0  0  0  0  0  0
  -85.1613   26.5416    2.3030 O   0  0  0  0  0  0  0  0  0  0  0  0
  -87.2703   27.4419    1.9899 N   0  0  0  0  0  0  0  0  0  0  0  0
  -87.7889   28.3396    1.6932 H   0  0  0  0  0  0  0  0  0  0  0  0
  -88.0752   26.3310    2.3510 C   0  0  0  0  0  0  0  0  0  0  0  0
  -88.9657   25.8101    1.2974 C   0  0  0  0  0  0  0  0  0  0  0  0
  -88.4688   25.9398   -0.0128 C   0  0  0  0  0  0  0  0  0  0  0  0
  -89.2429   25.4651   -1.0475 C   0  0  0  0  0  0  0  0  0  0  0  0
  -90.4614   24.8847   -0.8186 C   0  0  0  0  0  0  0  0  0  0  0  0
  -90.9421   24.7638    0.4762 C   0  0  0  0  0  0  0  0  0  0  0  0
  -90.1851   25.2303    1.5311 C   0  0  0  0  0  0  0  0  0  0  0  0
 17 18  1  0  0  0
 18  5  1  0  0  0
  5  6  2  0  0  0
  6  7  1  0  0  0
  7  8  2  0  0  0
  8  9  1  0  0  0
  9 10  2  0  0  0
 10  1  1  0  0  0
  1  2  2  0  0  0
  1  3  1  0  0  0
  3 19  1  0  0  0
 19 20  2  0  0  0
 20 21  1  0  0  0
 21 22  2  0  0  0
 22 23  1  0  0  0
 23 24  2  0  0  0
 24 25  1  0  0  0
 21 26  1  0  0  0
 26 27  2  0  0  0
 26 28  1  0  0  0
 28 30  1  0  0  0
 30 31  1  0  0  0
 31 32  2  0  0  0
 32 33  1  0  0  0
 33 34  2  0  0  0
 34 35  1  0  0  0
 35 36  2  0  0  0
 10 11  1  0  0  0
 11 12  2  0  0  0
 11 13  1  0  0  0
 13 14  1  0  0  0
 14 15  2  0  0  0
 15  5  1  0  0  0
 14  8  1  0  0  0
 24 19  1  0  0  0
 36 31  1  0  0  0
  3  4  1  0  0  0
 28 29  1  0  0  0
 13 16  1  0  0  0
M  END
> <minimizedAffinity>
-8.91768

> <CNNscore>
0.2542163432

> <CNNaffinity>
6.6907835007

> <CNN_VS>
1.7009065151

> <CNNaffinity_variance>
0.1432781070

$$$$
[H]c1c([H])c([H])c(C([H])([H])N([H])C(=O)c2c([H])c([H])c(Cl)c(N([H])C(=O)c3c([H])c4c([H])nc(OC([H])([H])[H])nc4n([H])c3=O)c2[H])c([H])c1[H]


 36 39  0  0  0  0  0  0  0  0999 V2000
  -87.6466   31.1368   -0.9300 C   0  0  0  0  0  0  0  0  0  0  0  0
  -88.6894   31.1765   -0.2317 O   0  0  0  0  0  0  0  0  0  0  0  0
  -86.6587   30.1766   -0.7720 N   0  0  0  0  0  0  0  0  0  0  0  0
  -85.8110   30.2798   -1.4409 H   0  0  0  0  0  0  0  0  0  0  0  0
  -88.1765   35.4882   -5.5610 C   0  0  0  0  0  0  0  0  0  0  0  0
  -89.1542   34.5769   -5.6372 N   0  0  0  0  0  0  0  0  0  0  0  0
  -89.2989   33.5222   -4.8393 C   0  0  0  0  0  0  0  0  0  0  0  0
  -88.3535   33.3626   -3.8477 C   0  0  0  0  0  0  0  0  0  0  0  0
  -88.4376   32.3116   -2.9477 C   0  0  0  0  0  0  0  0  0  0  0  0
  -87.5017   32.1876   -1.9493 C   0  0  0  0  0  0  0  0  0  0  0  0
  -86.5002   33.1167   -1.8736 C   0  0  0  0  0  0  0  0  0  0  0  0
  -85.6341   32.9901   -0.9371 O   0  0  0  0  0  0  0  0  0  0  0  0
  -86.4324   34.1239   -2.7479 N   0  0  0  0  0  0  0  0  0  0  0  0
  -87.3431   34.2767   -3.7455 C   0  0  0  0  0  0  0  0  0  0  0  0
  -87.2589   35.3242   -4.5922 N   0  0  0  0  0  0  0  0  0  0  0  0
  -85.6707   34.8193   -2.6757 H   0  0  0  0  0  0  0  0  0  0  0  0
  -86.8931   37.0310   -6.9300 C   0  0  0  0  0  0  0  0  0  0  0  0
  -88.1255   36.5586   -6.4572 O   0  0  0  0  0  0  0  0  0  0  0  0
  -86.5723   29.0856    0.1050 C   0  0  0  0  0  0  0  0  0  0  0  0
  -87.5079   28.0782    0.2402 C   0  0  0  0  0  0  0  0  0  0  0  0
  -87.3701   27.0021    1.1032 C   0  0  0  0  0  0  0  0  0  0  0  0
  -86.2497   26.9067    1.8820 C   0  0  0  0  0  0  0  0  0  0  0  0
  -85.2905   27.8845    1.7814 C   0  0  0  0  0  0  0  0  0  0  0  0
  -85.4461   28.9462    0.9161 C   0  0  0  0  0  0  0  0  0  0  0  0
  -84.1776   30.1679    0.8355 Cl  0  0  0  0  0  0  0  0  0  0  0  0
  -88.4069   25.9652    1.1462 C   0  0  0  0  0  0  0  0  0  0  0  0
  -89.1596   25.9370    2.1372 O   0  0  0  0  0  0  0  0  0  0  0  0
  -88.5471   25.0285    0.0986 N   0  0  0  0  0  0  0  0  0  0  0  0
  -87.8492   25.1329   -0.7167 H   0  0  0  0  0  0  0  0  0  0  0  0
  -89.4970   23.9802   -0.0061 C   0  0  0  0  0  0  0  0  0  0  0  0
  -90.4834   24.1098   -1.0945 C   0  0  0  0  0  0  0  0  0  0  0  0
  -90.7135   25.4285   -1.5286 C   0  0  0  0  0  0  0  0  0  0  0  0
  -91.6152   25.6246   -2.5502 C   0  0  0  0  0  0  0  0  0  0  0  0
  -92.2745   24.5748   -3.1308 C   0  0  0  0  0  0  0  0  0  0  0  0
  -92.0416   23.2798   -2.6940 C   0  0  0  0  0  0  0  0  0  0  0  0
  -91.1415   23.0561   -1.6726 C   0  0  0  0  0  0  0  0  0  0  0  0
 17 18  1  0  0  0
 18  5  1  0  0  0
  5  6  2  0  0  0
  6  7  1  0  0  0
  7  8  2  0  0  0
  8  9  1  0  0  0
  9 10  2  0  0  0
 10  1  1  0  0  0
  1  2  2  0  0  0
  1  3  1  0  0  0
  3 19  1  0  0  0
 19 20  2  0  0  0
 20 21  1  0  0  0
 21 22  2  0  0  0
 22 23  1  0  0  0
 23 24  2  0  0  0
 24 25  1  0  0  0
 21 26  1  0  0  0
 26 27  2  0  0  0
 26 28  1  0  0  0
 28 30  1  0  0  0
 30 31  1  0  0  0
 31 32  2  0  0  0
 32 33  1  0  0  0
 33 34  2  0  0  0
 34 35  1  0  0  0
 35 36  2  0  0  0
 10 11  1  0  0  0
 11 12  2  0  0  0
 11 13  1  0  0  0
 13 14  1  0  0  0
 14 15  2  0  0  0
 15  5  1  0  0  0
 14  8  1  0  0  0
 24 19  1  0  0  0
 36 31  1  0  0  0
  3  4  1  0  0  0
 28 29  1  0  0  0
 13 16  1  0  0  0
M  END
> <minimizedAffinity>
-8.59149

> <CNNscore>
0.1440541595

> <CNNaffinity>
6.2489938736

> <CNN_VS>
0.9001935720

> <CNNaffinity_variance>
0.1314315945

$$$$
[H]c1c([H])c([H])c(C([H])([H])N([H])C(=O)c2c([H])c([H])c(Cl)c(N([H])C(=O)c3c([H])c4c([H])nc(OC([H])([H])[H])nc4n([H])c3=O)c2[H])c([H])c1[H]


 36 39  0  0  0  0  0  0  0  0999 V2000
  -88.8847   32.3946   -2.0949 C   0  0  0  0  0  0  0  0  0  0  0  0
  -89.7411   32.2948   -1.1820 O   0  0  0  0  0  0  0  0  0  0  0  0
  -87.5795   31.9436   -1.9692 N   0  0  0  0  0  0  0  0  0  0  0  0
  -86.9531   32.1110   -2.8388 H   0  0  0  0  0  0  0  0  0  0  0  0
  -90.3529   36.1774   -7.0138 C   0  0  0  0  0  0  0  0  0  0  0  0
  -90.1573   36.8883   -5.8964 N   0  0  0  0  0  0  0  0  0  0  0  0
  -89.8744   36.3892   -4.6961 C   0  0  0  0  0  0  0  0  0  0  0  0
  -89.7744   35.0166   -4.6050 C   0  0  0  0  0  0  0  0  0  0  0  0
  -89.4523   34.4054   -3.4031 C   0  0  0  0  0  0  0  0  0  0  0  0
  -89.3291   33.0382   -3.3408 C   0  0  0  0  0  0  0  0  0  0  0  0
  -89.5327   32.3112   -4.4818 C   0  0  0  0  0  0  0  0  0  0  0  0
  -89.4139   31.0369   -4.4104 O   0  0  0  0  0  0  0  0  0  0  0  0
  -89.8423   32.9143   -5.6325 N   0  0  0  0  0  0  0  0  0  0  0  0
  -89.9696   34.2643   -5.7288 C   0  0  0  0  0  0  0  0  0  0  0  0
  -90.2546   34.8402   -6.9156 N   0  0  0  0  0  0  0  0  0  0  0  0
  -89.9907   32.3509   -6.4866 H   0  0  0  0  0  0  0  0  0  0  0  0
  -91.7352   37.6896   -8.3192 C   0  0  0  0  0  0  0  0  0  0  0  0
  -90.6458   36.8125   -8.2231 O   0  0  0  0  0  0  0  0  0  0  0  0
  -86.9306   31.2985   -0.9063 C   0  0  0  0  0  0  0  0  0  0  0  0
  -87.2041   30.0265   -0.4417 C   0  0  0  0  0  0  0  0  0  0  0  0
  -86.5192   29.4162    0.5977 C   0  0  0  0  0  0  0  0  0  0  0  0
  -85.5063   30.0919    1.2210 C   0  0  0  0  0  0  0  0  0  0  0  0
  -85.1969   31.3596    0.7928 C   0  0  0  0  0  0  0  0  0  0  0  0
  -85.8896   31.9486   -0.2434 C   0  0  0  0  0  0  0  0  0  0  0  0
  -85.4429   33.5789   -0.7441 Cl  0  0  0  0  0  0  0  0  0  0  0  0
  -86.8646   28.0463    0.9926 C   0  0  0  0  0  0  0  0  0  0  0  0
  -86.5400   27.6716    2.1344 O   0  0  0  0  0  0  0  0  0  0  0  0
  -87.5423   27.1797    0.1071 N   0  0  0  0  0  0  0  0  0  0  0  0
  -87.7813   27.5941   -0.8593 H   0  0  0  0  0  0  0  0  0  0  0  0
  -87.9475   25.8410    0.3441 C   0  0  0  0  0  0  0  0  0  0  0  0
  -89.0475   25.3407   -0.5009 C   0  0  0  0  0  0  0  0  0  0  0  0
  -89.4879   26.2399   -1.4899 C   0  0  0  0  0  0  0  0  0  0  0  0
  -90.5062   25.8357   -2.3236 C   0  0  0  0  0  0  0  0  0  0  0  0
  -91.0806   24.5992   -2.2003 C   0  0  0  0  0  0  0  0  0  0  0  0
  -90.6401   23.7221   -1.2211 C   0  0  0  0  0  0  0  0  0  0  0  0
  -89.6200   24.1023   -0.3737 C   0  0  0  0  0  0  0  0  0  0  0  0
 17 18  1  0  0  0
 18  5  1  0  0  0
  5  6  2  0  0  0
  6  7  1  0  0  0
  7  8  2  0  0  0
  8  9  1  0  0  0
  9 10  2  0  0  0
 10  1  1  0  0  0
  1  2  2  0  0  0
  1  3  1  0  0  0
  3 19  1  0  0  0
 19 20  2  0  0  0
 20 21  1  0  0  0
 21 22  2  0  0  0
 22 23  1  0  0  0
 23 24  2  0  0  0
 24 25  1  0  0  0
 21 26  1  0  0  0
 26 27  2  0  0  0
 26 28  1  0  0  0
 28 30  1  0  0  0
 30 31  1  0  0  0
 31 32  2  0  0  0
 32 33  1  0  0  0
 33 34  2  0  0  0
 34 35  1  0  0  0
 35 36  2  0  0  0
 10 11  1  0  0  0
 11 12  2  0  0  0
 11 13  1  0  0  0
 13 14  1  0  0  0
 14 15  2  0  0  0
 15  5  1  0  0  0
 14  8  1  0  0  0
 24 19  1  0  0  0
 36 31  1  0  0  0
  3  4  1  0  0  0
 28 29  1  0  0  0
 13 16  1  0  0  0
M  END
> <minimizedAffinity>
-7.83309

> <CNNscore>
0.0876019225

> <CNNaffinity>
6.0272164345

> <CNN_VS>
0.5279957652

> <CNNaffinity_variance>
0.1332019120

$$$$
[H]c1c([H])c([H])c(C([H])([H])N([H])C(=O)c2c([H])c([H])c(Cl)c(N([H])C(=O)c3c([H])c4c([H])nc(OC([H])([H])[H])nc4n([H])c3=O)c2[H])c([H])c1[H]


 36 39  0  0  0  0  0  0  0  0999 V2000
  -89.8870   27.1623   -1.0336 C   0  0  0  0  0  0  0  0  0  0  0  0
  -90.9074   27.5311   -0.4016 O   0  0  0  0  0  0  0  0  0  0  0  0
  -89.9025   26.1554   -1.9869 N   0  0  0  0  0  0  0  0  0  0  0  0
  -88.9403   25.9402   -2.4390 H   0  0  0  0  0  0  0  0  0  0  0  0
  -84.4406   29.4653    1.3527 C   0  0  0  0  0  0  0  0  0  0  0  0
  -85.1769   28.8774    2.3037 N   0  0  0  0  0  0  0  0  0  0  0  0
  -86.3792   28.3342    2.1326 C   0  0  0  0  0  0  0  0  0  0  0  0
  -86.9050   28.3849    0.8585 C   0  0  0  0  0  0  0  0  0  0  0  0
  -88.1379   27.8180    0.5750 C   0  0  0  0  0  0  0  0  0  0  0  0
  -88.6303   27.8538   -0.7074 C   0  0  0  0  0  0  0  0  0  0  0  0
  -87.8797   28.4580   -1.6787 C   0  0  0  0  0  0  0  0  0  0  0  0
  -88.3500   28.4839   -2.8709 O   0  0  0  0  0  0  0  0  0  0  0  0
  -86.6935   28.9997   -1.3904 N   0  0  0  0  0  0  0  0  0  0  0  0
  -86.1767   28.9793   -0.1332 C   0  0  0  0  0  0  0  0  0  0  0  0
  -84.9613   29.5111    0.1141 N   0  0  0  0  0  0  0  0  0  0  0  0
  -86.1372   29.4505   -2.1362 H   0  0  0  0  0  0  0  0  0  0  0  0
  -82.7238   31.1422    0.9756 C   0  0  0  0  0  0  0  0  0  0  0  0
  -83.1862   30.0035    1.6501 O   0  0  0  0  0  0  0  0  0  0  0  0
  -90.9573   25.3692   -2.4732 C   0  0  0  0  0  0  0  0  0  0  0  0
  -91.9427   25.7857   -3.3472 C   0  0  0  0  0  0  0  0  0  0  0  0
  -92.9544   24.9662   -3.8234 C   0  0  0  0  0  0  0  0  0  0  0  0
  -93.0056   23.6606   -3.4188 C   0  0  0  0  0  0  0  0  0  0  0  0
  -92.0461   23.2002   -2.5508 C   0  0  0  0  0  0  0  0  0  0  0  0
  -91.0476   24.0311   -2.0895 C   0  0  0  0  0  0  0  0  0  0  0  0
  -89.8467   23.3777   -0.9763 Cl  0  0  0  0  0  0  0  0  0  0  0  0
  -93.9336   25.4973   -4.7778 C   0  0  0  0  0  0  0  0  0  0  0  0
  -95.1223   25.1534   -4.6424 O   0  0  0  0  0  0  0  0  0  0  0  0
  -93.5419   26.3696   -5.8171 N   0  0  0  0  0  0  0  0  0  0  0  0
  -92.4913   26.6098   -5.8532 H   0  0  0  0  0  0  0  0  0  0  0  0
  -94.3662   26.9663   -6.8056 C   0  0  0  0  0  0  0  0  0  0  0  0
  -94.4156   28.4400   -6.8006 C   0  0  0  0  0  0  0  0  0  0  0  0
  -95.2921   29.0043   -7.7460 C   0  0  0  0  0  0  0  0  0  0  0  0
  -95.3977   30.3762   -7.7912 C   0  0  0  0  0  0  0  0  0  0  0  0
  -94.6742   31.1754   -6.9475 C   0  0  0  0  0  0  0  0  0  0  0  0
  -93.8122   30.6087   -6.0212 C   0  0  0  0  0  0  0  0  0  0  0  0
  -93.6892   29.2362   -5.9545 C   0  0  0  0  0  0  0  0  0  0  0  0
 17 18  1  0  0  0
 18  5  1  0  0  0
  5  6  2  0  0  0
  6  7  1  0  0  0
  7  8  2  0  0  0
  8  9  1  0  0  0
  9 10  2  0  0  0
 10  1  1  0  0  0
  1  2  2  0  0  0
  1  3  1  0  0  0
  3 19  1  0  0  0
 19 20  2  0  0  0
 20 21  1  0  0  0
 21 22  2  0  0  0
 22 23  1  0  0  0
 23 24  2  0  0  0
 24 25  1  0  0  0
 21 26  1  0  0  0
 26 27  2  0  0  0
 26 28  1  0  0  0
 28 30  1  0  0  0
 30 31  1  0  0  0
 31 32  2  0  0  0
 32 33  1  0  0  0
 33 34  2  0  0  0
 34 35  1  0  0  0
 35 36  2  0  0  0
 10 11  1  0  0  0
 11 12  2  0  0  0
 11 13  1  0  0  0
 13 14  1  0  0  0
 14 15  2  0  0  0
 15  5  1  0  0  0
 14  8  1  0  0  0
 24 19  1  0  0  0
 36 31  1  0  0  0
  3  4  1  0  0  0
 28 29  1  0  0  0
 13 16  1  0  0  0
M  END
> <minimizedAffinity>
-7.33825

> <CNNscore>
0.0788747370

> <CNNaffinity>
5.3409705162

> <CNN_VS>
0.4212676585

> <CNNaffinity_variance>
0.3042596579

$$$$
[H]c1c([H])c([H])c(C([H])([H])N([H])C(=O)c2c([H])c([H])c(Cl)c(N([H])C(=O)c3c([H])c4c([H])nc(OC([H])([H])[H])nc4n([H])c3=O)c2[H])c([H])c1[H]


 36 39  0  0  0  0  0  0  0  0999 V2000
  -88.1113   31.3569   -1.1787 C   0  0  0  0  0  0  0  0  0  0  0  0
  -89.0492   31.6121   -0.3838 O   0  0  0  0  0  0  0  0  0  0  0  0
  -87.3872   30.1746   -1.1501 N   0  0  0  0  0  0  0  0  0  0  0  0
  -86.5991   30.1041   -1.8920 H   0  0  0  0  0  0  0  0  0  0  0  0
  -87.8907   35.8221   -5.7256 C   0  0  0  0  0  0  0  0  0  0  0  0
  -88.9762   35.0497   -5.8563 N   0  0  0  0  0  0  0  0  0  0  0  0
  -89.2881   34.0093   -5.0881 C   0  0  0  0  0  0  0  0  0  0  0  0
  -88.4097   33.7084   -4.0681 C   0  0  0  0  0  0  0  0  0  0  0  0
  -88.6649   32.6618   -3.1956 C   0  0  0  0  0  0  0  0  0  0  0  0
  -87.7914   32.3973   -2.1683 C   0  0  0  0  0  0  0  0  0  0  0  0
  -86.6799   33.1842   -2.0369 C   0  0  0  0  0  0  0  0  0  0  0  0
  -85.8736   32.9275   -1.0741 O   0  0  0  0  0  0  0  0  0  0  0  0
  -86.4476   34.1891   -2.8853 N   0  0  0  0  0  0  0  0  0  0  0  0
  -87.2923   34.4789   -3.9102 C   0  0  0  0  0  0  0  0  0  0  0  0
  -87.0394   35.5209   -4.7296 N   0  0  0  0  0  0  0  0  0  0  0  0
  -85.6043   34.7763   -2.7710 H   0  0  0  0  0  0  0  0  0  0  0  0
  -88.7211   37.7340   -6.9733 C   0  0  0  0  0  0  0  0  0  0  0  0
  -87.6658   36.8922   -6.5951 O   0  0  0  0  0  0  0  0  0  0  0  0
  -87.5060   29.0464   -0.3254 C   0  0  0  0  0  0  0  0  0  0  0  0
  -88.5805   28.1790   -0.2882 C   0  0  0  0  0  0  0  0  0  0  0  0
  -88.6456   27.0588    0.5258 C   0  0  0  0  0  0  0  0  0  0  0  0
  -87.5962   26.7707    1.3546 C   0  0  0  0  0  0  0  0  0  0  0  0
  -86.5045   27.6040    1.3516 C   0  0  0  0  0  0  0  0  0  0  0  0
  -86.4589   28.7126    0.5337 C   0  0  0  0  0  0  0  0  0  0  0  0
  -85.0282   29.7419    0.5785 Cl  0  0  0  0  0  0  0  0  0  0  0  0
  -89.8190   26.1806    0.4644 C   0  0  0  0  0  0  0  0  0  0  0  0
  -90.5812   26.1599    1.4483 O   0  0  0  0  0  0  0  0  0  0  0  0
  -90.0763   25.3838   -0.6728 N   0  0  0  0  0  0  0  0  0  0  0  0
  -89.3599   25.4696   -1.4741 H   0  0  0  0  0  0  0  0  0  0  0  0
  -91.1635   24.4969   -0.8824 C   0  0  0  0  0  0  0  0  0  0  0  0
  -91.0208   23.1515   -0.2960 C   0  0  0  0  0  0  0  0  0  0  0  0
  -92.2311   22.5410    0.0821 C   0  0  0  0  0  0  0  0  0  0  0  0
  -92.1752   21.2783    0.6276 C   0  0  0  0  0  0  0  0  0  0  0  0
  -90.9828   20.6292    0.8028 C   0  0  0  0  0  0  0  0  0  0  0  0
  -89.7962   21.2408    0.4285 C   0  0  0  0  0  0  0  0  0  0  0  0
  -89.8249   22.5055   -0.1220 C   0  0  0  0  0  0  0  0  0  0  0  0
 17 18  1  0  0  0
 18  5  1  0  0  0
  5  6  2  0  0  0
  6  7  1  0  0  0
  7  8  2  0  0  0
  8  9  1  0  0  0
  9 10  2  0  0  0
 10  1  1  0  0  0
  1  2  2  0  0  0
  1  3  1  0  0  0
  3 19  1  0  0  0
 19 20  2  0  0  0
 20 21  1  0  0  0
 21 22  2  0  0  0
 22 23  1  0  0  0
 23 24  2  0  0  0
 24 25  1  0  0  0
 21 26  1  0  0  0
 26 27  2  0  0  0
 26 28  1  0  0  0
 28 30  1  0  0  0
 30 31  1  0  0  0
 31 32  2  0  0  0
 32 33  1  0  0  0
 33 34  2  0  0  0
 34 35  1  0  0  0
 35 36  2  0  0  0
 10 11  1  0  0  0
 11 12  2  0  0  0
 11 13  1  0  0  0
 13 14  1  0  0  0
 14 15  2  0  0  0
 15  5  1  0  0  0
 14  8  1  0  0  0
 24 19  1  0  0  0
 36 31  1  0  0  0
  3  4  1  0  0  0
 28 29  1  0  0  0
 13 16  1  0  0  0
M  END
> <minimizedAffinity>
-7.62062

> <CNNscore>
0.0743949562

> <CNNaffinity>
5.7670984268

> <CNN_VS>
0.4290430248

> <CNNaffinity_variance>
0.1959853619

$$$$
[H]c1c([H])c([H])c(C([H])([H])N([H])C(=O)c2c([H])c([H])c(Cl)c(N([H])C(=O)c3c([H])c4c([H])nc(OC([H])([H])[H])nc4n([H])c3=O)c2[H])c([H])c1[H]


 36 39  0  0  0  0  0  0  0  0999 V2000
  -90.4769   28.6567   -1.0540 C   0  0  0  0  0  0  0  0  0  0  0  0
  -91.5243   28.6921   -0.3623 O   0  0  0  0  0  0  0  0  0  0  0  0
  -90.4788   28.5501   -2.4366 N   0  0  0  0  0  0  0  0  0  0  0  0
  -89.4953   28.5190   -2.8932 H   0  0  0  0  0  0  0  0  0  0  0  0
  -85.0257   27.7570    2.1299 C   0  0  0  0  0  0  0  0  0  0  0  0
  -85.8176   26.6806    2.2097 N   0  0  0  0  0  0  0  0  0  0  0  0
  -87.0346   26.5691    1.6839 C   0  0  0  0  0  0  0  0  0  0  0  0
  -87.5139   27.6645    0.9963 C   0  0  0  0  0  0  0  0  0  0  0  0
  -88.7585   27.6325    0.3867 C   0  0  0  0  0  0  0  0  0  0  0  0
  -89.2048   28.7244   -0.3183 C   0  0  0  0  0  0  0  0  0  0  0  0
  -88.3972   29.8260   -0.3967 C   0  0  0  0  0  0  0  0  0  0  0  0
  -88.8249   30.8374   -1.0579 O   0  0  0  0  0  0  0  0  0  0  0  0
  -87.2004   29.8419    0.1958 N   0  0  0  0  0  0  0  0  0  0  0  0
  -86.7283   28.7782    0.8985 C   0  0  0  0  0  0  0  0  0  0  0  0
  -85.5013   28.8204    1.4587 N   0  0  0  0  0  0  0  0  0  0  0  0
  -86.6009   30.6812    0.1252 H   0  0  0  0  0  0  0  0  0  0  0  0
  -82.7605   28.6252    2.2598 C   0  0  0  0  0  0  0  0  0  0  0  0
  -83.7613   27.7600    2.7239 O   0  0  0  0  0  0  0  0  0  0  0  0
  -91.5413   28.4825   -3.3495 C   0  0  0  0  0  0  0  0  0  0  0  0
  -92.1574   29.5592   -3.9574 C   0  0  0  0  0  0  0  0  0  0  0  0
  -93.1898   29.4455   -4.8756 C   0  0  0  0  0  0  0  0  0  0  0  0
  -93.6478   28.2031   -5.2187 C   0  0  0  0  0  0  0  0  0  0  0  0
  -93.0650   27.1018   -4.6411 C   0  0  0  0  0  0  0  0  0  0  0  0
  -92.0387   27.2363   -3.7307 C   0  0  0  0  0  0  0  0  0  0  0  0
  -91.3342   25.7822   -3.0253 Cl  0  0  0  0  0  0  0  0  0  0  0  0
  -93.7534   30.6518   -5.4913 C   0  0  0  0  0  0  0  0  0  0  0  0
  -94.9210   30.9644   -5.1939 O   0  0  0  0  0  0  0  0  0  0  0  0
  -92.9976   31.4333   -6.3926 N   0  0  0  0  0  0  0  0  0  0  0  0
  -91.9967   31.0826   -6.5879 H   0  0  0  0  0  0  0  0  0  0  0  0
  -93.3982   32.6200   -7.0587 C   0  0  0  0  0  0  0  0  0  0  0  0
  -92.3266   33.5909   -7.3472 C   0  0  0  0  0  0  0  0  0  0  0  0
  -91.5430   33.9528   -6.2357 C   0  0  0  0  0  0  0  0  0  0  0  0
  -90.5161   34.8482   -6.4329 C   0  0  0  0  0  0  0  0  0  0  0  0
  -90.2589   35.3775   -7.6689 C   0  0  0  0  0  0  0  0  0  0  0  0
  -91.0385   35.0154   -8.7567 C   0  0  0  0  0  0  0  0  0  0  0  0
  -92.0730   34.1187   -8.5861 C   0  0  0  0  0  0  0  0  0  0  0  0
 17 18  1  0  0  0
 18  5  1  0  0  0
  5  6  2  0  0  0
  6  7  1  0  0  0
  7  8  2  0  0  0
  8  9  1  0  0  0
  9 10  2  0  0  0
 10  1  1  0  0  0
  1  2  2  0  0  0
  1  3  1  0  0  0
  3 19  1  0  0  0
 19 20  2  0  0  0
 20 21  1  0  0  0
 21 22  2  0  0  0
 22 23  1  0  0  0
 23 24  2  0  0  0
 24 25  1  0  0  0
 21 26  1  0  0  0
 26 27  2  0  0  0
 26 28  1  0  0  0
 28 30  1  0  0  0
 30 31  1  0  0  0
 31 32  2  0  0  0
 32 33  1  0  0  0
 33 34  2  0  0  0
 34 35  1  0  0  0
 35 36  2  0  0  0
 10 11  1  0  0  0
 11 12  2  0  0  0
 11 13  1  0  0  0
 13 14  1  0  0  0
 14 15  2  0  0  0
 15  5  1  0  0  0
 14  8  1  0  0  0
 24 19  1  0  0  0
 36 31  1  0  0  0
  3  4  1  0  0  0
 28 29  1  0  0  0
 13 16  1  0  0  0
M  END
> <minimizedAffinity>
-7.57431

> <CNNscore>
0.0584295169

> <CNNaffinity>
5.6617155075

> <CNN_VS>
0.3308112919

> <CNNaffinity_variance>
0.2277992070

$$$$
[H]c1c([H])c([H])c(C([H])([H])N([H])C(=O)c2c([H])c([H])c(Cl)c(N([H])C(=O)c3c([H])c4c([H])nc(OC([H])([H])[H])nc4n([H])c3=O)c2[H])c([H])c1[H]


 36 39  0  0  0  0  0  0  0  0999 V2000
  -88.3145   32.4008   -1.7660 C   0  0  0  0  0  0  0  0  0  0  0  0
  -89.0742   32.4794   -0.7693 O   0  0  0  0  0  0  0  0  0  0  0  0
  -87.6279   31.2470   -2.1130 N   0  0  0  0  0  0  0  0  0  0  0  0
  -87.0003   31.3368   -2.9931 H   0  0  0  0  0  0  0  0  0  0  0  0
  -88.7891   37.9293   -4.9079 C   0  0  0  0  0  0  0  0  0  0  0  0
  -89.9971   37.4321   -4.6156 N   0  0  0  0  0  0  0  0  0  0  0  0
  -90.2350   36.2773   -3.9993 C   0  0  0  0  0  0  0  0  0  0  0  0
  -89.1328   35.5341   -3.6315 C   0  0  0  0  0  0  0  0  0  0  0  0
  -89.2789   34.3320   -2.9566 C   0  0  0  0  0  0  0  0  0  0  0  0
  -88.1668   33.6215   -2.5735 C   0  0  0  0  0  0  0  0  0  0  0  0
  -86.9321   34.1277   -2.8757 C   0  0  0  0  0  0  0  0  0  0  0  0
  -85.9030   33.4556   -2.5120 O   0  0  0  0  0  0  0  0  0  0  0  0
  -86.8074   35.2873   -3.5263 N   0  0  0  0  0  0  0  0  0  0  0  0
  -87.8865   36.0157   -3.9172 C   0  0  0  0  0  0  0  0  0  0  0  0
  -87.7205   37.1978   -4.5468 N   0  0  0  0  0  0  0  0  0  0  0  0
  -85.8671   35.6576   -3.7450 H   0  0  0  0  0  0  0  0  0  0  0  0
  -87.4345   39.5372   -6.1251 C   0  0  0  0  0  0  0  0  0  0  0  0
  -88.6604   39.1577   -5.5608 O   0  0  0  0  0  0  0  0  0  0  0  0
  -87.6125   29.9760   -1.5204 C   0  0  0  0  0  0  0  0  0  0  0  0
  -88.4135   28.9073   -1.8734 C   0  0  0  0  0  0  0  0  0  0  0  0
  -88.3472   27.6576   -1.2769 C   0  0  0  0  0  0  0  0  0  0  0  0
  -87.4433   27.4411   -0.2733 C   0  0  0  0  0  0  0  0  0  0  0  0
  -86.6240   28.4739    0.1114 C   0  0  0  0  0  0  0  0  0  0  0  0
  -86.7050   29.7091   -0.4952 C   0  0  0  0  0  0  0  0  0  0  0  0
  -85.6248   30.9928    0.0463 Cl  0  0  0  0  0  0  0  0  0  0  0  0
  -89.2197   26.5773   -1.7499 C   0  0  0  0  0  0  0  0  0  0  0  0
  -90.2476   26.8932   -2.3769 O   0  0  0  0  0  0  0  0  0  0  0  0
  -88.9054   25.2230   -1.5020 N   0  0  0  0  0  0  0  0  0  0  0  0
  -87.9948   25.0489   -0.9513 H   0  0  0  0  0  0  0  0  0  0  0  0
  -89.6402   24.0757   -1.8974 C   0  0  0  0  0  0  0  0  0  0  0  0
  -90.7388   23.6725   -1.0003 C   0  0  0  0  0  0  0  0  0  0  0  0
  -91.8283   23.0549   -1.6421 C   0  0  0  0  0  0  0  0  0  0  0  0
  -92.8870   22.6421   -0.8649 C   0  0  0  0  0  0  0  0  0  0  0  0
  -92.8895   22.8246    0.4918 C   0  0  0  0  0  0  0  0  0  0  0  0
  -91.8116   23.4360    1.1135 C   0  0  0  0  0  0  0  0  0  0  0  0
  -90.7374   23.8576    0.3574 C   0  0  0  0  0  0  0  0  0  0  0  0
 17 18  1  0  0  0
 18  5  1  0  0  0
  5  6  2  0  0  0
  6  7  1  0  0  0
  7  8  2  0  0  0
  8  9  1  0  0  0
  9 10  2  0  0  0
 10  1  1  0  0  0
  1  2  2  0  0  0
  1  3  1  0  0  0
  3 19  1  0  0  0
 19 20  2  0  0  0
 20 21  1  0  0  0
 21 22  2  0  0  0
 22 23  1  0  0  0
 23 24  2  0  0  0
 24 25  1  0  0  0
 21 26  1  0  0  0
 26 27  2  0  0  0
 26 28  1  0  0  0
 28 30  1  0  0  0
 30 31  1  0  0  0
 31 32  2  0  0  0
 32 33  1  0  0  0
 33 34  2  0  0  0
 34 35  1  0  0  0
 35 36  2  0  0  0
 10 11  1  0  0  0
 11 12  2  0  0  0
 11 13  1  0  0  0
 13 14  1  0  0  0
 14 15  2  0  0  0
 15  5  1  0  0  0
 14  8  1  0  0  0
 24 19  1  0  0  0
 36 31  1  0  0  0
  3  4  1  0  0  0
 28 29  1  0  0  0
 13 16  1  0  0  0
M  END
> <minimizedAffinity>
-7.62559

> <CNNscore>
0.0570279844

> <CNNaffinity>
5.6956138611

> <CNN_VS>
0.3248093724

> <CNNaffinity_variance>
0.1873437166

$$$$
[H]c1sc(-c2c([H])c([H])c3c(c2[H])C([H])([H])C([H])([H])O3)nc1C(=O)N([H])c1nc2c([H])c(C#N)c([H])c([H])c2n1[H]


 30 34  0  0  0  0  0  0  0  0999 V2000
  -86.8234   32.3607   -3.3231 O   0  0  0  0  0  0  0  0  0  0  0  0
  -86.9727   33.5213   -2.8680 C   0  0  0  0  0  0  0  0  0  0  0  0
  -86.3272   33.8783   -1.6713 N   0  0  0  0  0  0  0  0  0  0  0  0
  -86.4641   34.8622   -1.3015 H   0  0  0  0  0  0  0  0  0  0  0  0
  -85.5090   33.0114   -0.9311 C   0  0  0  0  0  0  0  0  0  0  0  0
  -85.9804   31.8666   -0.3470 N   0  0  0  0  0  0  0  0  0  0  0  0
  -85.0068   31.2349    0.2879 C   0  0  0  0  0  0  0  0  0  0  0  0
  -85.0267   30.0548    1.0081 C   0  0  0  0  0  0  0  0  0  0  0  0
  -83.8569   29.6038    1.5817 C   0  0  0  0  0  0  0  0  0  0  0  0
  -82.7065   30.3458    1.4173 C   0  0  0  0  0  0  0  0  0  0  0  0
  -82.6881   31.5329    0.6924 C   0  0  0  0  0  0  0  0  0  0  0  0
  -83.8700   31.9568    0.1324 C   0  0  0  0  0  0  0  0  0  0  0  0
  -84.2170   33.0285   -0.6141 N   0  0  0  0  0  0  0  0  0  0  0  0
  -83.5204   33.7581   -0.8860 H   0  0  0  0  0  0  0  0  0  0  0  0
  -83.8129   28.3769    2.3469 C   0  0  0  0  0  0  0  0  0  0  0  0
  -83.7768   27.4107    2.9719 N   0  0  0  0  0  0  0  0  0  0  0  0
  -87.8204   34.5233   -3.5738 C   0  0  0  0  0  0  0  0  0  0  0  0
  -87.8518   35.8450   -3.2097 C   0  0  0  0  0  0  0  0  0  0  0  0
  -88.9629   36.4883   -4.3382 S   0  0  0  0  0  0  0  0  0  0  0  0
  -89.3118   35.0254   -5.1983 C   0  0  0  0  0  0  0  0  0  0  0  0
  -88.5676   34.1624   -4.5738 N   0  0  0  0  0  0  0  0  0  0  0  0
  -90.2264   34.8711   -6.3351 C   0  0  0  0  0  0  0  0  0  0  0  0
  -90.0454   35.5910   -7.4592 C   0  0  0  0  0  0  0  0  0  0  0  0
  -90.9111   35.4541   -8.5532 C   0  0  0  0  0  0  0  0  0  0  0  0
  -91.9629   34.5705   -8.4795 C   0  0  0  0  0  0  0  0  0  0  0  0
  -92.9404   34.2561   -9.4024 O   0  0  0  0  0  0  0  0  0  0  0  0
  -93.5799   33.0526   -9.0374 C   0  0  0  0  0  0  0  0  0  0  0  0
  -93.3533   32.9734   -7.5420 C   0  0  0  0  0  0  0  0  0  0  0  0
  -92.1568   33.8305   -7.3365 C   0  0  0  0  0  0  0  0  0  0  0  0
  -91.2756   33.9881   -6.2583 C   0  0  0  0  0  0  0  0  0  0  0  0
  1  2  2  0  0  0
  2  3  1  0  0  0
  3  5  1  0  0  0
  5  6  2  0  0  0
  6  7  1  0  0  0
  7  8  2  0  0  0
  8  9  1  0  0  0
  9 10  2  0  0  0
 10 11  1  0  0  0
 11 12  2  0  0  0
 12 13  1  0  0  0
  9 15  1  0  0  0
 15 16  3  0  0  0
  2 17  1  0  0  0
 17 18  2  0  0  0
 18 19  1  0  0  0
 19 20  1  0  0  0
 20 21  2  0  0  0
 20 22  1  0  0  0
 22 23  2  0  0  0
 23 24  1  0  0  0
 24 25  2  0  0  0
 25 26  1  0  0  0
 26 27  1  0  0  0
 27 28  1  0  0  0
 28 29  1  0  0  0
 29 30  2  0  0  0
 13  5  1  0  0  0
 21 17  1  0  0  0
 30 22  1  0  0  0
 12  7  1  0  0  0
 29 25  1  0  0  0
  3  4  1  0  0  0
 13 14  1  0  0  0
M  END
> <minimizedAffinity>
-8.84431

> <CNNscore>
0.5294383168

> <CNNaffinity>
6.4764289856

> <CNN_VS>
3.4288697243

> <CNNaffinity_variance>
0.4301720560

$$$$
[H]c1sc(-c2c([H])c([H])c3c(c2[H])C([H])([H])C([H])([H])O3)nc1C(=O)N([H])c1nc2c([H])c(C#N)c([H])c([H])c2n1[H]


 30 34  0  0  0  0  0  0  0  0999 V2000
  -85.3913   33.6624   -0.4967 O   0  0  0  0  0  0  0  0  0  0  0  0
  -85.9960   32.5998   -0.7823 C   0  0  0  0  0  0  0  0  0  0  0  0
  -86.9064   32.5940   -1.8534 N   0  0  0  0  0  0  0  0  0  0  0  0
  -87.4081   31.6883   -2.0807 H   0  0  0  0  0  0  0  0  0  0  0  0
  -87.1951   33.7159   -2.6452 C   0  0  0  0  0  0  0  0  0  0  0  0
  -88.4214   34.3244   -2.6482 N   0  0  0  0  0  0  0  0  0  0  0  0
  -88.4262   35.3543   -3.4786 C   0  0  0  0  0  0  0  0  0  0  0  0
  -89.4364   36.2437   -3.7946 C   0  0  0  0  0  0  0  0  0  0  0  0
  -89.1814   37.2460   -4.7064 C   0  0  0  0  0  0  0  0  0  0  0  0
  -87.9266   37.3269   -5.2720 C   0  0  0  0  0  0  0  0  0  0  0  0
  -86.9112   36.4312   -4.9529 C   0  0  0  0  0  0  0  0  0  0  0  0
  -87.1958   35.4428   -4.0406 C   0  0  0  0  0  0  0  0  0  0  0  0
  -86.4771   34.4297   -3.5083 N   0  0  0  0  0  0  0  0  0  0  0  0
  -85.4799   34.2647   -3.7725 H   0  0  0  0  0  0  0  0  0  0  0  0
  -90.1965   38.2072   -5.0785 C   0  0  0  0  0  0  0  0  0  0  0  0
  -90.9911   38.9820   -5.3844 N   0  0  0  0  0  0  0  0  0  0  0  0
  -85.7650   31.3485   -0.0064 C   0  0  0  0  0  0  0  0  0  0  0  0
  -84.6242   31.1382    0.7247 C   0  0  0  0  0  0  0  0  0  0  0  0
  -84.9120   29.5839    1.3752 S   0  0  0  0  0  0  0  0  0  0  0  0
  -86.4698   29.3083    0.6690 C   0  0  0  0  0  0  0  0  0  0  0  0
  -86.6580   30.4045   -0.0030 N   0  0  0  0  0  0  0  0  0  0  0  0
  -87.3095   28.1161    0.8304 C   0  0  0  0  0  0  0  0  0  0  0  0
  -87.6196   27.6612    2.0599 C   0  0  0  0  0  0  0  0  0  0  0  0
  -88.4208   26.5236    2.2295 C   0  0  0  0  0  0  0  0  0  0  0  0
  -88.8992   25.8598    1.1237 C   0  0  0  0  0  0  0  0  0  0  0  0
  -89.6938   24.7352    1.0230 O   0  0  0  0  0  0  0  0  0  0  0  0
  -90.2230   24.6330   -0.2809 C   0  0  0  0  0  0  0  0  0  0  0  0
  -89.2349   25.4124   -1.1236 C   0  0  0  0  0  0  0  0  0  0  0  0
  -88.5887   26.3158   -0.1363 C   0  0  0  0  0  0  0  0  0  0  0  0
  -87.7855   27.4556   -0.2758 C   0  0  0  0  0  0  0  0  0  0  0  0
  1  2  2  0  0  0
  2  3  1  0  0  0
  3  5  1  0  0  0
  5  6  2  0  0  0
  6  7  1  0  0  0
  7  8  2  0  0  0
  8  9  1  0  0  0
  9 10  2  0  0  0
 10 11  1  0  0  0
 11 12  2  0  0  0
 12 13  1  0  0  0
  9 15  1  0  0  0
 15 16  3  0  0  0
  2 17  1  0  0  0
 17 18  2  0  0  0
 18 19  1  0  0  0
 19 20  1  0  0  0
 20 21  2  0  0  0
 20 22  1  0  0  0
 22 23  2  0  0  0
 23 24  1  0  0  0
 24 25  2  0  0  0
 25 26  1  0  0  0
 26 27  1  0  0  0
 27 28  1  0  0  0
 28 29  1  0  0  0
 29 30  2  0  0  0
 13  5  1  0  0  0
 21 17  1  0  0  0
 30 22  1  0  0  0
 12  7  1  0  0  0
 29 25  1  0  0  0
  3  4  1  0  0  0
 13 14  1  0  0  0
M  END
> <minimizedAffinity>
-7.83193

> <CNNscore>
0.2401693910

> <CNNaffinity>
6.2527327538

> <CNN_VS>
1.5017150640

> <CNNaffinity_variance>
0.1908907294

$$$$
[H]c1sc(-c2c([H])c([H])c3c(c2[H])C([H])([H])C([H])([H])O3)nc1C(=O)N([H])c1nc2c([H])c(C#N)c([H])c([H])c2n1[H]


 30 34  0  0  0  0  0  0  0  0999 V2000
  -85.5018   33.5168   -0.4055 O   0  0  0  0  0  0  0  0  0  0  0  0
  -86.0507   32.4392   -0.7431 C   0  0  0  0  0  0  0  0  0  0  0  0
  -86.9204   32.4277   -1.8474 N   0  0  0  0  0  0  0  0  0  0  0  0
  -87.3752   31.5094   -2.1185 H   0  0  0  0  0  0  0  0  0  0  0  0
  -87.2269   33.5597   -2.6179 C   0  0  0  0  0  0  0  0  0  0  0  0
  -88.4499   34.1735   -2.5783 N   0  0  0  0  0  0  0  0  0  0  0  0
  -88.4741   35.2127   -3.3967 C   0  0  0  0  0  0  0  0  0  0  0  0
  -89.4889   36.1100   -3.6733 C   0  0  0  0  0  0  0  0  0  0  0  0
  -89.2559   37.1213   -4.5809 C   0  0  0  0  0  0  0  0  0  0  0  0
  -88.0178   37.2031   -5.1820 C   0  0  0  0  0  0  0  0  0  0  0  0
  -86.9977   36.2995   -4.9027 C   0  0  0  0  0  0  0  0  0  0  0  0
  -87.2602   35.3021   -3.9935 C   0  0  0  0  0  0  0  0  0  0  0  0
  -86.5310   34.2800   -3.4937 N   0  0  0  0  0  0  0  0  0  0  0  0
  -85.5427   34.1136   -3.7887 H   0  0  0  0  0  0  0  0  0  0  0  0
  -90.2769   38.0910   -4.9125 C   0  0  0  0  0  0  0  0  0  0  0  0
  -91.1025   38.8516   -5.1683 N   0  0  0  0  0  0  0  0  0  0  0  0
  -85.7959   31.1761    0.0058 C   0  0  0  0  0  0  0  0  0  0  0  0
  -84.5941   30.9111    0.6106 C   0  0  0  0  0  0  0  0  0  0  0  0
  -84.8820   29.3697    1.2910 S   0  0  0  0  0  0  0  0  0  0  0  0
  -86.5177   29.1685    0.7566 C   0  0  0  0  0  0  0  0  0  0  0  0
  -86.7260   30.2744    0.1068 N   0  0  0  0  0  0  0  0  0  0  0  0
  -87.3895   28.0159    1.0095 C   0  0  0  0  0  0  0  0  0  0  0  0
  -87.6379   27.1211    0.0336 C   0  0  0  0  0  0  0  0  0  0  0  0
  -88.4686   26.0152    0.2606 C   0  0  0  0  0  0  0  0  0  0  0  0
  -89.0404   25.8390    1.4993 C   0  0  0  0  0  0  0  0  0  0  0  0
  -89.8810   24.8502    1.9701 O   0  0  0  0  0  0  0  0  0  0  0  0
  -89.9179   24.8788    3.3802 C   0  0  0  0  0  0  0  0  0  0  0  0
  -89.5341   26.3056    3.7133 C   0  0  0  0  0  0  0  0  0  0  0  0
  -88.7934   26.7467    2.5028 C   0  0  0  0  0  0  0  0  0  0  0  0
  -87.9588   27.8431    2.2474 C   0  0  0  0  0  0  0  0  0  0  0  0
  1  2  2  0  0  0
  2  3  1  0  0  0
  3  5  1  0  0  0
  5  6  2  0  0  0
  6  7  1  0  0  0
  7  8  2  0  0  0
  8  9  1  0  0  0
  9 10  2  0  0  0
 10 11  1  0  0  0
 11 12  2  0  0  0
 12 13  1  0  0  0
  9 15  1  0  0  0
 15 16  3  0  0  0
  2 17  1  0  0  0
 17 18  2  0  0  0
 18 19  1  0  0  0
 19 20  1  0  0  0
 20 21  2  0  0  0
 20 22  1  0  0  0
 22 23  2  0  0  0
 23 24  1  0  0  0
 24 25  2  0  0  0
 25 26  1  0  0  0
 26 27  1  0  0  0
 27 28  1  0  0  0
 28 29  1  0  0  0
 29 30  2  0  0  0
 13  5  1  0  0  0
 21 17  1  0  0  0
 30 22  1  0  0  0
 12  7  1  0  0  0
 29 25  1  0  0  0
  3  4  1  0  0  0
 13 14  1  0  0  0
M  END
> <minimizedAffinity>
-7.86409

> <CNNscore>
0.1970687211

> <CNNaffinity>
6.2008457184

> <CNN_VS>
1.2219927311

> <CNNaffinity_variance>
0.2497678250

$$$$
[H]c1sc(-c2c([H])c([H])c3c(c2[H])C([H])([H])C([H])([H])O3)nc1C(=O)N([H])c1nc2c([H])c(C#N)c([H])c([H])c2n1[H]


 30 34  0  0  0  0  0  0  0  0999 V2000
  -86.2339   33.7585   -3.1065 O   0  0  0  0  0  0  0  0  0  0  0  0
  -87.3934   33.6576   -2.6357 C   0  0  0  0  0  0  0  0  0  0  0  0
  -87.5910   32.9380   -1.4443 N   0  0  0  0  0  0  0  0  0  0  0  0
  -88.5764   32.8630   -1.0609 H   0  0  0  0  0  0  0  0  0  0  0  0
  -86.5622   32.3095   -0.7263 C   0  0  0  0  0  0  0  0  0  0  0  0
  -86.6976   31.0634   -0.1758 N   0  0  0  0  0  0  0  0  0  0  0  0
  -85.5846   30.7067    0.4439 C   0  0  0  0  0  0  0  0  0  0  0  0
  -85.2755   29.5472    1.1307 C   0  0  0  0  0  0  0  0  0  0  0  0
  -84.0240   29.4197    1.6948 C   0  0  0  0  0  0  0  0  0  0  0  0
  -83.1229   30.4538    1.5546 C   0  0  0  0  0  0  0  0  0  0  0  0
  -83.4354   31.6198    0.8633 C   0  0  0  0  0  0  0  0  0  0  0  0
  -84.6911   31.7175    0.3119 C   0  0  0  0  0  0  0  0  0  0  0  0
  -85.3232   32.6727   -0.4053 N   0  0  0  0  0  0  0  0  0  0  0  0
  -84.8556   33.5730   -0.6546 H   0  0  0  0  0  0  0  0  0  0  0  0
  -83.6403   28.2315    2.4255 C   0  0  0  0  0  0  0  0  0  0  0  0
  -83.3201   27.2837    2.9951 N   0  0  0  0  0  0  0  0  0  0  0  0
  -88.5601   34.2865   -3.3173 C   0  0  0  0  0  0  0  0  0  0  0  0
  -88.7946   35.6368   -3.2749 C   0  0  0  0  0  0  0  0  0  0  0  0
  -90.2237   35.7688   -4.2035 S   0  0  0  0  0  0  0  0  0  0  0  0
  -90.4244   34.0903   -4.5826 C   0  0  0  0  0  0  0  0  0  0  0  0
  -89.4029   33.5554   -3.9834 N   0  0  0  0  0  0  0  0  0  0  0  0
  -91.4989   33.4924   -5.3829 C   0  0  0  0  0  0  0  0  0  0  0  0
  -91.8015   33.9885   -6.5982 C   0  0  0  0  0  0  0  0  0  0  0  0
  -92.8253   33.4275   -7.3741 C   0  0  0  0  0  0  0  0  0  0  0  0
  -93.5335   32.3529   -6.8883 C   0  0  0  0  0  0  0  0  0  0  0  0
  -94.5703   31.6319   -7.4462 O   0  0  0  0  0  0  0  0  0  0  0  0
  -94.7355   30.4118   -6.7574 C   0  0  0  0  0  0  0  0  0  0  0  0
  -94.1489   30.6973   -5.3905 C   0  0  0  0  0  0  0  0  0  0  0  0
  -93.2327   31.8386   -5.6486 C   0  0  0  0  0  0  0  0  0  0  0  0
  -92.2041   32.4196   -4.8949 C   0  0  0  0  0  0  0  0  0  0  0  0
  1  2  2  0  0  0
  2  3  1  0  0  0
  3  5  1  0  0  0
  5  6  2  0  0  0
  6  7  1  0  0  0
  7  8  2  0  0  0
  8  9  1  0  0  0
  9 10  2  0  0  0
 10 11  1  0  0  0
 11 12  2  0  0  0
 12 13  1  0  0  0
  9 15  1  0  0  0
 15 16  3  0  0  0
  2 17  1  0  0  0
 17 18  2  0  0  0
 18 19  1  0  0  0
 19 20  1  0  0  0
 20 21  2  0  0  0
 20 22  1  0  0  0
 22 23  2  0  0  0
 23 24  1  0  0  0
 24 25  2  0  0  0
 25 26  1  0  0  0
 26 27  1  0  0  0
 27 28  1  0  0  0
 28 29  1  0  0  0
 29 30  2  0  0  0
 13  5  1  0  0  0
 21 17  1  0  0  0
 30 22  1  0  0  0
 12  7  1  0  0  0
 29 25  1  0  0  0
  3  4  1  0  0  0
 13 14  1  0  0  0
M  END
> <minimizedAffinity>
-8.41335

> <CNNscore>
0.1760188639

> <CNNaffinity>
6.0640287399

> <CNN_VS>
1.0673834085

> <CNNaffinity_variance>
0.5467875004

$$$$
[H]c1sc(-c2c([H])c([H])c3c(c2[H])C([H])([H])C([H])([H])O3)nc1C(=O)N([H])c1nc2c([H])c(C#N)c([H])c([H])c2n1[H]


 30 34  0  0  0  0  0  0  0  0999 V2000
  -86.7242   34.1264   -2.2122 O   0  0  0  0  0  0  0  0  0  0  0  0
  -87.5537   33.2983   -2.6623 C   0  0  0  0  0  0  0  0  0  0  0  0
  -87.6168   32.0127   -2.0971 N   0  0  0  0  0  0  0  0  0  0  0  0
  -88.3228   31.3262   -2.4893 H   0  0  0  0  0  0  0  0  0  0  0  0
  -86.8009   31.5775   -1.0417 C   0  0  0  0  0  0  0  0  0  0  0  0
  -86.5596   30.2538   -0.7894 N   0  0  0  0  0  0  0  0  0  0  0  0
  -85.7616   30.1190    0.2571 C   0  0  0  0  0  0  0  0  0  0  0  0
  -85.2617   28.9795    0.8599 C   0  0  0  0  0  0  0  0  0  0  0  0
  -84.4364   29.1124    1.9562 C   0  0  0  0  0  0  0  0  0  0  0  0
  -84.1376   30.3781    2.4142 C   0  0  0  0  0  0  0  0  0  0  0  0
  -84.6414   31.5235    1.8066 C   0  0  0  0  0  0  0  0  0  0  0  0
  -85.4616   31.3589    0.7155 C   0  0  0  0  0  0  0  0  0  0  0  0
  -86.1122   32.2176   -0.1003 N   0  0  0  0  0  0  0  0  0  0  0  0
  -86.0526   33.2524    0.0302 H   0  0  0  0  0  0  0  0  0  0  0  0
  -83.8818   27.9589    2.6305 C   0  0  0  0  0  0  0  0  0  0  0  0
  -83.4237   27.0500    3.1686 N   0  0  0  0  0  0  0  0  0  0  0  0
  -88.4695   33.6551   -3.7826 C   0  0  0  0  0  0  0  0  0  0  0  0
  -89.6401   32.9806   -4.0169 C   0  0  0  0  0  0  0  0  0  0  0  0
  -90.2475   33.8069   -5.3844 S   0  0  0  0  0  0  0  0  0  0  0  0
  -88.9649   34.9576   -5.5640 C   0  0  0  0  0  0  0  0  0  0  0  0
  -88.1756   34.6356   -4.5831 N   0  0  0  0  0  0  0  0  0  0  0  0
  -88.8596   36.0040   -6.5870 C   0  0  0  0  0  0  0  0  0  0  0  0
  -89.9201   36.3138   -7.3579 C   0  0  0  0  0  0  0  0  0  0  0  0
  -89.8343   37.3111   -8.3391 C   0  0  0  0  0  0  0  0  0  0  0  0
  -88.6489   37.9855   -8.5192 C   0  0  0  0  0  0  0  0  0  0  0  0
  -88.3112   38.9920   -9.4018 O   0  0  0  0  0  0  0  0  0  0  0  0
  -87.1172   39.6183   -8.9861 C   0  0  0  0  0  0  0  0  0  0  0  0
  -86.4346   38.5550   -8.1511 C   0  0  0  0  0  0  0  0  0  0  0  0
  -87.5600   37.6770   -7.7375 C   0  0  0  0  0  0  0  0  0  0  0  0
  -87.6747   36.6753   -6.7642 C   0  0  0  0  0  0  0  0  0  0  0  0
  1  2  2  0  0  0
  2  3  1  0  0  0
  3  5  1  0  0  0
  5  6  2  0  0  0
  6  7  1  0  0  0
  7  8  2  0  0  0
  8  9  1  0  0  0
  9 10  2  0  0  0
 10 11  1  0  0  0
 11 12  2  0  0  0
 12 13  1  0  0  0
  9 15  1  0  0  0
 15 16  3  0  0  0
  2 17  1  0  0  0
 17 18  2  0  0  0
 18 19  1  0  0  0
 19 20  1  0  0  0
 20 21  2  0  0  0
 20 22  1  0  0  0
 22 23  2  0  0  0
 23 24  1  0  0  0
 24 25  2  0  0  0
 25 26  1  0  0  0
 26 27  1  0  0  0
 27 28  1  0  0  0
 28 29  1  0  0  0
 29 30  2  0  0  0
 13  5  1  0  0  0
 21 17  1  0  0  0
 30 22  1  0  0  0
 12  7  1  0  0  0
 29 25  1  0  0  0
  3  4  1  0  0  0
 13 14  1  0  0  0
M  END
> <minimizedAffinity>
-8.21968

> <CNNscore>
0.1587098539

> <CNNaffinity>
5.9400167465

> <CNN_VS>
0.9427391887

> <CNNaffinity_variance>
0.2375451624

$$$$
[H]c1sc(-c2c([H])c([H])c3c(c2[H])C([H])([H])C([H])([H])O3)nc1C(=O)N([H])c1nc2c([H])c(C#N)c([H])c([H])c2n1[H]


 30 34  0  0  0  0  0  0  0  0999 V2000
  -86.5883   33.0639   -3.0812 O   0  0  0  0  0  0  0  0  0  0  0  0
  -87.7543   32.8184   -2.6855 C   0  0  0  0  0  0  0  0  0  0  0  0
  -87.9377   32.1123   -1.4838 N   0  0  0  0  0  0  0  0  0  0  0  0
  -88.9287   31.9137   -1.1647 H   0  0  0  0  0  0  0  0  0  0  0  0
  -86.8875   31.6512   -0.6754 C   0  0  0  0  0  0  0  0  0  0  0  0
  -86.8027   30.3566   -0.2385 N   0  0  0  0  0  0  0  0  0  0  0  0
  -85.7208   30.1874    0.5037 C   0  0  0  0  0  0  0  0  0  0  0  0
  -85.2424   29.0589    1.1433 C   0  0  0  0  0  0  0  0  0  0  0  0
  -84.0717   29.1478    1.8662 C   0  0  0  0  0  0  0  0  0  0  0  0
  -83.4178   30.3602    1.9263 C   0  0  0  0  0  0  0  0  0  0  0  0
  -83.9004   31.4947    1.2822 C   0  0  0  0  0  0  0  0  0  0  0  0
  -85.0699   31.3747    0.5693 C   0  0  0  0  0  0  0  0  0  0  0  0
  -85.8106   32.2383   -0.1599 N   0  0  0  0  0  0  0  0  0  0  0  0
  -85.5323   33.2384   -0.2774 H   0  0  0  0  0  0  0  0  0  0  0  0
  -83.5200   28.0030    2.5575 C   0  0  0  0  0  0  0  0  0  0  0  0
  -83.0749   27.0851    3.0910 N   0  0  0  0  0  0  0  0  0  0  0  0
  -88.9433   33.2619   -3.4668 C   0  0  0  0  0  0  0  0  0  0  0  0
  -89.6165   32.4238   -4.3182 C   0  0  0  0  0  0  0  0  0  0  0  0
  -90.8467   33.4507   -4.9132 S   0  0  0  0  0  0  0  0  0  0  0  0
  -90.4174   34.8807   -4.0343 C   0  0  0  0  0  0  0  0  0  0  0  0
  -89.3818   34.4804   -3.3590 N   0  0  0  0  0  0  0  0  0  0  0  0
  -91.0950   36.1809   -4.0862 C   0  0  0  0  0  0  0  0  0  0  0  0
  -90.3806   37.3230   -4.0915 C   0  0  0  0  0  0  0  0  0  0  0  0
  -91.0142   38.5723   -4.1410 C   0  0  0  0  0  0  0  0  0  0  0  0
  -92.3877   38.6352   -4.1849 C   0  0  0  0  0  0  0  0  0  0  0  0
  -93.2377   39.7219   -4.2372 O   0  0  0  0  0  0  0  0  0  0  0  0
  -94.5275   39.3076   -4.6313 C   0  0  0  0  0  0  0  0  0  0  0  0
  -94.5647   37.8468   -4.2332 C   0  0  0  0  0  0  0  0  0  0  0  0
  -93.1268   37.4752   -4.1799 C   0  0  0  0  0  0  0  0  0  0  0  0
  -92.4665   36.2401   -4.1300 C   0  0  0  0  0  0  0  0  0  0  0  0
  1  2  2  0  0  0
  2  3  1  0  0  0
  3  5  1  0  0  0
  5  6  2  0  0  0
  6  7  1  0  0  0
  7  8  2  0  0  0
  8  9  1  0  0  0
  9 10  2  0  0  0
 10 11  1  0  0  0
 11 12  2  0  0  0
 12 13  1  0  0  0
  9 15  1  0  0  0
 15 16  3  0  0  0
  2 17  1  0  0  0
 17 18  2  0  0  0
 18 19  1  0  0  0
 19 20  1  0  0  0
 20 21  2  0  0  0
 20 22  1  0  0  0
 22 23  2  0  0  0
 23 24  1  0  0  0
 24 25  2  0  0  0
 25 26  1  0  0  0
 26 27  1  0  0  0
 27 28  1  0  0  0
 28 29  1  0  0  0
 29 30  2  0  0  0
 13  5  1  0  0  0
 21 17  1  0  0  0
 30 22  1  0  0  0
 12  7  1  0  0  0
 29 25  1  0  0  0
  3  4  1  0  0  0
 13 14  1  0  0  0
M  END
> <minimizedAffinity>
-7.82854

> <CNNscore>
0.1549191922

> <CNNaffinity>
5.9080533981

> <CNN_VS>
0.9152708650

> <CNNaffinity_variance>
0.6815311909

$$$$
[H]c1sc(-c2c([H])c([H])c3c(c2[H])C([H])([H])C([H])([H])O3)nc1C(=O)N([H])c1nc2c([H])c(C#N)c([H])c([H])c2n1[H]


 30 34  0  0  0  0  0  0  0  0999 V2000
  -89.4541   34.2136   -2.4544 O   0  0  0  0  0  0  0  0  0  0  0  0
  -88.4917   33.4156   -2.5698 C   0  0  0  0  0  0  0  0  0  0  0  0
  -87.5456   33.6230   -3.5886 N   0  0  0  0  0  0  0  0  0  0  0  0
  -86.7395   32.9397   -3.6717 H   0  0  0  0  0  0  0  0  0  0  0  0
  -87.5999   34.6822   -4.5075 C   0  0  0  0  0  0  0  0  0  0  0  0
  -88.7071   34.9468   -5.2679 N   0  0  0  0  0  0  0  0  0  0  0  0
  -88.4949   35.9944   -6.0474 C   0  0  0  0  0  0  0  0  0  0  0  0
  -89.3252   36.6078   -6.9671 C   0  0  0  0  0  0  0  0  0  0  0  0
  -88.8570   37.7025   -7.6622 C   0  0  0  0  0  0  0  0  0  0  0  0
  -87.5758   38.1484   -7.4161 C   0  0  0  0  0  0  0  0  0  0  0  0
  -86.7416   37.5301   -6.4903 C   0  0  0  0  0  0  0  0  0  0  0  0
  -87.2366   36.4409   -5.8130 C   0  0  0  0  0  0  0  0  0  0  0  0
  -86.7260   35.6172   -4.8711 N   0  0  0  0  0  0  0  0  0  0  0  0
  -85.7561   35.7380   -4.5021 H   0  0  0  0  0  0  0  0  0  0  0  0
  -89.6772   38.3875   -8.6374 C   0  0  0  0  0  0  0  0  0  0  0  0
  -90.3299   38.9482   -9.4023 N   0  0  0  0  0  0  0  0  0  0  0  0
  -88.3368   32.2556   -1.6472 C   0  0  0  0  0  0  0  0  0  0  0  0
  -89.3929   31.4594   -1.2852 C   0  0  0  0  0  0  0  0  0  0  0  0
  -88.6360   30.3319   -0.2470 S   0  0  0  0  0  0  0  0  0  0  0  0
  -87.0222   30.9541   -0.3458 C   0  0  0  0  0  0  0  0  0  0  0  0
  -87.1718   31.9627   -1.1515 N   0  0  0  0  0  0  0  0  0  0  0  0
  -85.8338   30.4270    0.3342 C   0  0  0  0  0  0  0  0  0  0  0  0
  -84.7069   31.1616    0.4065 C   0  0  0  0  0  0  0  0  0  0  0  0
  -83.5640   30.6712    1.0530 C   0  0  0  0  0  0  0  0  0  0  0  0
  -83.5916   29.4197    1.6235 C   0  0  0  0  0  0  0  0  0  0  0  0
  -82.6165   28.7199    2.3056 O   0  0  0  0  0  0  0  0  0  0  0  0
  -83.1980   27.6466    3.0132 C   0  0  0  0  0  0  0  0  0  0  0  0
  -84.4764   27.3729    2.2486 C   0  0  0  0  0  0  0  0  0  0  0  0
  -84.7371   28.6613    1.5554 C   0  0  0  0  0  0  0  0  0  0  0  0
  -85.8648   29.1771    0.9027 C   0  0  0  0  0  0  0  0  0  0  0  0
  1  2  2  0  0  0
  2  3  1  0  0  0
  3  5  1  0  0  0
  5  6  2  0  0  0
  6  7  1  0  0  0
  7  8  2  0  0  0
  8  9  1  0  0  0
  9 10  2  0  0  0
 10 11  1  0  0  0
 11 12  2  0  0  0
 12 13  1  0  0  0
  9 15  1  0  0  0
 15 16  3  0  0  0
  2 17  1  0  0  0
 17 18  2  0  0  0
 18 19  1  0  0  0
 19 20  1  0  0  0
 20 21  2  0  0  0
 20 22  1  0  0  0
 22 23  2  0  0  0
 23 24  1  0  0  0
 24 25  2  0  0  0
 25 26  1  0  0  0
 26 27  1  0  0  0
 27 28  1  0  0  0
 28 29  1  0  0  0
 29 30  2  0  0  0
 13  5  1  0  0  0
 21 17  1  0  0  0
 30 22  1  0  0  0
 12  7  1  0  0  0
 29 25  1  0  0  0
  3  4  1  0  0  0
 13 14  1  0  0  0
M  END
> <minimizedAffinity>
-8.07983

> <CNNscore>
0.0983941182

> <CNNaffinity>
5.6340456009

> <CNN_VS>
0.5543569326

> <CNNaffinity_variance>
0.1215130240

$$$$
[H]c1sc(-c2c([H])c([H])c3c(c2[H])C([H])([H])C([H])([H])O3)nc1C(=O)N([H])c1nc2c([H])c(C#N)c([H])c([H])c2n1[H]


 30 34  0  0  0  0  0  0  0  0999 V2000
  -88.6777   27.7095    3.0296 O   0  0  0  0  0  0  0  0  0  0  0  0
  -88.4369   26.5781    2.5415 C   0  0  0  0  0  0  0  0  0  0  0  0
  -87.2111   26.3580    1.8894 N   0  0  0  0  0  0  0  0  0  0  0  0
  -87.0242   25.3969    1.4833 H   0  0  0  0  0  0  0  0  0  0  0  0
  -86.2137   27.3338    1.7411 C   0  0  0  0  0  0  0  0  0  0  0  0
  -86.3760   28.4456    0.9591 N   0  0  0  0  0  0  0  0  0  0  0  0
  -85.2896   29.1997    0.9937 C   0  0  0  0  0  0  0  0  0  0  0  0
  -85.0127   30.3989    0.3637 C   0  0  0  0  0  0  0  0  0  0  0  0
  -83.7846   30.9913    0.5676 C   0  0  0  0  0  0  0  0  0  0  0  0
  -82.8740   30.3670    1.3935 C   0  0  0  0  0  0  0  0  0  0  0  0
  -83.1542   29.1605    2.0266 C   0  0  0  0  0  0  0  0  0  0  0  0
  -84.3870   28.5942    1.8038 C   0  0  0  0  0  0  0  0  0  0  0  0
  -84.9865   27.4636    2.2381 N   0  0  0  0  0  0  0  0  0  0  0  0
  -84.5054   26.8001    2.8861 H   0  0  0  0  0  0  0  0  0  0  0  0
  -83.4350   32.2455   -0.0629 C   0  0  0  0  0  0  0  0  0  0  0  0
  -83.1640   33.2530   -0.5498 N   0  0  0  0  0  0  0  0  0  0  0  0
  -89.4265   25.4683    2.6418 C   0  0  0  0  0  0  0  0  0  0  0  0
  -89.8521   24.9711    3.8467 C   0  0  0  0  0  0  0  0  0  0  0  0
  -90.9461   23.7546    3.3517 S   0  0  0  0  0  0  0  0  0  0  0  0
  -90.7854   23.9637    1.6394 C   0  0  0  0  0  0  0  0  0  0  0  0
  -89.9218   24.9320    1.5668 N   0  0  0  0  0  0  0  0  0  0  0  0
  -91.4788   23.2052    0.5924 C   0  0  0  0  0  0  0  0  0  0  0  0
  -92.0931   22.0426    0.8852 C   0  0  0  0  0  0  0  0  0  0  0  0
  -92.7596   21.3072   -0.1046 C   0  0  0  0  0  0  0  0  0  0  0  0
  -92.7878   21.7787   -1.3966 C   0  0  0  0  0  0  0  0  0  0  0  0
  -93.3662   21.2523   -2.5343 O   0  0  0  0  0  0  0  0  0  0  0  0
  -93.4513   22.2429   -3.5354 C   0  0  0  0  0  0  0  0  0  0  0  0
  -92.3569   23.2194   -3.1578 C   0  0  0  0  0  0  0  0  0  0  0  0
  -92.1637   22.9646   -1.7065 C   0  0  0  0  0  0  0  0  0  0  0  0
  -91.5050   23.6788   -0.6966 C   0  0  0  0  0  0  0  0  0  0  0  0
  1  2  2  0  0  0
  2  3  1  0  0  0
  3  5  1  0  0  0
  5  6  2  0  0  0
  6  7  1  0  0  0
  7  8  2  0  0  0
  8  9  1  0  0  0
  9 10  2  0  0  0
 10 11  1  0  0  0
 11 12  2  0  0  0
 12 13  1  0  0  0
  9 15  1  0  0  0
 15 16  3  0  0  0
  2 17  1  0  0  0
 17 18  2  0  0  0
 18 19  1  0  0  0
 19 20  1  0  0  0
 20 21  2  0  0  0
 20 22  1  0  0  0
 22 23  2  0  0  0
 23 24  1  0  0  0
 24 25  2  0  0  0
 25 26  1  0  0  0
 26 27  1  0  0  0
 27 28  1  0  0  0
 28 29  1  0  0  0
 29 30  2  0  0  0
 13  5  1  0  0  0
 21 17  1  0  0  0
 30 22  1  0  0  0
 12  7  1  0  0  0
 29 25  1  0  0  0
  3  4  1  0  0  0
 13 14  1  0  0  0
M  END
> <minimizedAffinity>
-8.97327

> <CNNscore>
0.0879058912

> <CNNaffinity>
5.6946969032

> <CNN_VS>
0.5005974174

> <CNNaffinity_variance>
0.4754787385

$$$$
[H]c1sc(-c2c([H])c([H])c3c(c2[H])C([H])([H])C([H])([H])O3)nc1C(=O)N([H])c1nc2c([H])c(C#N)c([H])c([H])c2n1[H]


 30 34  0  0  0  0  0  0  0  0999 V2000
  -87.7620   26.2129   -0.5778 O   0  0  0  0  0  0  0  0  0  0  0  0
  -88.3054   26.0832    0.5466 C   0  0  0  0  0  0  0  0  0  0  0  0
  -87.7736   26.7727    1.6503 N   0  0  0  0  0  0  0  0  0  0  0  0
  -88.2448   26.6517    2.5921 H   0  0  0  0  0  0  0  0  0  0  0  0
  -86.6534   27.6152    1.5849 C   0  0  0  0  0  0  0  0  0  0  0  0
  -86.6399   28.7741    0.8563 N   0  0  0  0  0  0  0  0  0  0  0  0
  -85.4673   29.3768    0.9651 C   0  0  0  0  0  0  0  0  0  0  0  0
  -85.0132   30.5574    0.4070 C   0  0  0  0  0  0  0  0  0  0  0  0
  -83.7277   30.9735    0.6810 C   0  0  0  0  0  0  0  0  0  0  0  0
  -82.9385   30.1973    1.5029 C   0  0  0  0  0  0  0  0  0  0  0  0
  -83.3968   29.0096    2.0637 C   0  0  0  0  0  0  0  0  0  0  0  0
  -84.6829   28.6210    1.7719 C   0  0  0  0  0  0  0  0  0  0  0  0
  -85.4400   27.5596    2.1277 N   0  0  0  0  0  0  0  0  0  0  0  0
  -85.0745   26.8092    2.7560 H   0  0  0  0  0  0  0  0  0  0  0  0
  -83.1945   32.1992    0.1276 C   0  0  0  0  0  0  0  0  0  0  0  0
  -82.7869   33.1779   -0.3213 N   0  0  0  0  0  0  0  0  0  0  0  0
  -89.5011   25.2127    0.7296 C   0  0  0  0  0  0  0  0  0  0  0  0
  -90.0313   24.9441    1.9653 C   0  0  0  0  0  0  0  0  0  0  0  0
  -91.3449   23.9266    1.5642 S   0  0  0  0  0  0  0  0  0  0  0  0
  -91.1275   23.9133   -0.1545 C   0  0  0  0  0  0  0  0  0  0  0  0
  -90.0841   24.6744   -0.2994 N   0  0  0  0  0  0  0  0  0  0  0  0
  -91.9500   23.2015   -1.1391 C   0  0  0  0  0  0  0  0  0  0  0  0
  -92.0354   23.6478   -2.4073 C   0  0  0  0  0  0  0  0  0  0  0  0
  -92.8172   22.9781   -3.3587 C   0  0  0  0  0  0  0  0  0  0  0  0
  -93.5091   21.8467   -2.9933 C   0  0  0  0  0  0  0  0  0  0  0  0
  -94.3345   21.0197   -3.7287 O   0  0  0  0  0  0  0  0  0  0  0  0
  -94.5270   19.7995   -3.0471 C   0  0  0  0  0  0  0  0  0  0  0  0
  -94.2693   20.1611   -1.5990 C   0  0  0  0  0  0  0  0  0  0  0  0
  -93.4290   21.3825   -1.7010 C   0  0  0  0  0  0  0  0  0  0  0  0
  -92.6396   22.0723   -0.7709 C   0  0  0  0  0  0  0  0  0  0  0  0
  1  2  2  0  0  0
  2  3  1  0  0  0
  3  5  1  0  0  0
  5  6  2  0  0  0
  6  7  1  0  0  0
  7  8  2  0  0  0
  8  9  1  0  0  0
  9 10  2  0  0  0
 10 11  1  0  0  0
 11 12  2  0  0  0
 12 13  1  0  0  0
  9 15  1  0  0  0
 15 16  3  0  0  0
  2 17  1  0  0  0
 17 18  2  0  0  0
 18 19  1  0  0  0
 19 20  1  0  0  0
 20 21  2  0  0  0
 20 22  1  0  0  0
 22 23  2  0  0  0
 23 24  1  0  0  0
 24 25  2  0  0  0
 25 26  1  0  0  0
 26 27  1  0  0  0
 27 28  1  0  0  0
 28 29  1  0  0  0
 29 30  2  0  0  0
 13  5  1  0  0  0
 21 17  1  0  0  0
 30 22  1  0  0  0
 12  7  1  0  0  0
 29 25  1  0  0  0
  3  4  1  0  0  0
 13 14  1  0  0  0
M  END
> <minimizedAffinity>
-8.00815

> <CNNscore>
0.0683173463

> <CNNaffinity>
5.5330610275

> <CNN_VS>
0.3780040443

> <CNNaffinity_variance>
0.6331101656

$$$$
[H]Oc1c([H])c([H])c(-c2c([H])n([H])c3nc([H])c(-c4c([H])c([H])c(N([H])C(=O)N([H])[H])c([H])c4[H])c([H])c23)c([H])c1[H]


 31 34  0  0  0  0  0  0  0  0999 V2000
  -86.7015   32.5565   -1.9250 C   0  0  0  0  0  0  0  0  0  0  0  0
  -85.9114   33.6782   -2.0700 C   0  0  0  0  0  0  0  0  0  0  0  0
  -84.7799   33.8465   -1.3577 N   0  0  0  0  0  0  0  0  0  0  0  0
  -84.3453   32.9344   -0.4595 C   0  0  0  0  0  0  0  0  0  0  0  0
  -83.2871   32.8517    0.3631 N   0  0  0  0  0  0  0  0  0  0  0  0
  -83.3429   31.7043    1.0582 C   0  0  0  0  0  0  0  0  0  0  0  0
  -84.4801   30.9946    0.6857 C   0  0  0  0  0  0  0  0  0  0  0  0
  -85.1016   31.7726   -0.2649 C   0  0  0  0  0  0  0  0  0  0  0  0
  -86.2597   31.6168   -1.0041 C   0  0  0  0  0  0  0  0  0  0  0  0
  -82.5302   33.5525    0.4641 H   0  0  0  0  0  0  0  0  0  0  0  0
  -84.9764   29.7079    1.1410 C   0  0  0  0  0  0  0  0  0  0  0  0
  -86.2388   29.2701    0.8091 C   0  0  0  0  0  0  0  0  0  0  0  0
  -86.6352   28.0366    1.2887 C   0  0  0  0  0  0  0  0  0  0  0  0
  -85.8390   27.2402    2.0687 C   0  0  0  0  0  0  0  0  0  0  0  0
  -86.2607   26.0021    2.5392 O   0  0  0  0  0  0  0  0  0  0  0  0
  -84.5770   27.7020    2.3872 C   0  0  0  0  0  0  0  0  0  0  0  0
  -84.1572   28.9164    1.9286 C   0  0  0  0  0  0  0  0  0  0  0  0
  -85.6599   25.4456    3.1042 H   0  0  0  0  0  0  0  0  0  0  0  0
  -90.2638   31.9803   -4.2399 C   0  0  0  0  0  0  0  0  0  0  0  0
  -89.0042   32.1034   -4.8228 C   0  0  0  0  0  0  0  0  0  0  0  0
  -87.8752   32.2876   -4.0644 C   0  0  0  0  0  0  0  0  0  0  0  0
  -87.9273   32.3607   -2.6875 C   0  0  0  0  0  0  0  0  0  0  0  0
  -89.1730   32.2380   -2.1311 C   0  0  0  0  0  0  0  0  0  0  0  0
  -90.3144   32.0527   -2.8825 C   0  0  0  0  0  0  0  0  0  0  0  0
  -93.1809   30.6453   -6.2759 N   0  0  0  0  0  0  0  0  0  0  0  0
  -92.0917   30.6319   -5.3527 C   0  0  0  0  0  0  0  0  0  0  0  0
  -91.8412   29.5518   -4.7950 O   0  0  0  0  0  0  0  0  0  0  0  0
  -91.3586   31.8000   -5.1086 N   0  0  0  0  0  0  0  0  0  0  0  0
  -93.1848   30.0634   -7.1243 H   0  0  0  0  0  0  0  0  0  0  0  0
  -93.9930   31.2693   -6.0727 H   0  0  0  0  0  0  0  0  0  0  0  0
  -91.6818   32.6588   -5.6542 H   0  0  0  0  0  0  0  0  0  0  0  0
 25 26  1  0  0  0
 26 27  2  0  0  0
 26 28  1  0  0  0
 28 19  1  0  0  0
 19 20  2  0  0  0
 20 21  1  0  0  0
 21 22  2  0  0  0
 22 23  1  0  0  0
 23 24  2  0  0  0
 22  1  1  0  0  0
  1  2  2  0  0  0
  2  3  1  0  0  0
  3  4  2  0  0  0
  4  5  1  0  0  0
  5  6  1  0  0  0
  6  7  2  0  0  0
  7 11  1  0  0  0
 11 12  2  0  0  0
 12 13  1  0  0  0
 13 14  2  0  0  0
 14 15  1  0  0  0
 14 16  1  0  0  0
 16 17  2  0  0  0
  7  8  1  0  0  0
  8  9  2  0  0  0
 24 19  1  0  0  0
  9  1  1  0  0  0
  8  4  1  0  0  0
 17 11  1  0  0  0
 25 29  1  0  0  0
 25 30  1  0  0  0
 28 31  1  0  0  0
  5 10  1  0  0  0
 15 18  1  0  0  0
M  END
> <minimizedAffinity>
-8.38407

> <CNNscore>
0.8704672456

> <CNNaffinity>
6.7179727554

> <CNN_VS>
5.8477754593

> <CNNaffinity_variance>
0.1420396566

$$$$
[H]Oc1c([H])c([H])c(-c2c([H])n([H])c3nc([H])c(-c4c([H])c([H])c(N([H])C(=O)N([H])[H])c([H])c4[H])c([H])c23)c([H])c1[H]


 31 34  0  0  0  0  0  0  0  0999 V2000
  -85.6619   32.9138   -0.9716 C   0  0  0  0  0  0  0  0  0  0  0  0
  -84.5194   33.6786   -0.8557 C   0  0  0  0  0  0  0  0  0  0  0  0
  -83.4251   33.2269   -0.2121 N   0  0  0  0  0  0  0  0  0  0  0  0
  -83.3726   32.0028    0.3593 C   0  0  0  0  0  0  0  0  0  0  0  0
  -82.4396   31.3213    1.0437 N   0  0  0  0  0  0  0  0  0  0  0  0
  -82.9227   30.1179    1.3917 C   0  0  0  0  0  0  0  0  0  0  0  0
  -84.2261   29.9911    0.9221 C   0  0  0  0  0  0  0  0  0  0  0  0
  -84.4993   31.1762    0.2770 C   0  0  0  0  0  0  0  0  0  0  0  0
  -85.6133   31.6561   -0.3868 C   0  0  0  0  0  0  0  0  0  0  0  0
  -81.4859   31.6517    1.2796 H   0  0  0  0  0  0  0  0  0  0  0  0
  -85.1627   28.8868    1.0347 C   0  0  0  0  0  0  0  0  0  0  0  0
  -85.0348   27.9388    2.0248 C   0  0  0  0  0  0  0  0  0  0  0  0
  -85.9647   26.9175    2.0572 C   0  0  0  0  0  0  0  0  0  0  0  0
  -86.9945   26.8077    1.1605 C   0  0  0  0  0  0  0  0  0  0  0  0
  -87.9181   25.7702    1.2138 O   0  0  0  0  0  0  0  0  0  0  0  0
  -87.1010   27.7716    0.1771 C   0  0  0  0  0  0  0  0  0  0  0  0
  -86.1975   28.7923    0.1194 C   0  0  0  0  0  0  0  0  0  0  0  0
  -88.6558   25.7167    0.5484 H   0  0  0  0  0  0  0  0  0  0  0  0
  -89.2123   34.2557   -2.9654 C   0  0  0  0  0  0  0  0  0  0  0  0
  -89.2270   33.2355   -2.0164 C   0  0  0  0  0  0  0  0  0  0  0  0
  -88.0794   32.8197   -1.3890 C   0  0  0  0  0  0  0  0  0  0  0  0
  -86.8526   33.3884   -1.6639 C   0  0  0  0  0  0  0  0  0  0  0  0
  -86.8562   34.3894   -2.5990 C   0  0  0  0  0  0  0  0  0  0  0  0
  -88.0026   34.8157   -3.2361 C   0  0  0  0  0  0  0  0  0  0  0  0
  -92.2732   34.6050   -5.1892 N   0  0  0  0  0  0  0  0  0  0  0  0
  -90.9981   34.1337   -4.7525 C   0  0  0  0  0  0  0  0  0  0  0  0
  -90.4261   33.3060   -5.4791 O   0  0  0  0  0  0  0  0  0  0  0  0
  -90.4445   34.6026   -3.5545 N   0  0  0  0  0  0  0  0  0  0  0  0
  -92.3933   35.1135   -6.0755 H   0  0  0  0  0  0  0  0  0  0  0  0
  -93.1023   34.4216   -4.5815 H   0  0  0  0  0  0  0  0  0  0  0  0
  -91.0435   35.3112   -3.0265 H   0  0  0  0  0  0  0  0  0  0  0  0
 25 26  1  0  0  0
 26 27  2  0  0  0
 26 28  1  0  0  0
 28 19  1  0  0  0
 19 20  2  0  0  0
 20 21  1  0  0  0
 21 22  2  0  0  0
 22 23  1  0  0  0
 23 24  2  0  0  0
 22  1  1  0  0  0
  1  2  2  0  0  0
  2  3  1  0  0  0
  3  4  2  0  0  0
  4  5  1  0  0  0
  5  6  1  0  0  0
  6  7  2  0  0  0
  7 11  1  0  0  0
 11 12  2  0  0  0
 12 13  1  0  0  0
 13 14  2  0  0  0
 14 15  1  0  0  0
 14 16  1  0  0  0
 16 17  2  0  0  0
  7  8  1  0  0  0
  8  9  2  0  0  0
 24 19  1  0  0  0
  9  1  1  0  0  0
  8  4  1  0  0  0
 17 11  1  0  0  0
 25 29  1  0  0  0
 25 30  1  0  0  0
 28 31  1  0  0  0
  5 10  1  0  0  0
 15 18  1  0  0  0
M  END
> <minimizedAffinity>
-9.81533

> <CNNscore>
0.8598285913

> <CNNaffinity>
6.7717652321

> <CNN_VS>
5.8225574493

> <CNNaffinity_variance>
0.1322680414

$$$$
[H]Oc1c([H])c([H])c(-c2c([H])n([H])c3nc([H])c(-c4c([H])c([H])c(N([H])C(=O)N([H])[H])c([H])c4[H])c([H])c23)c([H])c1[H]


 31 34  0  0  0  0  0  0  0  0999 V2000
  -87.7579   31.7111   -0.9250 C   0  0  0  0  0  0  0  0  0  0  0  0
  -87.5950   32.9411   -1.5285 C   0  0  0  0  0  0  0  0  0  0  0  0
  -86.4298   33.6149   -1.4637 N   0  0  0  0  0  0  0  0  0  0  0  0
  -85.3493   33.1350   -0.8081 C   0  0  0  0  0  0  0  0  0  0  0  0
  -84.1028   33.5843   -0.5899 N   0  0  0  0  0  0  0  0  0  0  0  0
  -83.4215   32.6899    0.1440 C   0  0  0  0  0  0  0  0  0  0  0  0
  -84.2432   31.6033    0.4260 C   0  0  0  0  0  0  0  0  0  0  0  0
  -85.4484   31.8908   -0.1741 C   0  0  0  0  0  0  0  0  0  0  0  0
  -86.6516   31.2137   -0.2507 C   0  0  0  0  0  0  0  0  0  0  0  0
  -83.7042   34.4801   -0.9258 H   0  0  0  0  0  0  0  0  0  0  0  0
  -83.9716   30.3883    1.1738 C   0  0  0  0  0  0  0  0  0  0  0  0
  -82.6822   29.9773    1.4266 C   0  0  0  0  0  0  0  0  0  0  0  0
  -82.5117   28.8063    2.1397 C   0  0  0  0  0  0  0  0  0  0  0  0
  -83.5542   28.0465    2.6006 C   0  0  0  0  0  0  0  0  0  0  0  0
  -83.3569   26.8714    3.3165 O   0  0  0  0  0  0  0  0  0  0  0  0
  -84.8379   28.4806    2.3342 C   0  0  0  0  0  0  0  0  0  0  0  0
  -85.0381   29.6331    1.6320 C   0  0  0  0  0  0  0  0  0  0  0  0
  -84.1341   26.3401    3.6385 H   0  0  0  0  0  0  0  0  0  0  0  0
  -91.4679   29.5768   -1.1732 C   0  0  0  0  0  0  0  0  0  0  0  0
  -91.1194   30.5794   -2.0759 C   0  0  0  0  0  0  0  0  0  0  0  0
  -89.9267   31.2516   -1.9797 C   0  0  0  0  0  0  0  0  0  0  0  0
  -89.0113   30.9711   -0.9861 C   0  0  0  0  0  0  0  0  0  0  0  0
  -89.3698   29.9832   -0.1074 C   0  0  0  0  0  0  0  0  0  0  0  0
  -90.5651   29.3010   -0.1939 C   0  0  0  0  0  0  0  0  0  0  0  0
  -94.3613   27.3353   -2.1934 N   0  0  0  0  0  0  0  0  0  0  0  0
  -93.0220   27.8265   -2.1318 C   0  0  0  0  0  0  0  0  0  0  0  0
  -92.1672   27.2111   -2.7882 O   0  0  0  0  0  0  0  0  0  0  0  0
  -92.7180   28.9531   -1.3573 N   0  0  0  0  0  0  0  0  0  0  0  0
  -94.8880   27.2946   -3.0763 H   0  0  0  0  0  0  0  0  0  0  0  0
  -94.8094   27.0102   -1.3081 H   0  0  0  0  0  0  0  0  0  0  0  0
  -93.5475   29.3846   -0.8420 H   0  0  0  0  0  0  0  0  0  0  0  0
 25 26  1  0  0  0
 26 27  2  0  0  0
 26 28  1  0  0  0
 28 19  1  0  0  0
 19 20  2  0  0  0
 20 21  1  0  0  0
 21 22  2  0  0  0
 22 23  1  0  0  0
 23 24  2  0  0  0
 22  1  1  0  0  0
  1  2  2  0  0  0
  2  3  1  0  0  0
  3  4  2  0  0  0
  4  5  1  0  0  0
  5  6  1  0  0  0
  6  7  2  0  0  0
  7 11  1  0  0  0
 11 12  2  0  0  0
 12 13  1  0  0  0
 13 14  2  0  0  0
 14 15  1  0  0  0
 14 16  1  0  0  0
 16 17  2  0  0  0
  7  8  1  0  0  0
  8  9  2  0  0  0
 24 19  1  0  0  0
  9  1  1  0  0  0
  8  4  1  0  0  0
 17 11  1  0  0  0
 25 29  1  0  0  0
 25 30  1  0  0  0
 28 31  1  0  0  0
  5 10  1  0  0  0
 15 18  1  0  0  0
M  END
> <minimizedAffinity>
-10.58800

> <CNNscore>
0.7035736442

> <CNNaffinity>
6.6540756226

> <CNN_VS>
4.6816320419

> <CNNaffinity_variance>
0.1975870132

$$$$
[H]Oc1c([H])c([H])c(-c2c([H])n([H])c3nc([H])c(-c4c([H])c([H])c(N([H])C(=O)N([H])[H])c([H])c4[H])c([H])c23)c([H])c1[H]


 31 34  0  0  0  0  0  0  0  0999 V2000
  -87.7393   31.7987   -1.0389 C   0  0  0  0  0  0  0  0  0  0  0  0
  -87.5189   33.0288   -1.6237 C   0  0  0  0  0  0  0  0  0  0  0  0
  -86.3399   33.6704   -1.5046 N   0  0  0  0  0  0  0  0  0  0  0  0
  -85.3007   33.1562   -0.8094 C   0  0  0  0  0  0  0  0  0  0  0  0
  -84.0528   33.5700   -0.5357 N   0  0  0  0  0  0  0  0  0  0  0  0
  -83.4266   32.6517    0.2174 C   0  0  0  0  0  0  0  0  0  0  0  0
  -84.2879   31.5853    0.4551 C   0  0  0  0  0  0  0  0  0  0  0  0
  -85.4591   31.9100   -0.1916 C   0  0  0  0  0  0  0  0  0  0  0  0
  -86.6756   31.2662   -0.3241 C   0  0  0  0  0  0  0  0  0  0  0  0
  -83.6170   34.4575   -0.8466 H   0  0  0  0  0  0  0  0  0  0  0  0
  -84.0800   30.3573    1.2022 C   0  0  0  0  0  0  0  0  0  0  0  0
  -85.1418   29.6177    1.6723 C   0  0  0  0  0  0  0  0  0  0  0  0
  -84.8562   28.4656    2.3793 C   0  0  0  0  0  0  0  0  0  0  0  0
  -83.5812   28.0320    2.6298 C   0  0  0  0  0  0  0  0  0  0  0  0
  -83.3193   26.8685    3.3440 O   0  0  0  0  0  0  0  0  0  0  0  0
  -82.5335   28.7916    2.1472 C   0  0  0  0  0  0  0  0  0  0  0  0
  -82.7840   29.9346    1.4456 C   0  0  0  0  0  0  0  0  0  0  0  0
  -82.3822   26.5787    3.5104 H   0  0  0  0  0  0  0  0  0  0  0  0
  -91.4545   29.6779   -1.3225 C   0  0  0  0  0  0  0  0  0  0  0  0
  -90.5171   29.4154   -0.3255 C   0  0  0  0  0  0  0  0  0  0  0  0
  -89.3329   30.1053   -0.2516 C   0  0  0  0  0  0  0  0  0  0  0  0
  -89.0083   31.0932   -1.1585 C   0  0  0  0  0  0  0  0  0  0  0  0
  -89.9407   31.3382   -2.1317 C   0  0  0  0  0  0  0  0  0  0  0  0
  -91.1337   30.6518   -2.2163 C   0  0  0  0  0  0  0  0  0  0  0  0
  -94.2223   27.1536   -1.9578 N   0  0  0  0  0  0  0  0  0  0  0  0
  -92.9660   27.8127   -2.1188 C   0  0  0  0  0  0  0  0  0  0  0  0
  -92.2059   27.3672   -2.9929 O   0  0  0  0  0  0  0  0  0  0  0  0
  -92.6352   28.9088   -1.3122 N   0  0  0  0  0  0  0  0  0  0  0  0
  -94.9168   27.1090   -2.7156 H   0  0  0  0  0  0  0  0  0  0  0  0
  -94.4313   26.7065   -1.0375 H   0  0  0  0  0  0  0  0  0  0  0  0
  -93.3798   29.1864   -0.5992 H   0  0  0  0  0  0  0  0  0  0  0  0
 25 26  1  0  0  0
 26 27  2  0  0  0
 26 28  1  0  0  0
 28 19  1  0  0  0
 19 20  2  0  0  0
 20 21  1  0  0  0
 21 22  2  0  0  0
 22 23  1  0  0  0
 23 24  2  0  0  0
 22  1  1  0  0  0
  1  2  2  0  0  0
  2  3  1  0  0  0
  3  4  2  0  0  0
  4  5  1  0  0  0
  5  6  1  0  0  0
  6  7  2  0  0  0
  7 11  1  0  0  0
 11 12  2  0  0  0
 12 13  1  0  0  0
 13 14  2  0  0  0
 14 15  1  0  0  0
 14 16  1  0  0  0
 16 17  2  0  0  0
  7  8  1  0  0  0
  8  9  2  0  0  0
 24 19  1  0  0  0
  9  1  1  0  0  0
  8  4  1  0  0  0
 17 11  1  0  0  0
 25 29  1  0  0  0
 25 30  1  0  0  0
 28 31  1  0  0  0
  5 10  1  0  0  0
 15 18  1  0  0  0
M  END
> <minimizedAffinity>
-10.57899

> <CNNscore>
0.6861261725

> <CNNaffinity>
6.6763181686

> <CNN_VS>
4.5807967186

> <CNNaffinity_variance>
0.1958913952

$$$$
[H]Oc1c([H])c([H])c(-c2c([H])n([H])c3nc([H])c(-c4c([H])c([H])c(N([H])C(=O)N([H])[H])c([H])c4[H])c([H])c23)c([H])c1[H]


 31 34  0  0  0  0  0  0  0  0999 V2000
  -93.4883   33.1160   -5.4670 C   0  0  0  0  0  0  0  0  0  0  0  0
  -94.8146   33.3910   -5.7294 C   0  0  0  0  0  0  0  0  0  0  0  0
  -95.1919   34.5036   -6.3893 N   0  0  0  0  0  0  0  0  0  0  0  0
  -94.3031   35.4192   -6.8358 C   0  0  0  0  0  0  0  0  0  0  0  0
  -94.4012   36.5826   -7.4995 N   0  0  0  0  0  0  0  0  0  0  0  0
  -93.1766   37.0985   -7.6915 C   0  0  0  0  0  0  0  0  0  0  0  0
  -92.2259   36.2483   -7.1359 C   0  0  0  0  0  0  0  0  0  0  0  0
  -92.9404   35.1995   -6.6023 C   0  0  0  0  0  0  0  0  0  0  0  0
  -92.5716   34.0528   -5.9235 C   0  0  0  0  0  0  0  0  0  0  0  0
  -95.2760   37.0335   -7.8244 H   0  0  0  0  0  0  0  0  0  0  0  0
  -90.7785   36.3591   -7.0890 C   0  0  0  0  0  0  0  0  0  0  0  0
  -90.0217   35.5154   -6.3075 C   0  0  0  0  0  0  0  0  0  0  0  0
  -88.6515   35.6926   -6.3154 C   0  0  0  0  0  0  0  0  0  0  0  0
  -88.0209   36.6571   -7.0562 C   0  0  0  0  0  0  0  0  0  0  0  0
  -86.6400   36.8157   -7.0475 O   0  0  0  0  0  0  0  0  0  0  0  0
  -88.8027   37.4904   -7.8320 C   0  0  0  0  0  0  0  0  0  0  0  0
  -90.1586   37.3400   -7.8447 C   0  0  0  0  0  0  0  0  0  0  0  0
  -86.2101   37.5256   -7.5962 H   0  0  0  0  0  0  0  0  0  0  0  0
  -92.2123   29.5588   -3.4424 C   0  0  0  0  0  0  0  0  0  0  0  0
  -92.0274   29.7486   -4.8104 C   0  0  0  0  0  0  0  0  0  0  0  0
  -92.4432   30.8947   -5.4406 C   0  0  0  0  0  0  0  0  0  0  0  0
  -93.0651   31.9178   -4.7547 C   0  0  0  0  0  0  0  0  0  0  0  0
  -93.2390   31.7148   -3.4112 C   0  0  0  0  0  0  0  0  0  0  0  0
  -92.8256   30.5677   -2.7670 C   0  0  0  0  0  0  0  0  0  0  0  0
  -91.2427   25.9486   -2.7621 N   0  0  0  0  0  0  0  0  0  0  0  0
  -91.7570   27.0710   -3.4793 C   0  0  0  0  0  0  0  0  0  0  0  0
  -92.1945   26.8559   -4.6206 O   0  0  0  0  0  0  0  0  0  0  0  0
  -91.7541   28.3439   -2.8950 N   0  0  0  0  0  0  0  0  0  0  0  0
  -91.8302   25.1396   -2.5196 H   0  0  0  0  0  0  0  0  0  0  0  0
  -90.2373   25.9609   -2.4804 H   0  0  0  0  0  0  0  0  0  0  0  0
  -91.3470   28.3878   -1.9091 H   0  0  0  0  0  0  0  0  0  0  0  0
 25 26  1  0  0  0
 26 27  2  0  0  0
 26 28  1  0  0  0
 28 19  1  0  0  0
 19 20  2  0  0  0
 20 21  1  0  0  0
 21 22  2  0  0  0
 22 23  1  0  0  0
 23 24  2  0  0  0
 22  1  1  0  0  0
  1  2  2  0  0  0
  2  3  1  0  0  0
  3  4  2  0  0  0
  4  5  1  0  0  0
  5  6  1  0  0  0
  6  7  2  0  0  0
  7 11  1  0  0  0
 11 12  2  0  0  0
 12 13  1  0  0  0
 13 14  2  0  0  0
 14 15  1  0  0  0
 14 16  1  0  0  0
 16 17  2  0  0  0
  7  8  1  0  0  0
  8  9  2  0  0  0
 24 19  1  0  0  0
  9  1  1  0  0  0
  8  4  1  0  0  0
 17 11  1  0  0  0
 25 29  1  0  0  0
 25 30  1  0  0  0
 28 31  1  0  0  0
  5 10  1  0  0  0
 15 18  1  0  0  0
M  END
> <minimizedAffinity>
-4.19415

> <CNNscore>
0.5130308867

> <CNNaffinity>
5.4522132874

> <CNN_VS>
2.7971537113

> <CNNaffinity_variance>
1.1757574081

$$$$
[H]Oc1c([H])c([H])c(-c2c([H])n([H])c3nc([H])c(-c4c([H])c([H])c(N([H])C(=O)N([H])[H])c([H])c4[H])c([H])c23)c([H])c1[H]


 31 34  0  0  0  0  0  0  0  0999 V2000
  -88.3004   30.7794   -1.3462 C   0  0  0  0  0  0  0  0  0  0  0  0
  -88.4491   32.0671   -1.8189 C   0  0  0  0  0  0  0  0  0  0  0  0
  -87.5634   33.0386   -1.5230 N   0  0  0  0  0  0  0  0  0  0  0  0
  -86.4771   32.8193   -0.7488 C   0  0  0  0  0  0  0  0  0  0  0  0
  -85.4648   33.5830   -0.3069 N   0  0  0  0  0  0  0  0  0  0  0  0
  -84.6380   32.8444    0.4505 C   0  0  0  0  0  0  0  0  0  0  0  0
  -85.1157   31.5394    0.5165 C   0  0  0  0  0  0  0  0  0  0  0  0
  -86.2677   31.5331   -0.2373 C   0  0  0  0  0  0  0  0  0  0  0  0
  -87.1867   30.5488   -0.5510 C   0  0  0  0  0  0  0  0  0  0  0  0
  -85.3215   34.5900   -0.5061 H   0  0  0  0  0  0  0  0  0  0  0  0
  -84.5792   30.3753    1.1995 C   0  0  0  0  0  0  0  0  0  0  0  0
  -83.2241   30.2139    1.3805 C   0  0  0  0  0  0  0  0  0  0  0  0
  -82.7969   29.0746    2.0349 C   0  0  0  0  0  0  0  0  0  0  0  0
  -83.6499   28.1116    2.5056 C   0  0  0  0  0  0  0  0  0  0  0  0
  -83.1956   26.9733    3.1614 O   0  0  0  0  0  0  0  0  0  0  0  0
  -85.0047   28.2973    2.3117 C   0  0  0  0  0  0  0  0  0  0  0  0
  -85.4569   29.4124    1.6686 C   0  0  0  0  0  0  0  0  0  0  0  0
  -83.8394   26.2907    3.4923 H   0  0  0  0  0  0  0  0  0  0  0  0
  -91.0295   27.6086   -2.2840 C   0  0  0  0  0  0  0  0  0  0  0  0
  -89.6517   27.4843   -2.4513 C   0  0  0  0  0  0  0  0  0  0  0  0
  -88.7941   28.5113   -2.1455 C   0  0  0  0  0  0  0  0  0  0  0  0
  -89.2495   29.7189   -1.6573 C   0  0  0  0  0  0  0  0  0  0  0  0
  -90.6061   29.8240   -1.4991 C   0  0  0  0  0  0  0  0  0  0  0  0
  -91.4776   28.7994   -1.8029 C   0  0  0  0  0  0  0  0  0  0  0  0
  -93.1041   24.9639   -4.0553 N   0  0  0  0  0  0  0  0  0  0  0  0
  -92.3118   26.1410   -3.8962 C   0  0  0  0  0  0  0  0  0  0  0  0
  -92.0899   26.8111   -4.9171 O   0  0  0  0  0  0  0  0  0  0  0  0
  -91.8216   26.4969   -2.6334 N   0  0  0  0  0  0  0  0  0  0  0  0
  -94.0752   25.0008   -4.3934 H   0  0  0  0  0  0  0  0  0  0  0  0
  -92.6735   24.0428   -3.8178 H   0  0  0  0  0  0  0  0  0  0  0  0
  -92.0858   25.8310   -1.8419 H   0  0  0  0  0  0  0  0  0  0  0  0
 25 26  1  0  0  0
 26 27  2  0  0  0
 26 28  1  0  0  0
 28 19  1  0  0  0
 19 20  2  0  0  0
 20 21  1  0  0  0
 21 22  2  0  0  0
 22 23  1  0  0  0
 23 24  2  0  0  0
 22  1  1  0  0  0
  1  2  2  0  0  0
  2  3  1  0  0  0
  3  4  2  0  0  0
  4  5  1  0  0  0
  5  6  1  0  0  0
  6  7  2  0  0  0
  7 11  1  0  0  0
 11 12  2  0  0  0
 12 13  1  0  0  0
 13 14  2  0  0  0
 14 15  1  0  0  0
 14 16  1  0  0  0
 16 17  2  0  0  0
  7  8  1  0  0  0
  8  9  2  0  0  0
 24 19  1  0  0  0
  9  1  1  0  0  0
  8  4  1  0  0  0
 17 11  1  0  0  0
 25 29  1  0  0  0
 25 30  1  0  0  0
 28 31  1  0  0  0
  5 10  1  0  0  0
 15 18  1  0  0  0
M  END
> <minimizedAffinity>
-9.74471

> <CNNscore>
0.3167451024

> <CNNaffinity>
6.3101449013

> <CNN_VS>
1.9987075329

> <CNNaffinity_variance>
0.3653366566

$$$$
[H]Oc1c([H])c([H])c(-c2c([H])n([H])c3nc([H])c(-c4c([H])c([H])c(N([H])C(=O)N([H])[H])c([H])c4[H])c([H])c23)c([H])c1[H]


 31 34  0  0  0  0  0  0  0  0999 V2000
  -86.0174   29.3598    0.9265 C   0  0  0  0  0  0  0  0  0  0  0  0
  -84.7177   29.2997    1.3857 C   0  0  0  0  0  0  0  0  0  0  0  0
  -83.8325   30.2861    1.1423 N   0  0  0  0  0  0  0  0  0  0  0  0
  -84.1553   31.3933    0.4370 C   0  0  0  0  0  0  0  0  0  0  0  0
  -83.4897   32.4957    0.0562 N   0  0  0  0  0  0  0  0  0  0  0  0
  -84.3060   33.2970   -0.6469 C   0  0  0  0  0  0  0  0  0  0  0  0
  -85.5631   32.7080   -0.7387 C   0  0  0  0  0  0  0  0  0  0  0  0
  -85.4593   31.5164   -0.0572 C   0  0  0  0  0  0  0  0  0  0  0  0
  -86.3541   30.4946    0.2020 C   0  0  0  0  0  0  0  0  0  0  0  0
  -82.4981   32.7171    0.2611 H   0  0  0  0  0  0  0  0  0  0  0  0
  -86.7765   33.1777   -1.3841 C   0  0  0  0  0  0  0  0  0  0  0  0
  -88.0175   32.7419   -0.9774 C   0  0  0  0  0  0  0  0  0  0  0  0
  -89.1203   33.2333   -1.6491 C   0  0  0  0  0  0  0  0  0  0  0  0
  -89.0353   34.1229   -2.6873 C   0  0  0  0  0  0  0  0  0  0  0  0
  -90.1602   34.6032   -3.3476 O   0  0  0  0  0  0  0  0  0  0  0  0
  -87.7789   34.5448   -3.0758 C   0  0  0  0  0  0  0  0  0  0  0  0
  -86.6709   34.0770   -2.4318 C   0  0  0  0  0  0  0  0  0  0  0  0
  -90.0672   35.2490   -4.0988 H   0  0  0  0  0  0  0  0  0  0  0  0
  -88.8088   26.2045    1.7222 C   0  0  0  0  0  0  0  0  0  0  0  0
  -87.5010   26.1856    2.2027 C   0  0  0  0  0  0  0  0  0  0  0  0
  -86.6220   27.2056    1.9369 C   0  0  0  0  0  0  0  0  0  0  0  0
  -86.9855   28.3014    1.1814 C   0  0  0  0  0  0  0  0  0  0  0  0
  -88.2742   28.3038    0.7170 C   0  0  0  0  0  0  0  0  0  0  0  0
  -89.1664   27.2850    0.9773 C   0  0  0  0  0  0  0  0  0  0  0  0
  -91.2253   23.7452    3.3188 N   0  0  0  0  0  0  0  0  0  0  0  0
  -90.4614   24.9412    3.1612 C   0  0  0  0  0  0  0  0  0  0  0  0
  -90.5775   25.8027    4.0469 O   0  0  0  0  0  0  0  0  0  0  0  0
  -89.6283   25.1052    2.0474 N   0  0  0  0  0  0  0  0  0  0  0  0
  -91.0952   23.1160    4.1223 H   0  0  0  0  0  0  0  0  0  0  0  0
  -91.9352   23.5128    2.5892 H   0  0  0  0  0  0  0  0  0  0  0  0
  -89.6241   24.2871    1.3616 H   0  0  0  0  0  0  0  0  0  0  0  0
 25 26  1  0  0  0
 26 27  2  0  0  0
 26 28  1  0  0  0
 28 19  1  0  0  0
 19 20  2  0  0  0
 20 21  1  0  0  0
 21 22  2  0  0  0
 22 23  1  0  0  0
 23 24  2  0  0  0
 22  1  1  0  0  0
  1  2  2  0  0  0
  2  3  1  0  0  0
  3  4  2  0  0  0
  4  5  1  0  0  0
  5  6  1  0  0  0
  6  7  2  0  0  0
  7 11  1  0  0  0
 11 12  2  0  0  0
 12 13  1  0  0  0
 13 14  2  0  0  0
 14 15  1  0  0  0
 14 16  1  0  0  0
 16 17  2  0  0  0
  7  8  1  0  0  0
  8  9  2  0  0  0
 24 19  1  0  0  0
  9  1  1  0  0  0
  8  4  1  0  0  0
 17 11  1  0  0  0
 25 29  1  0  0  0
 25 30  1  0  0  0
 28 31  1  0  0  0
  5 10  1  0  0  0
 15 18  1  0  0  0
M  END
> <minimizedAffinity>
-9.68855

> <CNNscore>
0.2894243896

> <CNNaffinity>
6.2844924927

> <CNN_VS>
1.8188854456

> <CNNaffinity_variance>
0.2030900419

$$$$
[H]Oc1c([H])c([H])c(-c2c([H])n([H])c3nc([H])c(-c4c([H])c([H])c(N([H])C(=O)N([H])[H])c([H])c4[H])c([H])c23)c([H])c1[H]


 31 34  0  0  0  0  0  0  0  0999 V2000
  -86.6094   27.4863    1.3378 C   0  0  0  0  0  0  0  0  0  0  0  0
  -85.7631   26.7086    2.1011 C   0  0  0  0  0  0  0  0  0  0  0  0
  -84.5199   27.1174    2.4224 N   0  0  0  0  0  0  0  0  0  0  0  0
  -84.0212   28.3084    2.0218 C   0  0  0  0  0  0  0  0  0  0  0  0
  -82.8513   28.9456    2.1915 N   0  0  0  0  0  0  0  0  0  0  0  0
  -82.8869   30.1317    1.5633 C   0  0  0  0  0  0  0  0  0  0  0  0
  -84.1263   30.2925    0.9519 C   0  0  0  0  0  0  0  0  0  0  0  0
  -84.8298   29.1459    1.2443 C   0  0  0  0  0  0  0  0  0  0  0  0
  -86.1024   28.7102    0.9240 C   0  0  0  0  0  0  0  0  0  0  0  0
  -82.0320   28.5965    2.7215 H   0  0  0  0  0  0  0  0  0  0  0  0
  -84.6507   31.3954    0.1658 C   0  0  0  0  0  0  0  0  0  0  0  0
  -83.8151   32.3354   -0.3941 C   0  0  0  0  0  0  0  0  0  0  0  0
  -84.3961   33.3560   -1.1219 C   0  0  0  0  0  0  0  0  0  0  0  0
  -85.7482   33.4726   -1.3090 C   0  0  0  0  0  0  0  0  0  0  0  0
  -86.3092   34.5091   -2.0459 O   0  0  0  0  0  0  0  0  0  0  0  0
  -86.5647   32.5166   -0.7372 C   0  0  0  0  0  0  0  0  0  0  0  0
  -86.0202   31.4969   -0.0127 C   0  0  0  0  0  0  0  0  0  0  0  0
  -87.2953   34.5678   -2.1646 H   0  0  0  0  0  0  0  0  0  0  0  0
  -90.5393   26.1545    0.2594 C   0  0  0  0  0  0  0  0  0  0  0  0
  -89.3951   25.4066   -0.0112 C   0  0  0  0  0  0  0  0  0  0  0  0
  -88.1453   25.8503    0.3419 C   0  0  0  0  0  0  0  0  0  0  0  0
  -87.9556   27.0578    0.9821 C   0  0  0  0  0  0  0  0  0  0  0  0
  -89.0906   27.7800    1.2403 C   0  0  0  0  0  0  0  0  0  0  0  0
  -90.3515   27.3448    0.8904 C   0  0  0  0  0  0  0  0  0  0  0  0
  -93.6930   25.1462   -1.6045 N   0  0  0  0  0  0  0  0  0  0  0  0
  -92.4387   25.7869   -1.3699 C   0  0  0  0  0  0  0  0  0  0  0  0
  -91.9866   26.4896   -2.2875 O   0  0  0  0  0  0  0  0  0  0  0  0
  -91.7733   25.6111   -0.1501 N   0  0  0  0  0  0  0  0  0  0  0  0
  -94.5532   25.6801   -1.7877 H   0  0  0  0  0  0  0  0  0  0  0  0
  -93.7255   24.1026   -1.5870 H   0  0  0  0  0  0  0  0  0  0  0  0
  -92.2731   24.9796    0.5506 H   0  0  0  0  0  0  0  0  0  0  0  0
 25 26  1  0  0  0
 26 27  2  0  0  0
 26 28  1  0  0  0
 28 19  1  0  0  0
 19 20  2  0  0  0
 20 21  1  0  0  0
 21 22  2  0  0  0
 22 23  1  0  0  0
 23 24  2  0  0  0
 22  1  1  0  0  0
  1  2  2  0  0  0
  2  3  1  0  0  0
  3  4  2  0  0  0
  4  5  1  0  0  0
  5  6  1  0  0  0
  6  7  2  0  0  0
  7 11  1  0  0  0
 11 12  2  0  0  0
 12 13  1  0  0  0
 13 14  2  0  0  0
 14 15  1  0  0  0
 14 16  1  0  0  0
 16 17  2  0  0  0
  7  8  1  0  0  0
  8  9  2  0  0  0
 24 19  1  0  0  0
  9  1  1  0  0  0
  8  4  1  0  0  0
 17 11  1  0  0  0
 25 29  1  0  0  0
 25 30  1  0  0  0
 28 31  1  0  0  0
  5 10  1  0  0  0
 15 18  1  0  0  0
M  END
> <minimizedAffinity>
-9.26651

> <CNNscore>
0.2873070836

> <CNNaffinity>
6.2114648819

> <CNN_VS>
1.7845978737

> <CNNaffinity_variance>
0.1089047417

$$$$
[H]Oc1c([H])c([H])c(-c2c([H])n([H])c3nc([H])c(-c4c([H])c([H])c(N([H])C(=O)N([H])[H])c([H])c4[H])c([H])c23)c([H])c1[H]


 31 34  0  0  0  0  0  0  0  0999 V2000
  -88.1607   30.6119   -1.5749 C   0  0  0  0  0  0  0  0  0  0  0  0
  -88.2817   31.9044   -2.0423 C   0  0  0  0  0  0  0  0  0  0  0  0
  -87.4217   32.8750   -1.6763 N   0  0  0  0  0  0  0  0  0  0  0  0
  -86.3894   32.6501   -0.8328 C   0  0  0  0  0  0  0  0  0  0  0  0
  -85.4121   33.4117   -0.3150 N   0  0  0  0  0  0  0  0  0  0  0  0
  -84.6357   32.6670    0.4884 C   0  0  0  0  0  0  0  0  0  0  0  0
  -85.1120   31.3599    0.5074 C   0  0  0  0  0  0  0  0  0  0  0  0
  -86.2103   31.3588   -0.3226 C   0  0  0  0  0  0  0  0  0  0  0  0
  -87.1024   30.3755   -0.7087 C   0  0  0  0  0  0  0  0  0  0  0  0
  -85.2594   34.4213   -0.4928 H   0  0  0  0  0  0  0  0  0  0  0  0
  -84.6187   30.1897    1.2121 C   0  0  0  0  0  0  0  0  0  0  0  0
  -85.4750   29.2041    1.6486 C   0  0  0  0  0  0  0  0  0  0  0  0
  -84.9242   28.1272    2.3164 C   0  0  0  0  0  0  0  0  0  0  0  0
  -83.5824   27.9981    2.5600 C   0  0  0  0  0  0  0  0  0  0  0  0
  -83.0520   26.9044    3.2344 O   0  0  0  0  0  0  0  0  0  0  0  0
  -82.7446   29.0003    2.1115 C   0  0  0  0  0  0  0  0  0  0  0  0
  -83.2590   30.0763    1.4491 C   0  0  0  0  0  0  0  0  0  0  0  0
  -82.0726   26.8381    3.3967 H   0  0  0  0  0  0  0  0  0  0  0  0
  -90.9354   27.5499   -2.7176 C   0  0  0  0  0  0  0  0  0  0  0  0
  -91.3098   28.8848   -2.5775 C   0  0  0  0  0  0  0  0  0  0  0  0
  -90.4065   29.8507   -2.2105 C   0  0  0  0  0  0  0  0  0  0  0  0
  -89.0826   29.5521   -1.9612 C   0  0  0  0  0  0  0  0  0  0  0  0
  -88.7319   28.2356   -2.1034 C   0  0  0  0  0  0  0  0  0  0  0  0
  -89.6303   27.2563   -2.4715 C   0  0  0  0  0  0  0  0  0  0  0  0
  -93.4979   25.4276   -4.5523 N   0  0  0  0  0  0  0  0  0  0  0  0
  -92.4748   26.4061   -4.3668 C   0  0  0  0  0  0  0  0  0  0  0  0
  -92.0974   27.0226   -5.3757 O   0  0  0  0  0  0  0  0  0  0  0  0
  -91.9412   26.6369   -3.0926 N   0  0  0  0  0  0  0  0  0  0  0  0
  -94.4327   25.6748   -4.9040 H   0  0  0  0  0  0  0  0  0  0  0  0
  -93.2786   24.4334   -4.3204 H   0  0  0  0  0  0  0  0  0  0  0  0
  -92.3551   26.0358   -2.3135 H   0  0  0  0  0  0  0  0  0  0  0  0
 25 26  1  0  0  0
 26 27  2  0  0  0
 26 28  1  0  0  0
 28 19  1  0  0  0
 19 20  2  0  0  0
 20 21  1  0  0  0
 21 22  2  0  0  0
 22 23  1  0  0  0
 23 24  2  0  0  0
 22  1  1  0  0  0
  1  2  2  0  0  0
  2  3  1  0  0  0
  3  4  2  0  0  0
  4  5  1  0  0  0
  5  6  1  0  0  0
  6  7  2  0  0  0
  7 11  1  0  0  0
 11 12  2  0  0  0
 12 13  1  0  0  0
 13 14  2  0  0  0
 14 15  1  0  0  0
 14 16  1  0  0  0
 16 17  2  0  0  0
  7  8  1  0  0  0
  8  9  2  0  0  0
 24 19  1  0  0  0
  9  1  1  0  0  0
  8  4  1  0  0  0
 17 11  1  0  0  0
 25 29  1  0  0  0
 25 30  1  0  0  0
 28 31  1  0  0  0
  5 10  1  0  0  0
 15 18  1  0  0  0
M  END
> <minimizedAffinity>
-9.88181

> <CNNscore>
0.2808023691

> <CNNaffinity>
6.2524542809

> <CNN_VS>
1.7557039261

> <CNNaffinity_variance>
0.4037869573

$$$$
[H]N=C(OC([H])([H])[H])c1nc2c([H])c([H])c3nc([H])nc(N([H])c4c([H])c([H])c([H])c(Cl)c4[H])c3c2s1


 27 30  0  0  0  0  0  0  0  0999 V2000
  -86.1625   33.2013   -1.6668 C   0  0  0  0  0  0  0  0  0  0  0  0
  -84.9013   33.3189   -1.3503 N   0  0  0  0  0  0  0  0  0  0  0  0
  -84.3296   32.4621   -0.5488 C   0  0  0  0  0  0  0  0  0  0  0  0
  -82.9750   32.5003   -0.1532 C   0  0  0  0  0  0  0  0  0  0  0  0
  -82.5187   31.5252    0.6896 C   0  0  0  0  0  0  0  0  0  0  0  0
  -83.2826   30.4986    1.1888 C   0  0  0  0  0  0  0  0  0  0  0  0
  -82.8257   29.5573    1.9985 N   0  0  0  0  0  0  0  0  0  0  0  0
  -83.6734   28.5790    2.4287 C   0  0  0  0  0  0  0  0  0  0  0  0
  -84.9452   28.5435    2.0586 N   0  0  0  0  0  0  0  0  0  0  0  0
  -85.4946   29.4770    1.2262 C   0  0  0  0  0  0  0  0  0  0  0  0
  -84.6306   30.4473    0.8055 C   0  0  0  0  0  0  0  0  0  0  0  0
  -85.1065   31.4404   -0.0571 C   0  0  0  0  0  0  0  0  0  0  0  0
  -86.6023   31.8082   -0.7998 S   0  0  0  0  0  0  0  0  0  0  0  0
  -87.0111   34.0401   -2.5405 C   0  0  0  0  0  0  0  0  0  0  0  0
  -86.5057   34.6128   -3.5501 N   0  0  0  0  0  0  0  0  0  0  0  0
  -85.5094   34.5409   -3.8264 H   0  0  0  0  0  0  0  0  0  0  0  0
  -89.3270   34.5062   -3.1988 C   0  0  0  0  0  0  0  0  0  0  0  0
  -88.3272   34.1791   -2.2384 O   0  0  0  0  0  0  0  0  0  0  0  0
  -86.8557   29.4318    0.9137 N   0  0  0  0  0  0  0  0  0  0  0  0
  -87.4896   30.1993    0.8883 H   0  0  0  0  0  0  0  0  0  0  0  0
  -87.4696   28.1612    0.6047 C   0  0  0  0  0  0  0  0  0  0  0  0
  -87.2972   27.6101   -0.6229 C   0  0  0  0  0  0  0  0  0  0  0  0
  -87.8605   26.3634   -0.9213 C   0  0  0  0  0  0  0  0  0  0  0  0
  -88.5890   25.6955    0.0246 C   0  0  0  0  0  0  0  0  0  0  0  0
  -88.7446   26.2869    1.2620 C   0  0  0  0  0  0  0  0  0  0  0  0
  -89.6779   25.4198    2.4555 Cl  0  0  0  0  0  0  0  0  0  0  0  0
  -88.2054   27.5012    1.5790 C   0  0  0  0  0  0  0  0  0  0  0  0
 17 18  1  0  0  0
 18 14  1  0  0  0
 14 15  2  0  0  0
 14  1  1  0  0  0
  1  2  2  0  0  0
  2  3  1  0  0  0
  3  4  2  0  0  0
  4  5  1  0  0  0
  5  6  2  0  0  0
  6  7  1  0  0  0
  7  8  2  0  0  0
  8  9  1  0  0  0
  9 10  2  0  0  0
 10 19  1  0  0  0
 19 21  1  0  0  0
 21 22  2  0  0  0
 22 23  1  0  0  0
 23 24  2  0  0  0
 24 25  1  0  0  0
 25 26  1  0  0  0
 25 27  2  0  0  0
 10 11  1  0  0  0
 11 12  2  0  0  0
 12 13  1  0  0  0
 13  1  1  0  0  0
 12  3  1  0  0  0
 11  6  1  0  0  0
 27 21  1  0  0  0
 15 16  1  0  0  0
 19 20  1  0  0  0
M  END
> <minimizedAffinity>
-8.72941

> <CNNscore>
0.7751699090

> <CNNaffinity>
7.1960549355

> <CNN_VS>
5.5781650543

> <CNNaffinity_variance>
0.2048514783

$$$$
[H]N=C(OC([H])([H])[H])c1nc2c([H])c([H])c3nc([H])nc(N([H])c4c([H])c([H])c([H])c(Cl)c4[H])c3c2s1


 27 30  0  0  0  0  0  0  0  0999 V2000
  -86.4575   32.7159   -1.4134 C   0  0  0  0  0  0  0  0  0  0  0  0
  -85.4938   32.8324   -0.5402 N   0  0  0  0  0  0  0  0  0  0  0  0
  -85.1458   31.8236    0.2111 C   0  0  0  0  0  0  0  0  0  0  0  0
  -84.1160   31.8483    1.1765 C   0  0  0  0  0  0  0  0  0  0  0  0
  -83.8635   30.7056    1.8836 C   0  0  0  0  0  0  0  0  0  0  0  0
  -84.5405   29.5207    1.7279 C   0  0  0  0  0  0  0  0  0  0  0  0
  -84.2806   28.4200    2.4146 N   0  0  0  0  0  0  0  0  0  0  0  0
  -85.0130   27.2949    2.1728 C   0  0  0  0  0  0  0  0  0  0  0  0
  -85.9805   27.2717    1.2677 N   0  0  0  0  0  0  0  0  0  0  0  0
  -86.3114   28.3644    0.5176 C   0  0  0  0  0  0  0  0  0  0  0  0
  -85.5669   29.4803    0.7732 C   0  0  0  0  0  0  0  0  0  0  0  0
  -85.8321   30.6445    0.0443 C   0  0  0  0  0  0  0  0  0  0  0  0
  -86.9253   31.0982   -1.1898 S   0  0  0  0  0  0  0  0  0  0  0  0
  -87.0175   33.7074   -2.3570 C   0  0  0  0  0  0  0  0  0  0  0  0
  -86.2918   34.1803   -3.2802 N   0  0  0  0  0  0  0  0  0  0  0  0
  -85.3005   33.9215   -3.4364 H   0  0  0  0  0  0  0  0  0  0  0  0
  -89.3486   33.7319   -3.1183 C   0  0  0  0  0  0  0  0  0  0  0  0
  -88.3109   34.0929   -2.2117 O   0  0  0  0  0  0  0  0  0  0  0  0
  -87.3800   28.3078   -0.3808 N   0  0  0  0  0  0  0  0  0  0  0  0
  -87.3249   28.2607   -1.3739 H   0  0  0  0  0  0  0  0  0  0  0  0
  -88.7328   28.3368    0.1250 C   0  0  0  0  0  0  0  0  0  0  0  0
  -88.9764   28.0048    1.4177 C   0  0  0  0  0  0  0  0  0  0  0  0
  -90.2797   28.0618    1.9265 C   0  0  0  0  0  0  0  0  0  0  0  0
  -91.3143   28.4517    1.1209 C   0  0  0  0  0  0  0  0  0  0  0  0
  -91.0295   28.7809   -0.1888 C   0  0  0  0  0  0  0  0  0  0  0  0
  -92.3628   29.2753   -1.2015 Cl  0  0  0  0  0  0  0  0  0  0  0  0
  -89.7677   28.7345   -0.7099 C   0  0  0  0  0  0  0  0  0  0  0  0
 17 18  1  0  0  0
 18 14  1  0  0  0
 14 15  2  0  0  0
 14  1  1  0  0  0
  1  2  2  0  0  0
  2  3  1  0  0  0
  3  4  2  0  0  0
  4  5  1  0  0  0
  5  6  2  0  0  0
  6  7  1  0  0  0
  7  8  2  0  0  0
  8  9  1  0  0  0
  9 10  2  0  0  0
 10 19  1  0  0  0
 19 21  1  0  0  0
 21 22  2  0  0  0
 22 23  1  0  0  0
 23 24  2  0  0  0
 24 25  1  0  0  0
 25 26  1  0  0  0
 25 27  2  0  0  0
 10 11  1  0  0  0
 11 12  2  0  0  0
 12 13  1  0  0  0
 13  1  1  0  0  0
 12  3  1  0  0  0
 11  6  1  0  0  0
 27 21  1  0  0  0
 15 16  1  0  0  0
 19 20  1  0  0  0
M  END
> <minimizedAffinity>
-7.71861

> <CNNscore>
0.6982747316

> <CNNaffinity>
7.0764017105

> <CNN_VS>
4.9412727356

> <CNNaffinity_variance>
0.0943598300

$$$$
[H]N=C(OC([H])([H])[H])c1nc2c([H])c([H])c3nc([H])nc(N([H])c4c([H])c([H])c([H])c(Cl)c4[H])c3c2s1


 27 30  0  0  0  0  0  0  0  0999 V2000
  -87.4561   31.7961   -1.1293 C   0  0  0  0  0  0  0  0  0  0  0  0
  -86.3768   32.2415   -0.5450 N   0  0  0  0  0  0  0  0  0  0  0  0
  -85.6563   31.4619    0.2142 C   0  0  0  0  0  0  0  0  0  0  0  0
  -84.4735   31.8471    0.8819 C   0  0  0  0  0  0  0  0  0  0  0  0
  -83.8233   30.9124    1.6388 C   0  0  0  0  0  0  0  0  0  0  0  0
  -84.2343   29.6122    1.8038 C   0  0  0  0  0  0  0  0  0  0  0  0
  -83.5909   28.7160    2.5342 N   0  0  0  0  0  0  0  0  0  0  0  0
  -84.0866   27.4483    2.6228 C   0  0  0  0  0  0  0  0  0  0  0  0
  -85.1974   27.0867    1.9973 N   0  0  0  0  0  0  0  0  0  0  0  0
  -85.9203   27.9509    1.2247 C   0  0  0  0  0  0  0  0  0  0  0  0
  -85.4079   29.2144    1.1474 C   0  0  0  0  0  0  0  0  0  0  0  0
  -86.0798   30.1637    0.3701 C   0  0  0  0  0  0  0  0  0  0  0  0
  -87.4887   30.1826   -0.5989 S   0  0  0  0  0  0  0  0  0  0  0  0
  -88.4159   32.4858   -2.0182 C   0  0  0  0  0  0  0  0  0  0  0  0
  -89.5857   32.7413   -1.6072 N   0  0  0  0  0  0  0  0  0  0  0  0
  -89.9411   32.4984   -0.6644 H   0  0  0  0  0  0  0  0  0  0  0  0
  -87.7944   31.8946   -4.3157 C   0  0  0  0  0  0  0  0  0  0  0  0
  -88.0179   32.8339   -3.2684 O   0  0  0  0  0  0  0  0  0  0  0  0
  -87.1181   27.5391    0.6350 N   0  0  0  0  0  0  0  0  0  0  0  0
  -87.3440   27.5548   -0.3347 H   0  0  0  0  0  0  0  0  0  0  0  0
  -88.1873   27.0468    1.4724 C   0  0  0  0  0  0  0  0  0  0  0  0
  -88.8133   25.8862    1.1535 C   0  0  0  0  0  0  0  0  0  0  0  0
  -89.8283   25.3835    1.9768 C   0  0  0  0  0  0  0  0  0  0  0  0
  -90.1943   26.0620    3.1069 C   0  0  0  0  0  0  0  0  0  0  0  0
  -89.5365   27.2397    3.3993 C   0  0  0  0  0  0  0  0  0  0  0  0
  -90.0178   28.0915    4.8451 Cl  0  0  0  0  0  0  0  0  0  0  0  0
  -88.5431   27.7515    2.6139 C   0  0  0  0  0  0  0  0  0  0  0  0
 17 18  1  0  0  0
 18 14  1  0  0  0
 14 15  2  0  0  0
 14  1  1  0  0  0
  1  2  2  0  0  0
  2  3  1  0  0  0
  3  4  2  0  0  0
  4  5  1  0  0  0
  5  6  2  0  0  0
  6  7  1  0  0  0
  7  8  2  0  0  0
  8  9  1  0  0  0
  9 10  2  0  0  0
 10 19  1  0  0  0
 19 21  1  0  0  0
 21 22  2  0  0  0
 22 23  1  0  0  0
 23 24  2  0  0  0
 24 25  1  0  0  0
 25 26  1  0  0  0
 25 27  2  0  0  0
 10 11  1  0  0  0
 11 12  2  0  0  0
 12 13  1  0  0  0
 13  1  1  0  0  0
 12  3  1  0  0  0
 11  6  1  0  0  0
 27 21  1  0  0  0
 15 16  1  0  0  0
 19 20  1  0  0  0
M  END
> <minimizedAffinity>
-8.25581

> <CNNscore>
0.6443629265

> <CNNaffinity>
7.0125603676

> <CNN_VS>
4.5186338425

> <CNNaffinity_variance>
0.1280180961

$$$$
[H]N=C(OC([H])([H])[H])c1nc2c([H])c([H])c3nc([H])nc(N([H])c4c([H])c([H])c([H])c(Cl)c4[H])c3c2s1


 27 30  0  0  0  0  0  0  0  0999 V2000
  -87.1056   27.1125    1.9071 C   0  0  0  0  0  0  0  0  0  0  0  0
  -85.8538   27.0148    2.2651 N   0  0  0  0  0  0  0  0  0  0  0  0
  -85.0113   27.9821    2.0244 C   0  0  0  0  0  0  0  0  0  0  0  0
  -83.6442   27.9737    2.3767 C   0  0  0  0  0  0  0  0  0  0  0  0
  -82.8876   29.0681    2.0619 C   0  0  0  0  0  0  0  0  0  0  0  0
  -83.3571   30.1891    1.4219 C   0  0  0  0  0  0  0  0  0  0  0  0
  -82.6145   31.2444    1.1296 N   0  0  0  0  0  0  0  0  0  0  0  0
  -83.1877   32.3083    0.4970 C   0  0  0  0  0  0  0  0  0  0  0  0
  -84.4705   32.3160    0.1651 N   0  0  0  0  0  0  0  0  0  0  0  0
  -85.3046   31.2672    0.4305 C   0  0  0  0  0  0  0  0  0  0  0  0
  -84.7130   30.2124    1.0648 C   0  0  0  0  0  0  0  0  0  0  0  0
  -85.4954   29.0974    1.3833 C   0  0  0  0  0  0  0  0  0  0  0  0
  -87.1335   28.6493    1.1838 S   0  0  0  0  0  0  0  0  0  0  0  0
  -88.2237   26.1584    2.0703 C   0  0  0  0  0  0  0  0  0  0  0  0
  -88.5323   25.3792    1.1216 N   0  0  0  0  0  0  0  0  0  0  0  0
  -88.0492   25.3525    0.2050 H   0  0  0  0  0  0  0  0  0  0  0  0
  -89.7050   27.2184    3.7124 C   0  0  0  0  0  0  0  0  0  0  0  0
  -88.9019   26.1383    3.2460 O   0  0  0  0  0  0  0  0  0  0  0  0
  -86.6354   31.2973    0.0060 N   0  0  0  0  0  0  0  0  0  0  0  0
  -87.4136   30.8579    0.4451 H   0  0  0  0  0  0  0  0  0  0  0  0
  -86.9771   32.0103   -1.2030 C   0  0  0  0  0  0  0  0  0  0  0  0
  -86.8707   33.3623   -1.2412 C   0  0  0  0  0  0  0  0  0  0  0  0
  -87.1678   34.0598   -2.4185 C   0  0  0  0  0  0  0  0  0  0  0  0
  -87.5683   33.3802   -3.5362 C   0  0  0  0  0  0  0  0  0  0  0  0
  -87.6664   32.0055   -3.4603 C   0  0  0  0  0  0  0  0  0  0  0  0
  -88.1796   31.1560   -4.8964 Cl  0  0  0  0  0  0  0  0  0  0  0  0
  -87.3822   31.3011   -2.3251 C   0  0  0  0  0  0  0  0  0  0  0  0
 17 18  1  0  0  0
 18 14  1  0  0  0
 14 15  2  0  0  0
 14  1  1  0  0  0
  1  2  2  0  0  0
  2  3  1  0  0  0
  3  4  2  0  0  0
  4  5  1  0  0  0
  5  6  2  0  0  0
  6  7  1  0  0  0
  7  8  2  0  0  0
  8  9  1  0  0  0
  9 10  2  0  0  0
 10 19  1  0  0  0
 19 21  1  0  0  0
 21 22  2  0  0  0
 22 23  1  0  0  0
 23 24  2  0  0  0
 24 25  1  0  0  0
 25 26  1  0  0  0
 25 27  2  0  0  0
 10 11  1  0  0  0
 11 12  2  0  0  0
 12 13  1  0  0  0
 13  1  1  0  0  0
 12  3  1  0  0  0
 11  6  1  0  0  0
 27 21  1  0  0  0
 15 16  1  0  0  0
 19 20  1  0  0  0
M  END
> <minimizedAffinity>
-9.19889

> <CNNscore>
0.5800882578

> <CNNaffinity>
7.0140647888

> <CNN_VS>
4.0687766075

> <CNNaffinity_variance>
0.1073792800

$$$$
[H]N=C(OC([H])([H])[H])c1nc2c([H])c([H])c3nc([H])nc(N([H])c4c([H])c([H])c([H])c(Cl)c4[H])c3c2s1


 27 30  0  0  0  0  0  0  0  0999 V2000
  -84.9312   31.4069    0.3854 C   0  0  0  0  0  0  0  0  0  0  0  0
  -85.5842   32.3958   -0.1624 N   0  0  0  0  0  0  0  0  0  0  0  0
  -86.7846   32.2204   -0.6435 C   0  0  0  0  0  0  0  0  0  0  0  0
  -87.5715   33.2251   -1.2473 C   0  0  0  0  0  0  0  0  0  0  0  0
  -88.8172   32.8880   -1.6991 C   0  0  0  0  0  0  0  0  0  0  0  0
  -89.3710   31.6341   -1.6117 C   0  0  0  0  0  0  0  0  0  0  0  0
  -90.5812   31.3237   -2.0472 N   0  0  0  0  0  0  0  0  0  0  0  0
  -91.0342   30.0452   -1.9024 C   0  0  0  0  0  0  0  0  0  0  0  0
  -90.2954   29.1017   -1.3369 N   0  0  0  0  0  0  0  0  0  0  0  0
  -89.0368   29.3397   -0.8621 C   0  0  0  0  0  0  0  0  0  0  0  0
  -88.6014   30.6250   -1.0151 C   0  0  0  0  0  0  0  0  0  0  0  0
  -87.3258   30.9605   -0.5492 C   0  0  0  0  0  0  0  0  0  0  0  0
  -86.0471   30.1354    0.2308 S   0  0  0  0  0  0  0  0  0  0  0  0
  -83.5803   31.3696    0.9862 C   0  0  0  0  0  0  0  0  0  0  0  0
  -82.6620   32.1065    0.5212 N   0  0  0  0  0  0  0  0  0  0  0  0
  -82.7815   32.7585   -0.2756 H   0  0  0  0  0  0  0  0  0  0  0  0
  -82.7094   29.2724    1.9121 C   0  0  0  0  0  0  0  0  0  0  0  0
  -83.3518   30.5378    2.0343 O   0  0  0  0  0  0  0  0  0  0  0  0
  -88.2734   28.2977   -0.3295 N   0  0  0  0  0  0  0  0  0  0  0  0
  -87.3478   28.0399   -0.5910 H   0  0  0  0  0  0  0  0  0  0  0  0
  -88.8412   27.4582    0.6998 C   0  0  0  0  0  0  0  0  0  0  0  0
  -89.1081   26.1546    0.4352 C   0  0  0  0  0  0  0  0  0  0  0  0
  -89.6276   25.3243    1.4360 C   0  0  0  0  0  0  0  0  0  0  0  0
  -89.8697   25.8250    2.6858 C   0  0  0  0  0  0  0  0  0  0  0  0
  -89.5872   27.1558    2.9185 C   0  0  0  0  0  0  0  0  0  0  0  0
  -89.9034   27.7766    4.5192 Cl  0  0  0  0  0  0  0  0  0  0  0  0
  -89.0798   27.9870    1.9606 C   0  0  0  0  0  0  0  0  0  0  0  0
 17 18  1  0  0  0
 18 14  1  0  0  0
 14 15  2  0  0  0
 14  1  1  0  0  0
  1  2  2  0  0  0
  2  3  1  0  0  0
  3  4  2  0  0  0
  4  5  1  0  0  0
  5  6  2  0  0  0
  6  7  1  0  0  0
  7  8  2  0  0  0
  8  9  1  0  0  0
  9 10  2  0  0  0
 10 19  1  0  0  0
 19 21  1  0  0  0
 21 22  2  0  0  0
 22 23  1  0  0  0
 23 24  2  0  0  0
 24 25  1  0  0  0
 25 26  1  0  0  0
 25 27  2  0  0  0
 10 11  1  0  0  0
 11 12  2  0  0  0
 12 13  1  0  0  0
 13  1  1  0  0  0
 12  3  1  0  0  0
 11  6  1  0  0  0
 27 21  1  0  0  0
 15 16  1  0  0  0
 19 20  1  0  0  0
M  END
> <minimizedAffinity>
-7.57291

> <CNNscore>
0.3556993604

> <CNNaffinity>
6.7736043930

> <CNN_VS>
2.4093668461

> <CNNaffinity_variance>
0.0582885668

$$$$
[H]N=C(OC([H])([H])[H])c1nc2c([H])c([H])c3nc([H])nc(N([H])c4c([H])c([H])c([H])c(Cl)c4[H])c3c2s1


 27 30  0  0  0  0  0  0  0  0999 V2000
  -88.8353   27.9522   -1.9307 C   0  0  0  0  0  0  0  0  0  0  0  0
  -89.0235   28.6845   -2.9952 N   0  0  0  0  0  0  0  0  0  0  0  0
  -88.5500   29.8987   -3.0647 C   0  0  0  0  0  0  0  0  0  0  0  0
  -88.6947   30.7638   -4.1708 C   0  0  0  0  0  0  0  0  0  0  0  0
  -88.1349   32.0091   -4.0967 C   0  0  0  0  0  0  0  0  0  0  0  0
  -87.4343   32.4917   -3.0184 C   0  0  0  0  0  0  0  0  0  0  0  0
  -86.8917   33.6971   -2.9632 N   0  0  0  0  0  0  0  0  0  0  0  0
  -86.2100   34.0706   -1.8423 C   0  0  0  0  0  0  0  0  0  0  0  0
  -86.0751   33.2593   -0.8033 N   0  0  0  0  0  0  0  0  0  0  0  0
  -86.6049   32.0004   -0.7804 C   0  0  0  0  0  0  0  0  0  0  0  0
  -87.2825   31.6444   -1.9113 C   0  0  0  0  0  0  0  0  0  0  0  0
  -87.8513   30.3681   -1.9781 C   0  0  0  0  0  0  0  0  0  0  0  0
  -87.9394   29.0075   -0.9460 S   0  0  0  0  0  0  0  0  0  0  0  0
  -89.2735   26.5721   -1.6302 C   0  0  0  0  0  0  0  0  0  0  0  0
  -88.4471   25.6163   -1.7076 N   0  0  0  0  0  0  0  0  0  0  0  0
  -87.4513   25.7234   -1.9744 H   0  0  0  0  0  0  0  0  0  0  0  0
  -91.3333   27.2744   -0.4996 C   0  0  0  0  0  0  0  0  0  0  0  0
  -90.5657   26.3576   -1.2736 O   0  0  0  0  0  0  0  0  0  0  0  0
  -86.4882   31.2051    0.3624 N   0  0  0  0  0  0  0  0  0  0  0  0
  -87.2254   30.9071    0.9619 H   0  0  0  0  0  0  0  0  0  0  0  0
  -85.1814   30.7523    0.7797 C   0  0  0  0  0  0  0  0  0  0  0  0
  -84.0886   31.5111    0.5144 C   0  0  0  0  0  0  0  0  0  0  0  0
  -82.8218   31.0970    0.9439 C   0  0  0  0  0  0  0  0  0  0  0  0
  -82.6804   29.9235    1.6325 C   0  0  0  0  0  0  0  0  0  0  0  0
  -83.8138   29.1768    1.8834 C   0  0  0  0  0  0  0  0  0  0  0  0
  -83.6132   27.6821    2.7628 Cl  0  0  0  0  0  0  0  0  0  0  0  0
  -85.0607   29.5579    1.4763 C   0  0  0  0  0  0  0  0  0  0  0  0
 17 18  1  0  0  0
 18 14  1  0  0  0
 14 15  2  0  0  0
 14  1  1  0  0  0
  1  2  2  0  0  0
  2  3  1  0  0  0
  3  4  2  0  0  0
  4  5  1  0  0  0
  5  6  2  0  0  0
  6  7  1  0  0  0
  7  8  2  0  0  0
  8  9  1  0  0  0
  9 10  2  0  0  0
 10 19  1  0  0  0
 19 21  1  0  0  0
 21 22  2  0  0  0
 22 23  1  0  0  0
 23 24  2  0  0  0
 24 25  1  0  0  0
 25 26  1  0  0  0
 25 27  2  0  0  0
 10 11  1  0  0  0
 11 12  2  0  0  0
 12 13  1  0  0  0
 13  1  1  0  0  0
 12  3  1  0  0  0
 11  6  1  0  0  0
 27 21  1  0  0  0
 15 16  1  0  0  0
 19 20  1  0  0  0
M  END
> <minimizedAffinity>
-8.89759

> <CNNscore>
0.2941288054

> <CNNaffinity>
6.3728914261

> <CNN_VS>
1.8744509220

> <CNNaffinity_variance>
0.4921872020

$$$$
[H]N=C(OC([H])([H])[H])c1nc2c([H])c([H])c3nc([H])nc(N([H])c4c([H])c([H])c([H])c(Cl)c4[H])c3c2s1


 27 30  0  0  0  0  0  0  0  0999 V2000
  -87.2774   27.6240    1.3605 C   0  0  0  0  0  0  0  0  0  0  0  0
  -86.0237   27.7927    1.6838 N   0  0  0  0  0  0  0  0  0  0  0  0
  -85.3808   28.8722    1.3306 C   0  0  0  0  0  0  0  0  0  0  0  0
  -84.0306   29.1489    1.6364 C   0  0  0  0  0  0  0  0  0  0  0  0
  -83.4969   30.3301    1.2010 C   0  0  0  0  0  0  0  0  0  0  0  0
  -84.1780   31.2808    0.4806 C   0  0  0  0  0  0  0  0  0  0  0  0
  -83.6505   32.4231    0.0716 N   0  0  0  0  0  0  0  0  0  0  0  0
  -84.4226   33.2995   -0.6330 C   0  0  0  0  0  0  0  0  0  0  0  0
  -85.6895   33.0394   -0.9214 N   0  0  0  0  0  0  0  0  0  0  0  0
  -86.3086   31.8840   -0.5366 C   0  0  0  0  0  0  0  0  0  0  0  0
  -85.5200   31.0201    0.1683 C   0  0  0  0  0  0  0  0  0  0  0  0
  -86.0751   29.8145    0.6100 C   0  0  0  0  0  0  0  0  0  0  0  0
  -87.6037   29.0553    0.5056 S   0  0  0  0  0  0  0  0  0  0  0  0
  -88.1948   26.4994    1.6446 C   0  0  0  0  0  0  0  0  0  0  0  0
  -88.0599   25.8280    2.7093 N   0  0  0  0  0  0  0  0  0  0  0  0
  -87.3327   26.0066    3.4259 H   0  0  0  0  0  0  0  0  0  0  0  0
  -90.5601   26.2012    1.0694 C   0  0  0  0  0  0  0  0  0  0  0  0
  -89.1722   26.2085    0.7486 O   0  0  0  0  0  0  0  0  0  0  0  0
  -87.6283   31.6285   -0.9175 N   0  0  0  0  0  0  0  0  0  0  0  0
  -88.3554   31.2597   -0.3457 H   0  0  0  0  0  0  0  0  0  0  0  0
  -88.0357   31.8891   -2.2787 C   0  0  0  0  0  0  0  0  0  0  0  0
  -87.7070   31.0122   -3.2603 C   0  0  0  0  0  0  0  0  0  0  0  0
  -88.1256   31.2390   -4.5771 C   0  0  0  0  0  0  0  0  0  0  0  0
  -88.8676   32.3476   -4.8801 C   0  0  0  0  0  0  0  0  0  0  0  0
  -89.1823   33.2183   -3.8564 C   0  0  0  0  0  0  0  0  0  0  0  0
  -90.1292   34.6276   -4.2625 Cl  0  0  0  0  0  0  0  0  0  0  0  0
  -88.7872   33.0206   -2.5639 C   0  0  0  0  0  0  0  0  0  0  0  0
 17 18  1  0  0  0
 18 14  1  0  0  0
 14 15  2  0  0  0
 14  1  1  0  0  0
  1  2  2  0  0  0
  2  3  1  0  0  0
  3  4  2  0  0  0
  4  5  1  0  0  0
  5  6  2  0  0  0
  6  7  1  0  0  0
  7  8  2  0  0  0
  8  9  1  0  0  0
  9 10  2  0  0  0
 10 19  1  0  0  0
 19 21  1  0  0  0
 21 22  2  0  0  0
 22 23  1  0  0  0
 23 24  2  0  0  0
 24 25  1  0  0  0
 25 26  1  0  0  0
 25 27  2  0  0  0
 10 11  1  0  0  0
 11 12  2  0  0  0
 12 13  1  0  0  0
 13  1  1  0  0  0
 12  3  1  0  0  0
 11  6  1  0  0  0
 27 21  1  0  0  0
 15 16  1  0  0  0
 19 20  1  0  0  0
M  END
> <minimizedAffinity>
-8.13391

> <CNNscore>
0.2937615216

> <CNNaffinity>
6.6110944748

> <CNN_VS>
1.9420851469

> <CNNaffinity_variance>
0.2054897100

$$$$
[H]N=C(OC([H])([H])[H])c1nc2c([H])c([H])c3nc([H])nc(N([H])c4c([H])c([H])c([H])c(Cl)c4[H])c3c2s1


 27 30  0  0  0  0  0  0  0  0999 V2000
  -87.3630   27.0212    1.9411 C   0  0  0  0  0  0  0  0  0  0  0  0
  -86.1090   26.9698    2.3010 N   0  0  0  0  0  0  0  0  0  0  0  0
  -85.2930   27.9507    2.0264 C   0  0  0  0  0  0  0  0  0  0  0  0
  -83.9262   27.9914    2.3774 C   0  0  0  0  0  0  0  0  0  0  0  0
  -83.1995   29.0945    2.0244 C   0  0  0  0  0  0  0  0  0  0  0  0
  -83.6992   30.1797    1.3468 C   0  0  0  0  0  0  0  0  0  0  0  0
  -82.9855   31.2440    1.0176 N   0  0  0  0  0  0  0  0  0  0  0  0
  -83.5874   32.2696    0.3494 C   0  0  0  0  0  0  0  0  0  0  0  0
  -84.8699   32.2312    0.0186 N   0  0  0  0  0  0  0  0  0  0  0  0
  -85.6753   31.1699    0.3207 C   0  0  0  0  0  0  0  0  0  0  0  0
  -85.0553   30.1539    0.9904 C   0  0  0  0  0  0  0  0  0  0  0  0
  -85.8072   29.0298    1.3478 C   0  0  0  0  0  0  0  0  0  0  0  0
  -87.4326   28.5309    1.1654 S   0  0  0  0  0  0  0  0  0  0  0  0
  -88.4549   26.0434    2.1381 C   0  0  0  0  0  0  0  0  0  0  0  0
  -88.8294   25.3126    1.1746 N   0  0  0  0  0  0  0  0  0  0  0  0
  -88.4199   25.3431    0.2230 H   0  0  0  0  0  0  0  0  0  0  0  0
  -89.7906   27.0000    3.9588 C   0  0  0  0  0  0  0  0  0  0  0  0
  -89.0378   25.9492    3.3604 O   0  0  0  0  0  0  0  0  0  0  0  0
  -87.0064   31.1494   -0.1033 N   0  0  0  0  0  0  0  0  0  0  0  0
  -87.8167   31.0871    0.4721 H   0  0  0  0  0  0  0  0  0  0  0  0
  -87.3004   31.2020   -1.5166 C   0  0  0  0  0  0  0  0  0  0  0  0
  -87.6099   30.0619   -2.1836 C   0  0  0  0  0  0  0  0  0  0  0  0
  -87.9288   30.1070   -3.5464 C   0  0  0  0  0  0  0  0  0  0  0  0
  -87.9283   31.3022   -4.2120 C   0  0  0  0  0  0  0  0  0  0  0  0
  -87.6074   32.4413   -3.5017 C   0  0  0  0  0  0  0  0  0  0  0  0
  -87.6114   33.9567   -4.3684 Cl  0  0  0  0  0  0  0  0  0  0  0  0
  -87.2932   32.4251   -2.1725 C   0  0  0  0  0  0  0  0  0  0  0  0
 17 18  1  0  0  0
 18 14  1  0  0  0
 14 15  2  0  0  0
 14  1  1  0  0  0
  1  2  2  0  0  0
  2  3  1  0  0  0
  3  4  2  0  0  0
  4  5  1  0  0  0
  5  6  2  0  0  0
  6  7  1  0  0  0
  7  8  2  0  0  0
  8  9  1  0  0  0
  9 10  2  0  0  0
 10 19  1  0  0  0
 19 21  1  0  0  0
 21 22  2  0  0  0
 22 23  1  0  0  0
 23 24  2  0  0  0
 24 25  1  0  0  0
 25 26  1  0  0  0
 25 27  2  0  0  0
 10 11  1  0  0  0
 11 12  2  0  0  0
 12 13  1  0  0  0
 13  1  1  0  0  0
 12  3  1  0  0  0
 11  6  1  0  0  0
 27 21  1  0  0  0
 15 16  1  0  0  0
 19 20  1  0  0  0
M  END
> <minimizedAffinity>
-8.94602

> <CNNscore>
0.2936811447

> <CNNaffinity>
6.7072038651

> <CNN_VS>
1.9697792530

> <CNNaffinity_variance>
0.1973639429

$$$$
[H]N=C(OC([H])([H])[H])c1nc2c([H])c([H])c3nc([H])nc(N([H])c4c([H])c([H])c([H])c(Cl)c4[H])c3c2s1


 27 30  0  0  0  0  0  0  0  0999 V2000
  -87.5502   33.2111   -2.3518 C   0  0  0  0  0  0  0  0  0  0  0  0
  -86.3248   33.6198   -2.1620 N   0  0  0  0  0  0  0  0  0  0  0  0
  -85.5392   33.0103   -1.3166 C   0  0  0  0  0  0  0  0  0  0  0  0
  -84.2013   33.3713   -1.0472 C   0  0  0  0  0  0  0  0  0  0  0  0
  -83.5011   32.6294   -0.1368 C   0  0  0  0  0  0  0  0  0  0  0  0
  -84.0018   31.5475    0.5454 C   0  0  0  0  0  0  0  0  0  0  0  0
  -83.3101   30.8342    1.4190 N   0  0  0  0  0  0  0  0  0  0  0  0
  -83.9067   29.7731    2.0345 C   0  0  0  0  0  0  0  0  0  0  0  0
  -85.1629   29.4348    1.7828 N   0  0  0  0  0  0  0  0  0  0  0  0
  -85.9446   30.1191    0.8958 C   0  0  0  0  0  0  0  0  0  0  0  0
  -85.3298   31.1769    0.2892 C   0  0  0  0  0  0  0  0  0  0  0  0
  -86.0541   31.9296   -0.6412 C   0  0  0  0  0  0  0  0  0  0  0  0
  -87.6356   31.8878   -1.2901 S   0  0  0  0  0  0  0  0  0  0  0  0
  -88.6066   33.7382   -3.2425 C   0  0  0  0  0  0  0  0  0  0  0  0
  -89.4868   34.5231   -2.7824 N   0  0  0  0  0  0  0  0  0  0  0  0
  -89.5315   34.8393   -1.7964 H   0  0  0  0  0  0  0  0  0  0  0  0
  -88.7075   32.0125   -4.9821 C   0  0  0  0  0  0  0  0  0  0  0  0
  -88.6095   33.3656   -4.5479 O   0  0  0  0  0  0  0  0  0  0  0  0
  -87.2823   29.7612    0.7100 N   0  0  0  0  0  0  0  0  0  0  0  0
  -88.0836   30.3200    0.9031 H   0  0  0  0  0  0  0  0  0  0  0  0
  -87.6000   28.4457    0.2047 C   0  0  0  0  0  0  0  0  0  0  0  0
  -87.0840   27.3477    0.8120 C   0  0  0  0  0  0  0  0  0  0  0  0
  -87.4124   26.0672    0.3503 C   0  0  0  0  0  0  0  0  0  0  0  0
  -88.2548   25.9177   -0.7171 C   0  0  0  0  0  0  0  0  0  0  0  0
  -88.7597   27.0568   -1.3108 C   0  0  0  0  0  0  0  0  0  0  0  0
  -89.8324   26.8459   -2.6718 Cl  0  0  0  0  0  0  0  0  0  0  0  0
  -88.4561   28.3170   -0.8801 C   0  0  0  0  0  0  0  0  0  0  0  0
 17 18  1  0  0  0
 18 14  1  0  0  0
 14 15  2  0  0  0
 14  1  1  0  0  0
  1  2  2  0  0  0
  2  3  1  0  0  0
  3  4  2  0  0  0
  4  5  1  0  0  0
  5  6  2  0  0  0
  6  7  1  0  0  0
  7  8  2  0  0  0
  8  9  1  0  0  0
  9 10  2  0  0  0
 10 19  1  0  0  0
 19 21  1  0  0  0
 21 22  2  0  0  0
 22 23  1  0  0  0
 23 24  2  0  0  0
 24 25  1  0  0  0
 25 26  1  0  0  0
 25 27  2  0  0  0
 10 11  1  0  0  0
 11 12  2  0  0  0
 12 13  1  0  0  0
 13  1  1  0  0  0
 12  3  1  0  0  0
 11  6  1  0  0  0
 27 21  1  0  0  0
 15 16  1  0  0  0
 19 20  1  0  0  0
M  END
> <minimizedAffinity>
-7.64235

> <CNNscore>
0.2521823645

> <CNNaffinity>
6.5145034790

> <CNN_VS>
1.6428428888

> <CNNaffinity_variance>
0.1387638003

$$$$
[H]c1sc(-c2c([H])c([H])c3c(c2[H])C([H])([H])C([H])([H])O3)nc1C(=O)N([H])c1nc2c([H])c(C(=O)c3c([H])c([H])c([H])c([H])c3[H])c([H])c([H])c2n1[H]


 36 41  0  0  0  0  0  0  0  0999 V2000
  -83.6664   26.9604    2.9632 O   0  0  0  0  0  0  0  0  0  0  0  0
  -84.5889   27.5489    2.2192 C   0  0  0  0  0  0  0  0  0  0  0  0
  -85.7229   26.8098    2.0592 N   0  0  0  0  0  0  0  0  0  0  0  0
  -85.7812   25.8313    2.5577 H   0  0  0  0  0  0  0  0  0  0  0  0
  -86.8438   27.0824    1.2317 C   0  0  0  0  0  0  0  0  0  0  0  0
  -87.2033   26.6322    0.0273 N   0  0  0  0  0  0  0  0  0  0  0  0
  -88.3479   27.1605   -0.4060 C   0  0  0  0  0  0  0  0  0  0  0  0
  -89.1353   27.0497   -1.5383 C   0  0  0  0  0  0  0  0  0  0  0  0
  -90.3116   27.7380   -1.7442 C   0  0  0  0  0  0  0  0  0  0  0  0
  -90.7025   28.5954   -0.7183 C   0  0  0  0  0  0  0  0  0  0  0  0
  -89.9434   28.7312    0.4253 C   0  0  0  0  0  0  0  0  0  0  0  0
  -88.7621   28.0183    0.5935 C   0  0  0  0  0  0  0  0  0  0  0  0
  -87.8533   27.9602    1.5649 N   0  0  0  0  0  0  0  0  0  0  0  0
  -87.9119   28.5079    2.4446 H   0  0  0  0  0  0  0  0  0  0  0  0
  -91.0907   27.6095   -2.9635 C   0  0  0  0  0  0  0  0  0  0  0  0
  -91.0668   28.6167   -3.7679 O   0  0  0  0  0  0  0  0  0  0  0  0
  -91.8642   26.4605   -3.3133 C   0  0  0  0  0  0  0  0  0  0  0  0
  -91.8601   25.3020   -2.5822 C   0  0  0  0  0  0  0  0  0  0  0  0
  -92.6499   24.2028   -2.9237 C   0  0  0  0  0  0  0  0  0  0  0  0
  -93.4567   24.2967   -4.0368 C   0  0  0  0  0  0  0  0  0  0  0  0
  -93.4510   25.4660   -4.7636 C   0  0  0  0  0  0  0  0  0  0  0  0
  -92.6820   26.5622   -4.4465 C   0  0  0  0  0  0  0  0  0  0  0  0
  -84.1942   28.8813    1.7168 C   0  0  0  0  0  0  0  0  0  0  0  0
  -82.9902   29.4876    1.9595 C   0  0  0  0  0  0  0  0  0  0  0  0
  -83.1846   30.9995    1.1682 S   0  0  0  0  0  0  0  0  0  0  0  0
  -84.7645   30.7720    0.5812 C   0  0  0  0  0  0  0  0  0  0  0  0
  -85.0618   29.5741    1.0118 N   0  0  0  0  0  0  0  0  0  0  0  0
  -85.5711   31.7108   -0.2199 C   0  0  0  0  0  0  0  0  0  0  0  0
  -85.1187   32.9582   -0.4727 C   0  0  0  0  0  0  0  0  0  0  0  0
  -85.9109   33.8322   -1.2306 C   0  0  0  0  0  0  0  0  0  0  0  0
  -87.1398   33.4616   -1.7280 C   0  0  0  0  0  0  0  0  0  0  0  0
  -88.1203   34.1211   -2.4984 O   0  0  0  0  0  0  0  0  0  0  0  0
  -89.3777   33.4812   -2.2093 C   0  0  0  0  0  0  0  0  0  0  0  0
  -88.9058   32.0479   -2.1066 C   0  0  0  0  0  0  0  0  0  0  0  0
  -87.5826   32.1880   -1.4603 C   0  0  0  0  0  0  0  0  0  0  0  0
  -86.7947   31.3089   -0.7028 C   0  0  0  0  0  0  0  0  0  0  0  0
  1  2  2  0  0  0
  2  3  1  0  0  0
  3  5  1  0  0  0
  5  6  2  0  0  0
  6  7  1  0  0  0
  7  8  2  0  0  0
  8  9  1  0  0  0
  9 10  2  0  0  0
 10 11  1  0  0  0
 11 12  2  0  0  0
 12 13  1  0  0  0
  9 15  1  0  0  0
 15 16  2  0  0  0
 15 17  1  0  0  0
 17 18  2  0  0  0
 18 19  1  0  0  0
 19 20  2  0  0  0
 20 21  1  0  0  0
 21 22  2  0  0  0
  2 23  1  0  0  0
 23 24  2  0  0  0
 24 25  1  0  0  0
 25 26  1  0  0  0
 26 27  2  0  0  0
 26 28  1  0  0  0
 28 29  2  0  0  0
 29 30  1  0  0  0
 30 31  2  0  0  0
 31 32  1  0  0  0
 32 33  1  0  0  0
 33 34  1  0  0  0
 34 35  1  0  0  0
 35 36  2  0  0  0
 13  5  1  0  0  0
 22 17  1  0  0  0
 27 23  1  0  0  0
 36 28  1  0  0  0
 12  7  1  0  0  0
 35 31  1  0  0  0
  3  4  1  0  0  0
 13 14  1  0  0  0
M  END
> <minimizedAffinity>
-9.75886

> <CNNscore>
0.3380117416

> <CNNaffinity>
7.0273637772

> <CNN_VS>
2.3753314018

> <CNNaffinity_variance>
0.0803744644

$$$$
[H]c1sc(-c2c([H])c([H])c3c(c2[H])C([H])([H])C([H])([H])O3)nc1C(=O)N([H])c1nc2c([H])c(C(=O)c3c([H])c([H])c([H])c([H])c3[H])c([H])c([H])c2n1[H]


 36 41  0  0  0  0  0  0  0  0999 V2000
  -83.9537   26.8187    2.8261 O   0  0  0  0  0  0  0  0  0  0  0  0
  -84.8487   27.4858    2.1156 C   0  0  0  0  0  0  0  0  0  0  0  0
  -86.0057   26.7983    1.9000 N   0  0  0  0  0  0  0  0  0  0  0  0
  -86.1020   25.7922    2.3335 H   0  0  0  0  0  0  0  0  0  0  0  0
  -87.1091   27.1625    1.0843 C   0  0  0  0  0  0  0  0  0  0  0  0
  -87.4716   26.8056   -0.1501 N   0  0  0  0  0  0  0  0  0  0  0  0
  -88.5940   27.3995   -0.5557 C   0  0  0  0  0  0  0  0  0  0  0  0
  -89.3737   27.3905   -1.6987 C   0  0  0  0  0  0  0  0  0  0  0  0
  -90.5247   28.1298   -1.8669 C   0  0  0  0  0  0  0  0  0  0  0  0
  -90.8971   28.9297   -0.7890 C   0  0  0  0  0  0  0  0  0  0  0  0
  -90.1451   28.9639    0.3667 C   0  0  0  0  0  0  0  0  0  0  0  0
  -88.9894   28.2023    0.4957 C   0  0  0  0  0  0  0  0  0  0  0  0
  -88.0924   28.0495    1.4678 N   0  0  0  0  0  0  0  0  0  0  0  0
  -88.1415   28.5392    2.3816 H   0  0  0  0  0  0  0  0  0  0  0  0
  -91.2959   28.1086   -3.0978 C   0  0  0  0  0  0  0  0  0  0  0  0
  -91.2629   27.0128   -3.7761 O   0  0  0  0  0  0  0  0  0  0  0  0
  -92.0683   29.2054   -3.5888 C   0  0  0  0  0  0  0  0  0  0  0  0
  -93.4343   29.2599   -3.5021 C   0  0  0  0  0  0  0  0  0  0  0  0
  -94.1667   30.3572   -3.9582 C   0  0  0  0  0  0  0  0  0  0  0  0
  -93.4821   31.4161   -4.5141 C   0  0  0  0  0  0  0  0  0  0  0  0
  -92.1094   31.3487   -4.5963 C   0  0  0  0  0  0  0  0  0  0  0  0
  -91.3662   30.2787   -4.1533 C   0  0  0  0  0  0  0  0  0  0  0  0
  -84.4042   28.8334    1.7036 C   0  0  0  0  0  0  0  0  0  0  0  0
  -83.2232   29.4191    2.0753 C   0  0  0  0  0  0  0  0  0  0  0  0
  -83.3390   30.9627    1.3312 S   0  0  0  0  0  0  0  0  0  0  0  0
  -84.8621   30.7723    0.5988 C   0  0  0  0  0  0  0  0  0  0  0  0
  -85.2026   29.5611    0.9533 N   0  0  0  0  0  0  0  0  0  0  0  0
  -85.5899   31.7491   -0.2319 C   0  0  0  0  0  0  0  0  0  0  0  0
  -85.0568   32.9641   -0.4846 C   0  0  0  0  0  0  0  0  0  0  0  0
  -85.7753   33.8758   -1.2711 C   0  0  0  0  0  0  0  0  0  0  0  0
  -87.0112   33.5742   -1.7969 C   0  0  0  0  0  0  0  0  0  0  0  0
  -87.9303   34.2830   -2.5987 O   0  0  0  0  0  0  0  0  0  0  0  0
  -89.2309   33.7230   -2.3364 C   0  0  0  0  0  0  0  0  0  0  0  0
  -88.8492   32.2652   -2.2079 C   0  0  0  0  0  0  0  0  0  0  0  0
  -87.5368   32.3325   -1.5287 C   0  0  0  0  0  0  0  0  0  0  0  0
  -86.8229   31.4161   -0.7426 C   0  0  0  0  0  0  0  0  0  0  0  0
  1  2  2  0  0  0
  2  3  1  0  0  0
  3  5  1  0  0  0
  5  6  2  0  0  0
  6  7  1  0  0  0
  7  8  2  0  0  0
  8  9  1  0  0  0
  9 10  2  0  0  0
 10 11  1  0  0  0
 11 12  2  0  0  0
 12 13  1  0  0  0
  9 15  1  0  0  0
 15 16  2  0  0  0
 15 17  1  0  0  0
 17 18  2  0  0  0
 18 19  1  0  0  0
 19 20  2  0  0  0
 20 21  1  0  0  0
 21 22  2  0  0  0
  2 23  1  0  0  0
 23 24  2  0  0  0
 24 25  1  0  0  0
 25 26  1  0  0  0
 26 27  2  0  0  0
 26 28  1  0  0  0
 28 29  2  0  0  0
 29 30  1  0  0  0
 30 31  2  0  0  0
 31 32  1  0  0  0
 32 33  1  0  0  0
 33 34  1  0  0  0
 34 35  1  0  0  0
 35 36  2  0  0  0
 13  5  1  0  0  0
 22 17  1  0  0  0
 27 23  1  0  0  0
 36 28  1  0  0  0
 12  7  1  0  0  0
 35 31  1  0  0  0
  3  4  1  0  0  0
 13 14  1  0  0  0
M  END
> <minimizedAffinity>
-9.10449

> <CNNscore>
0.2258141339

> <CNNaffinity>
7.0378465652

> <CNN_VS>
1.5892452002

> <CNNaffinity_variance>
0.1092462689

$$$$
[H]c1sc(-c2c([H])c([H])c3c(c2[H])C([H])([H])C([H])([H])O3)nc1C(=O)N([H])c1nc2c([H])c(C(=O)c3c([H])c([H])c([H])c([H])c3[H])c([H])c([H])c2n1[H]


 36 41  0  0  0  0  0  0  0  0999 V2000
  -83.3278   28.7512    2.4721 O   0  0  0  0  0  0  0  0  0  0  0  0
  -84.3786   28.9750    1.6997 C   0  0  0  0  0  0  0  0  0  0  0  0
  -85.2908   27.9623    1.7020 N   0  0  0  0  0  0  0  0  0  0  0  0
  -85.0934   27.0852    2.3355 H   0  0  0  0  0  0  0  0  0  0  0  0
  -86.4548   27.8220    0.9014 C   0  0  0  0  0  0  0  0  0  0  0  0
  -87.6615   27.3081    1.1509 N   0  0  0  0  0  0  0  0  0  0  0  0
  -88.4792   27.3645    0.0997 C   0  0  0  0  0  0  0  0  0  0  0  0
  -89.7809   26.9853   -0.1765 C   0  0  0  0  0  0  0  0  0  0  0  0
  -90.4057   27.1593   -1.3926 C   0  0  0  0  0  0  0  0  0  0  0  0
  -89.6412   27.7628   -2.3886 C   0  0  0  0  0  0  0  0  0  0  0  0
  -88.3405   28.1546   -2.1498 C   0  0  0  0  0  0  0  0  0  0  0  0
  -87.7471   27.9604   -0.9079 C   0  0  0  0  0  0  0  0  0  0  0  0
  -86.5402   28.2281   -0.4133 N   0  0  0  0  0  0  0  0  0  0  0  0
  -85.7800   28.6795   -0.9570 H   0  0  0  0  0  0  0  0  0  0  0  0
  -91.7670   26.7188   -1.6436 C   0  0  0  0  0  0  0  0  0  0  0  0
  -92.6468   27.6454   -1.8150 O   0  0  0  0  0  0  0  0  0  0  0  0
  -92.1773   25.3520   -1.7083 C   0  0  0  0  0  0  0  0  0  0  0  0
  -91.8859   24.5300   -2.7647 C   0  0  0  0  0  0  0  0  0  0  0  0
  -92.2679   23.1877   -2.7917 C   0  0  0  0  0  0  0  0  0  0  0  0
  -92.9625   22.6827   -1.7140 C   0  0  0  0  0  0  0  0  0  0  0  0
  -93.2499   23.5192   -0.6590 C   0  0  0  0  0  0  0  0  0  0  0  0
  -92.8836   24.8447   -0.6095 C   0  0  0  0  0  0  0  0  0  0  0  0
  -84.3400   30.2737    0.9959 C   0  0  0  0  0  0  0  0  0  0  0  0
  -83.2493   31.0995    0.9297 C   0  0  0  0  0  0  0  0  0  0  0  0
  -83.8652   32.4360    0.0442 S   0  0  0  0  0  0  0  0  0  0  0  0
  -85.4523   31.8706   -0.1883 C   0  0  0  0  0  0  0  0  0  0  0  0
  -85.4351   30.7098    0.4124 N   0  0  0  0  0  0  0  0  0  0  0  0
  -86.5522   32.5441   -0.9026 C   0  0  0  0  0  0  0  0  0  0  0  0
  -87.8373   32.2219   -0.6395 C   0  0  0  0  0  0  0  0  0  0  0  0
  -88.8626   32.8731   -1.3402 C   0  0  0  0  0  0  0  0  0  0  0  0
  -88.6037   33.8337   -2.2915 C   0  0  0  0  0  0  0  0  0  0  0  0
  -89.4196   34.6259   -3.1261 O   0  0  0  0  0  0  0  0  0  0  0  0
  -88.6228   34.9823   -4.2715 C   0  0  0  0  0  0  0  0  0  0  0  0
  -87.2914   35.1976   -3.5870 C   0  0  0  0  0  0  0  0  0  0  0  0
  -87.2895   34.1479   -2.5448 C   0  0  0  0  0  0  0  0  0  0  0  0
  -86.2594   33.5001   -1.8472 C   0  0  0  0  0  0  0  0  0  0  0  0
  1  2  2  0  0  0
  2  3  1  0  0  0
  3  5  1  0  0  0
  5  6  2  0  0  0
  6  7  1  0  0  0
  7  8  2  0  0  0
  8  9  1  0  0  0
  9 10  2  0  0  0
 10 11  1  0  0  0
 11 12  2  0  0  0
 12 13  1  0  0  0
  9 15  1  0  0  0
 15 16  2  0  0  0
 15 17  1  0  0  0
 17 18  2  0  0  0
 18 19  1  0  0  0
 19 20  2  0  0  0
 20 21  1  0  0  0
 21 22  2  0  0  0
  2 23  1  0  0  0
 23 24  2  0  0  0
 24 25  1  0  0  0
 25 26  1  0  0  0
 26 27  2  0  0  0
 26 28  1  0  0  0
 28 29  2  0  0  0
 29 30  1  0  0  0
 30 31  2  0  0  0
 31 32  1  0  0  0
 32 33  1  0  0  0
 33 34  1  0  0  0
 34 35  1  0  0  0
 35 36  2  0  0  0
 13  5  1  0  0  0
 22 17  1  0  0  0
 27 23  1  0  0  0
 36 28  1  0  0  0
 12  7  1  0  0  0
 35 31  1  0  0  0
  3  4  1  0  0  0
 13 14  1  0  0  0
M  END
> <minimizedAffinity>
-9.03555

> <CNNscore>
0.1841194779

> <CNNaffinity>
6.8673477173

> <CNN_VS>
1.2644125223

> <CNNaffinity_variance>
0.1089621037

$$$$
[H]c1sc(-c2c([H])c([H])c3c(c2[H])C([H])([H])C([H])([H])O3)nc1C(=O)N([H])c1nc2c([H])c(C(=O)c3c([H])c([H])c([H])c([H])c3[H])c([H])c([H])c2n1[H]


 36 41  0  0  0  0  0  0  0  0999 V2000
  -92.8368   30.4706   -3.2003 O   0  0  0  0  0  0  0  0  0  0  0  0
  -91.6984   30.4169   -2.5279 C   0  0  0  0  0  0  0  0  0  0  0  0
  -90.9781   31.5732   -2.5692 N   0  0  0  0  0  0  0  0  0  0  0  0
  -91.3958   32.4274   -3.1217 H   0  0  0  0  0  0  0  0  0  0  0  0
  -89.6721   31.8170   -2.0687 C   0  0  0  0  0  0  0  0  0  0  0  0
  -88.8458   31.0855   -1.3171 N   0  0  0  0  0  0  0  0  0  0  0  0
  -87.6926   31.7023   -1.0593 C   0  0  0  0  0  0  0  0  0  0  0  0
  -86.5376   31.4104   -0.3555 C   0  0  0  0  0  0  0  0  0  0  0  0
  -85.4573   32.2580   -0.2378 C   0  0  0  0  0  0  0  0  0  0  0  0
  -85.5732   33.4853   -0.8866 C   0  0  0  0  0  0  0  0  0  0  0  0
  -86.7090   33.8109   -1.5981 C   0  0  0  0  0  0  0  0  0  0  0  0
  -87.7774   32.9266   -1.6919 C   0  0  0  0  0  0  0  0  0  0  0  0
  -88.9655   32.9798   -2.2906 N   0  0  0  0  0  0  0  0  0  0  0  0
  -89.2982   33.7930   -2.8432 H   0  0  0  0  0  0  0  0  0  0  0  0
  -84.2760   31.9180    0.5363 C   0  0  0  0  0  0  0  0  0  0  0  0
  -83.3043   32.7646    0.5010 O   0  0  0  0  0  0  0  0  0  0  0  0
  -84.1318   30.7284    1.3139 C   0  0  0  0  0  0  0  0  0  0  0  0
  -82.9842   29.9806    1.3359 C   0  0  0  0  0  0  0  0  0  0  0  0
  -82.8535   28.8397    2.1295 C   0  0  0  0  0  0  0  0  0  0  0  0
  -83.9221   28.4610    2.9129 C   0  0  0  0  0  0  0  0  0  0  0  0
  -85.0700   29.2204    2.8811 C   0  0  0  0  0  0  0  0  0  0  0  0
  -85.2221   30.3485    2.1078 C   0  0  0  0  0  0  0  0  0  0  0  0
  -91.4472   29.1144   -1.8768 C   0  0  0  0  0  0  0  0  0  0  0  0
  -91.3771   27.9111   -2.5273 C   0  0  0  0  0  0  0  0  0  0  0  0
  -91.1306   26.8152   -1.2281 S   0  0  0  0  0  0  0  0  0  0  0  0
  -91.1287   27.9390    0.0485 C   0  0  0  0  0  0  0  0  0  0  0  0
  -91.3146   29.0761   -0.5688 N   0  0  0  0  0  0  0  0  0  0  0  0
  -90.9511   27.6672    1.4867 C   0  0  0  0  0  0  0  0  0  0  0  0
  -91.1233   28.6518    2.3953 C   0  0  0  0  0  0  0  0  0  0  0  0
  -90.9398   28.3662    3.7558 C   0  0  0  0  0  0  0  0  0  0  0  0
  -90.5883   27.1115    4.1996 C   0  0  0  0  0  0  0  0  0  0  0  0
  -90.3435   26.5602    5.4748 O   0  0  0  0  0  0  0  0  0  0  0  0
  -89.4734   25.4293    5.2801 C   0  0  0  0  0  0  0  0  0  0  0  0
  -90.0560   24.8901    3.9927 C   0  0  0  0  0  0  0  0  0  0  0  0
  -90.4180   26.1229    3.2596 C   0  0  0  0  0  0  0  0  0  0  0  0
  -90.6002   26.4022    1.8971 C   0  0  0  0  0  0  0  0  0  0  0  0
  1  2  2  0  0  0
  2  3  1  0  0  0
  3  5  1  0  0  0
  5  6  2  0  0  0
  6  7  1  0  0  0
  7  8  2  0  0  0
  8  9  1  0  0  0
  9 10  2  0  0  0
 10 11  1  0  0  0
 11 12  2  0  0  0
 12 13  1  0  0  0
  9 15  1  0  0  0
 15 16  2  0  0  0
 15 17  1  0  0  0
 17 18  2  0  0  0
 18 19  1  0  0  0
 19 20  2  0  0  0
 20 21  1  0  0  0
 21 22  2  0  0  0
  2 23  1  0  0  0
 23 24  2  0  0  0
 24 25  1  0  0  0
 25 26  1  0  0  0
 26 27  2  0  0  0
 26 28  1  0  0  0
 28 29  2  0  0  0
 29 30  1  0  0  0
 30 31  2  0  0  0
 31 32  1  0  0  0
 32 33  1  0  0  0
 33 34  1  0  0  0
 34 35  1  0  0  0
 35 36  2  0  0  0
 13  5  1  0  0  0
 22 17  1  0  0  0
 27 23  1  0  0  0
 36 28  1  0  0  0
 12  7  1  0  0  0
 35 31  1  0  0  0
  3  4  1  0  0  0
 13 14  1  0  0  0
M  END
> <minimizedAffinity>
-11.45988

> <CNNscore>
0.1675727516

> <CNNaffinity>
6.7578148842

> <CNN_VS>
1.1324256659

> <CNNaffinity_variance>
0.1892666966

$$$$
[H]c1sc(-c2c([H])c([H])c3c(c2[H])C([H])([H])C([H])([H])O3)nc1C(=O)N([H])c1nc2c([H])c(C(=O)c3c([H])c([H])c([H])c([H])c3[H])c([H])c([H])c2n1[H]


 36 41  0  0  0  0  0  0  0  0999 V2000
  -84.0034   27.1265    2.7760 O   0  0  0  0  0  0  0  0  0  0  0  0
  -85.0171   27.5200    2.0220 C   0  0  0  0  0  0  0  0  0  0  0  0
  -85.9767   26.5680    1.8468 N   0  0  0  0  0  0  0  0  0  0  0  0
  -85.8421   25.5957    2.3427 H   0  0  0  0  0  0  0  0  0  0  0  0
  -87.1200   26.6125    1.0064 C   0  0  0  0  0  0  0  0  0  0  0  0
  -88.0805   27.5253    0.8420 N   0  0  0  0  0  0  0  0  0  0  0  0
  -88.9935   27.1642   -0.0596 C   0  0  0  0  0  0  0  0  0  0  0  0
  -90.1505   27.7109   -0.5858 C   0  0  0  0  0  0  0  0  0  0  0  0
  -90.9408   27.1034   -1.5377 C   0  0  0  0  0  0  0  0  0  0  0  0
  -90.5123   25.8525   -1.9763 C   0  0  0  0  0  0  0  0  0  0  0  0
  -89.3637   25.2764   -1.4750 C   0  0  0  0  0  0  0  0  0  0  0  0
  -88.5946   25.9231   -0.5146 C   0  0  0  0  0  0  0  0  0  0  0  0
  -87.4738   25.6076    0.1314 N   0  0  0  0  0  0  0  0  0  0  0  0
  -86.9521   24.7224   -0.0150 H   0  0  0  0  0  0  0  0  0  0  0  0
  -92.1636   27.7053   -2.0402 C   0  0  0  0  0  0  0  0  0  0  0  0
  -93.2278   26.9804   -1.9760 O   0  0  0  0  0  0  0  0  0  0  0  0
  -92.2526   29.0210   -2.5894 C   0  0  0  0  0  0  0  0  0  0  0  0
  -91.3066   29.5504   -3.4269 C   0  0  0  0  0  0  0  0  0  0  0  0
  -91.4307   30.8264   -3.9791 C   0  0  0  0  0  0  0  0  0  0  0  0
  -92.5464   31.5709   -3.6634 C   0  0  0  0  0  0  0  0  0  0  0  0
  -93.4893   31.0280   -2.8199 C   0  0  0  0  0  0  0  0  0  0  0  0
  -93.3893   29.7731   -2.2641 C   0  0  0  0  0  0  0  0  0  0  0  0
  -84.8937   28.9069    1.5272 C   0  0  0  0  0  0  0  0  0  0  0  0
  -83.8184   29.7265    1.7461 C   0  0  0  0  0  0  0  0  0  0  0  0
  -84.3152   31.1814    0.9804 S   0  0  0  0  0  0  0  0  0  0  0  0
  -85.8404   30.6659    0.4321 C   0  0  0  0  0  0  0  0  0  0  0  0
  -85.8954   29.4301    0.8545 N   0  0  0  0  0  0  0  0  0  0  0  0
  -86.8311   31.4430   -0.3349 C   0  0  0  0  0  0  0  0  0  0  0  0
  -88.1312   31.0766   -0.3419 C   0  0  0  0  0  0  0  0  0  0  0  0
  -89.0497   31.8298   -1.0870 C   0  0  0  0  0  0  0  0  0  0  0  0
  -88.6706   32.9347   -1.8153 C   0  0  0  0  0  0  0  0  0  0  0  0
  -89.3655   33.8498   -2.6336 O   0  0  0  0  0  0  0  0  0  0  0  0
  -88.4058   34.3929   -3.5599 C   0  0  0  0  0  0  0  0  0  0  0  0
  -87.2095   34.4983   -2.6404 C   0  0  0  0  0  0  0  0  0  0  0  0
  -87.3432   33.2917   -1.7953 C   0  0  0  0  0  0  0  0  0  0  0  0
  -86.4195   32.5423   -1.0518 C   0  0  0  0  0  0  0  0  0  0  0  0
  1  2  2  0  0  0
  2  3  1  0  0  0
  3  5  1  0  0  0
  5  6  2  0  0  0
  6  7  1  0  0  0
  7  8  2  0  0  0
  8  9  1  0  0  0
  9 10  2  0  0  0
 10 11  1  0  0  0
 11 12  2  0  0  0
 12 13  1  0  0  0
  9 15  1  0  0  0
 15 16  2  0  0  0
 15 17  1  0  0  0
 17 18  2  0  0  0
 18 19  1  0  0  0
 19 20  2  0  0  0
 20 21  1  0  0  0
 21 22  2  0  0  0
  2 23  1  0  0  0
 23 24  2  0  0  0
 24 25  1  0  0  0
 25 26  1  0  0  0
 26 27  2  0  0  0
 26 28  1  0  0  0
 28 29  2  0  0  0
 29 30  1  0  0  0
 30 31  2  0  0  0
 31 32  1  0  0  0
 32 33  1  0  0  0
 33 34  1  0  0  0
 34 35  1  0  0  0
 35 36  2  0  0  0
 13  5  1  0  0  0
 22 17  1  0  0  0
 27 23  1  0  0  0
 36 28  1  0  0  0
 12  7  1  0  0  0
 35 31  1  0  0  0
  3  4  1  0  0  0
 13 14  1  0  0  0
M  END
> <minimizedAffinity>
-9.37111

> <CNNscore>
0.1612723619

> <CNNaffinity>
6.8233566284

> <CNN_VS>
1.1004188061

> <CNNaffinity_variance>
0.1656871289

$$$$
[H]c1sc(-c2c([H])c([H])c3c(c2[H])C([H])([H])C([H])([H])O3)nc1C(=O)N([H])c1nc2c([H])c(C(=O)c3c([H])c([H])c([H])c([H])c3[H])c([H])c([H])c2n1[H]


 36 41  0  0  0  0  0  0  0  0999 V2000
  -83.7772   27.2993    2.5803 O   0  0  0  0  0  0  0  0  0  0  0  0
  -84.8821   27.7496    2.0081 C   0  0  0  0  0  0  0  0  0  0  0  0
  -85.9145   26.8600    2.0254 N   0  0  0  0  0  0  0  0  0  0  0  0
  -85.7547   25.8863    2.5110 H   0  0  0  0  0  0  0  0  0  0  0  0
  -87.1836   26.9695    1.3985 C   0  0  0  0  0  0  0  0  0  0  0  0
  -87.7961   26.2286    0.4720 N   0  0  0  0  0  0  0  0  0  0  0  0
  -89.0018   26.6943    0.1459 C   0  0  0  0  0  0  0  0  0  0  0  0
  -90.0137   26.3285   -0.7239 C   0  0  0  0  0  0  0  0  0  0  0  0
  -91.2003   27.0129   -0.8765 C   0  0  0  0  0  0  0  0  0  0  0  0
  -91.3552   28.1469   -0.0823 C   0  0  0  0  0  0  0  0  0  0  0  0
  -90.3683   28.5418    0.7966 C   0  0  0  0  0  0  0  0  0  0  0  0
  -89.1850   27.8229    0.9199 C   0  0  0  0  0  0  0  0  0  0  0  0
  -88.0905   27.9737    1.6629 N   0  0  0  0  0  0  0  0  0  0  0  0
  -87.9549   28.7471    2.3417 H   0  0  0  0  0  0  0  0  0  0  0  0
  -92.2229   26.6053   -1.8244 C   0  0  0  0  0  0  0  0  0  0  0  0
  -92.9730   25.6188   -1.4694 O   0  0  0  0  0  0  0  0  0  0  0  0
  -92.4389   27.2184   -3.0964 C   0  0  0  0  0  0  0  0  0  0  0  0
  -92.6117   28.5675   -3.2599 C   0  0  0  0  0  0  0  0  0  0  0  0
  -92.7877   29.1493   -4.5165 C   0  0  0  0  0  0  0  0  0  0  0  0
  -92.7872   28.3290   -5.6237 C   0  0  0  0  0  0  0  0  0  0  0  0
  -92.6135   26.9749   -5.4460 C   0  0  0  0  0  0  0  0  0  0  0  0
  -92.4378   26.3788   -4.2183 C   0  0  0  0  0  0  0  0  0  0  0  0
  -84.7626   29.1203    1.4691 C   0  0  0  0  0  0  0  0  0  0  0  0
  -83.6717   29.9336    1.6249 C   0  0  0  0  0  0  0  0  0  0  0  0
  -84.1813   31.3715    0.8358 S   0  0  0  0  0  0  0  0  0  0  0  0
  -85.7307   30.8578    0.3585 C   0  0  0  0  0  0  0  0  0  0  0  0
  -85.7829   29.6353    0.8182 N   0  0  0  0  0  0  0  0  0  0  0  0
  -86.7408   31.6237   -0.3944 C   0  0  0  0  0  0  0  0  0  0  0  0
  -88.0376   31.2460   -0.3786 C   0  0  0  0  0  0  0  0  0  0  0  0
  -88.9749   31.9888   -1.1105 C   0  0  0  0  0  0  0  0  0  0  0  0
  -88.6178   33.0945   -1.8485 C   0  0  0  0  0  0  0  0  0  0  0  0
  -89.3341   34.0010   -2.6578 O   0  0  0  0  0  0  0  0  0  0  0  0
  -88.3948   34.5494   -3.6017 C   0  0  0  0  0  0  0  0  0  0  0  0
  -87.1844   34.6682   -2.7027 C   0  0  0  0  0  0  0  0  0  0  0  0
  -87.2933   33.4632   -1.8517 C   0  0  0  0  0  0  0  0  0  0  0  0
  -86.3509   32.7243   -1.1214 C   0  0  0  0  0  0  0  0  0  0  0  0
  1  2  2  0  0  0
  2  3  1  0  0  0
  3  5  1  0  0  0
  5  6  2  0  0  0
  6  7  1  0  0  0
  7  8  2  0  0  0
  8  9  1  0  0  0
  9 10  2  0  0  0
 10 11  1  0  0  0
 11 12  2  0  0  0
 12 13  1  0  0  0
  9 15  1  0  0  0
 15 16  2  0  0  0
 15 17  1  0  0  0
 17 18  2  0  0  0
 18 19  1  0  0  0
 19 20  2  0  0  0
 20 21  1  0  0  0
 21 22  2  0  0  0
  2 23  1  0  0  0
 23 24  2  0  0  0
 24 25  1  0  0  0
 25 26  1  0  0  0
 26 27  2  0  0  0
 26 28  1  0  0  0
 28 29  2  0  0  0
 29 30  1  0  0  0
 30 31  2  0  0  0
 31 32  1  0  0  0
 32 33  1  0  0  0
 33 34  1  0  0  0
 34 35  1  0  0  0
 35 36  2  0  0  0
 13  5  1  0  0  0
 22 17  1  0  0  0
 27 23  1  0  0  0
 36 28  1  0  0  0
 12  7  1  0  0  0
 35 31  1  0  0  0
  3  4  1  0  0  0
 13 14  1  0  0  0
M  END
> <minimizedAffinity>
-9.27747

> <CNNscore>
0.1568433195

> <CNNaffinity>
6.7845511436

> <CNN_VS>
1.0641114712

> <CNNaffinity_variance>
0.1166041270

$$$$
[H]c1sc(-c2c([H])c([H])c3c(c2[H])C([H])([H])C([H])([H])O3)nc1C(=O)N([H])c1nc2c([H])c(C(=O)c3c([H])c([H])c([H])c([H])c3[H])c([H])c([H])c2n1[H]


 36 41  0  0  0  0  0  0  0  0999 V2000
  -84.0941   27.1217    2.6932 O   0  0  0  0  0  0  0  0  0  0  0  0
  -85.1083   27.5372    1.9519 C   0  0  0  0  0  0  0  0  0  0  0  0
  -86.1295   26.6391    1.8607 N   0  0  0  0  0  0  0  0  0  0  0  0
  -86.0365   25.6880    2.4048 H   0  0  0  0  0  0  0  0  0  0  0  0
  -87.2973   26.7103    1.0566 C   0  0  0  0  0  0  0  0  0  0  0  0
  -87.4919   26.5938   -0.2592 N   0  0  0  0  0  0  0  0  0  0  0  0
  -88.7691   26.7398   -0.6119 C   0  0  0  0  0  0  0  0  0  0  0  0
  -89.4892   26.7192   -1.7932 C   0  0  0  0  0  0  0  0  0  0  0  0
  -90.8509   26.9118   -1.8833 C   0  0  0  0  0  0  0  0  0  0  0  0
  -91.5142   27.1400   -0.6797 C   0  0  0  0  0  0  0  0  0  0  0  0
  -90.8297   27.1669    0.5174 C   0  0  0  0  0  0  0  0  0  0  0  0
  -89.4548   26.9681    0.5646 C   0  0  0  0  0  0  0  0  0  0  0  0
  -88.5619   26.9472    1.5521 N   0  0  0  0  0  0  0  0  0  0  0  0
  -88.8020   27.0923    2.5514 H   0  0  0  0  0  0  0  0  0  0  0  0
  -91.5598   26.9090   -3.1512 C   0  0  0  0  0  0  0  0  0  0  0  0
  -91.3705   27.9294   -3.9161 O   0  0  0  0  0  0  0  0  0  0  0  0
  -92.4344   25.8673   -3.5880 C   0  0  0  0  0  0  0  0  0  0  0  0
  -93.4433   26.0646   -4.4935 C   0  0  0  0  0  0  0  0  0  0  0  0
  -94.2648   25.0247   -4.9319 C   0  0  0  0  0  0  0  0  0  0  0  0
  -94.0454   23.7605   -4.4294 C   0  0  0  0  0  0  0  0  0  0  0  0
  -93.0290   23.5756   -3.5194 C   0  0  0  0  0  0  0  0  0  0  0  0
  -92.2064   24.5843   -3.0730 C   0  0  0  0  0  0  0  0  0  0  0  0
  -84.9188   28.8855    1.3776 C   0  0  0  0  0  0  0  0  0  0  0  0
  -83.7594   29.6117    1.4432 C   0  0  0  0  0  0  0  0  0  0  0  0
  -84.2072   31.0731    0.6600 S   0  0  0  0  0  0  0  0  0  0  0  0
  -85.8211   30.6771    0.2980 C   0  0  0  0  0  0  0  0  0  0  0  0
  -85.9376   29.4700    0.7857 N   0  0  0  0  0  0  0  0  0  0  0  0
  -86.8170   31.5093   -0.4015 C   0  0  0  0  0  0  0  0  0  0  0  0
  -88.1314   31.2059   -0.3331 C   0  0  0  0  0  0  0  0  0  0  0  0
  -89.0552   32.0105   -1.0153 C   0  0  0  0  0  0  0  0  0  0  0  0
  -88.6671   33.1039   -1.7561 C   0  0  0  0  0  0  0  0  0  0  0  0
  -89.3644   34.0603   -2.5235 O   0  0  0  0  0  0  0  0  0  0  0  0
  -88.4366   34.5669   -3.5016 C   0  0  0  0  0  0  0  0  0  0  0  0
  -87.1838   34.6046   -2.6551 C   0  0  0  0  0  0  0  0  0  0  0  0
  -87.3251   33.3965   -1.8132 C   0  0  0  0  0  0  0  0  0  0  0  0
  -86.3961   32.5955   -1.1330 C   0  0  0  0  0  0  0  0  0  0  0  0
  1  2  2  0  0  0
  2  3  1  0  0  0
  3  5  1  0  0  0
  5  6  2  0  0  0
  6  7  1  0  0  0
  7  8  2  0  0  0
  8  9  1  0  0  0
  9 10  2  0  0  0
 10 11  1  0  0  0
 11 12  2  0  0  0
 12 13  1  0  0  0
  9 15  1  0  0  0
 15 16  2  0  0  0
 15 17  1  0  0  0
 17 18  2  0  0  0
 18 19  1  0  0  0
 19 20  2  0  0  0
 20 21  1  0  0  0
 21 22  2  0  0  0
  2 23  1  0  0  0
 23 24  2  0  0  0
 24 25  1  0  0  0
 25 26  1  0  0  0
 26 27  2  0  0  0
 26 28  1  0  0  0
 28 29  2  0  0  0
 29 30  1  0  0  0
 30 31  2  0  0  0
 31 32  1  0  0  0
 32 33  1  0  0  0
 33 34  1  0  0  0
 34 35  1  0  0  0
 35 36  2  0  0  0
 13  5  1  0  0  0
 22 17  1  0  0  0
 27 23  1  0  0  0
 36 28  1  0  0  0
 12  7  1  0  0  0
 35 31  1  0  0  0
  3  4  1  0  0  0
 13 14  1  0  0  0
M  END
> <minimizedAffinity>
-9.65217

> <CNNscore>
0.1180622727

> <CNNaffinity>
6.5839638710

> <CNN_VS>
0.7773177624

> <CNNaffinity_variance>
0.1045243368

$$$$
[H]c1sc(-c2c([H])c([H])c3c(c2[H])C([H])([H])C([H])([H])O3)nc1C(=O)N([H])c1nc2c([H])c(C(=O)c3c([H])c([H])c([H])c([H])c3[H])c([H])c([H])c2n1[H]


 36 41  0  0  0  0  0  0  0  0999 V2000
  -84.2673   33.9585   -0.8005 O   0  0  0  0  0  0  0  0  0  0  0  0
  -85.1304   32.9581   -0.7283 C   0  0  0  0  0  0  0  0  0  0  0  0
  -84.8569   32.0638    0.2633 N   0  0  0  0  0  0  0  0  0  0  0  0
  -83.9855   32.2510    0.9074 H   0  0  0  0  0  0  0  0  0  0  0  0
  -85.4971   30.8263    0.5359 C   0  0  0  0  0  0  0  0  0  0  0  0
  -86.7427   30.3929    0.3279 N   0  0  0  0  0  0  0  0  0  0  0  0
  -86.9368   29.1434    0.7495 C   0  0  0  0  0  0  0  0  0  0  0  0
  -87.9936   28.2508    0.7803 C   0  0  0  0  0  0  0  0  0  0  0  0
  -87.9258   26.9748    1.2968 C   0  0  0  0  0  0  0  0  0  0  0  0
  -86.6903   26.5929    1.8149 C   0  0  0  0  0  0  0  0  0  0  0  0
  -85.6141   27.4554    1.8009 C   0  0  0  0  0  0  0  0  0  0  0  0
  -85.7249   28.7354    1.2704 C   0  0  0  0  0  0  0  0  0  0  0  0
  -84.8752   29.7516    1.1351 N   0  0  0  0  0  0  0  0  0  0  0  0
  -83.8850   29.7220    1.4446 H   0  0  0  0  0  0  0  0  0  0  0  0
  -89.0717   26.0826    1.3323 C   0  0  0  0  0  0  0  0  0  0  0  0
  -89.2885   25.4721    2.4469 O   0  0  0  0  0  0  0  0  0  0  0  0
  -89.9495   25.8473    0.2302 C   0  0  0  0  0  0  0  0  0  0  0  0
  -91.2923   26.1152    0.2695 C   0  0  0  0  0  0  0  0  0  0  0  0
  -92.1258   25.9090   -0.8310 C   0  0  0  0  0  0  0  0  0  0  0  0
  -91.5685   25.4176   -1.9915 C   0  0  0  0  0  0  0  0  0  0  0  0
  -90.2180   25.1515   -2.0180 C   0  0  0  0  0  0  0  0  0  0  0  0
  -89.3767   25.3471   -0.9468 C   0  0  0  0  0  0  0  0  0  0  0  0
  -86.2065   33.0201   -1.7391 C   0  0  0  0  0  0  0  0  0  0  0  0
  -86.4045   34.0556   -2.6135 C   0  0  0  0  0  0  0  0  0  0  0  0
  -87.8154   33.5508   -3.4528 S   0  0  0  0  0  0  0  0  0  0  0  0
  -88.0644   32.0705   -2.6535 C   0  0  0  0  0  0  0  0  0  0  0  0
  -87.0762   32.0352   -1.7986 N   0  0  0  0  0  0  0  0  0  0  0  0
  -89.1363   31.0870   -2.8934 C   0  0  0  0  0  0  0  0  0  0  0  0
  -89.1064   29.8806   -2.2865 C   0  0  0  0  0  0  0  0  0  0  0  0
  -90.1351   28.9622   -2.5399 C   0  0  0  0  0  0  0  0  0  0  0  0
  -91.1793   29.2484   -3.3900 C   0  0  0  0  0  0  0  0  0  0  0  0
  -92.3160   28.5301   -3.8162 O   0  0  0  0  0  0  0  0  0  0  0  0
  -92.6949   29.0706   -5.0962 C   0  0  0  0  0  0  0  0  0  0  0  0
  -92.4069   30.5331   -4.8402 C   0  0  0  0  0  0  0  0  0  0  0  0
  -91.1920   30.4815   -3.9978 C   0  0  0  0  0  0  0  0  0  0  0  0
  -90.1659   31.4046   -3.7483 C   0  0  0  0  0  0  0  0  0  0  0  0
  1  2  2  0  0  0
  2  3  1  0  0  0
  3  5  1  0  0  0
  5  6  2  0  0  0
  6  7  1  0  0  0
  7  8  2  0  0  0
  8  9  1  0  0  0
  9 10  2  0  0  0
 10 11  1  0  0  0
 11 12  2  0  0  0
 12 13  1  0  0  0
  9 15  1  0  0  0
 15 16  2  0  0  0
 15 17  1  0  0  0
 17 18  2  0  0  0
 18 19  1  0  0  0
 19 20  2  0  0  0
 20 21  1  0  0  0
 21 22  2  0  0  0
  2 23  1  0  0  0
 23 24  2  0  0  0
 24 25  1  0  0  0
 25 26  1  0  0  0
 26 27  2  0  0  0
 26 28  1  0  0  0
 28 29  2  0  0  0
 29 30  1  0  0  0
 30 31  2  0  0  0
 31 32  1  0  0  0
 32 33  1  0  0  0
 33 34  1  0  0  0
 34 35  1  0  0  0
 35 36  2  0  0  0
 13  5  1  0  0  0
 22 17  1  0  0  0
 27 23  1  0  0  0
 36 28  1  0  0  0
 12  7  1  0  0  0
 35 31  1  0  0  0
  3  4  1  0  0  0
 13 14  1  0  0  0
M  END
> <minimizedAffinity>
-8.33007

> <CNNscore>
0.1070706993

> <CNNaffinity>
6.7107229233

> <CNN_VS>
0.7185217738

> <CNNaffinity_variance>
0.2140104771

$$$$
[H]c1sc(-c2c([H])c([H])c3c(c2[H])C([H])([H])C([H])([H])O3)nc1C(=O)N([H])c1nc2c([H])c(C(=O)c3c([H])c([H])c([H])c([H])c3[H])c([H])c([H])c2n1[H]


 36 41  0  0  0  0  0  0  0  0999 V2000
  -87.3968   36.9461   -5.7469 O   0  0  0  0  0  0  0  0  0  0  0  0
  -87.8231   35.8917   -5.0706 C   0  0  0  0  0  0  0  0  0  0  0  0
  -87.1079   35.6358   -3.9390 N   0  0  0  0  0  0  0  0  0  0  0  0
  -86.2793   36.3120   -3.6827 H   0  0  0  0  0  0  0  0  0  0  0  0
  -87.2149   34.5259   -3.0602 C   0  0  0  0  0  0  0  0  0  0  0  0
  -86.3191   33.6415   -2.6151 N   0  0  0  0  0  0  0  0  0  0  0  0
  -86.8472   32.7330   -1.7950 C   0  0  0  0  0  0  0  0  0  0  0  0
  -86.3869   31.6369   -1.0871 C   0  0  0  0  0  0  0  0  0  0  0  0
  -87.1732   30.8339   -0.2892 C   0  0  0  0  0  0  0  0  0  0  0  0
  -88.5201   31.1819   -0.2150 C   0  0  0  0  0  0  0  0  0  0  0  0
  -89.0147   32.2681   -0.9062 C   0  0  0  0  0  0  0  0  0  0  0  0
  -88.1871   33.0527   -1.7011 C   0  0  0  0  0  0  0  0  0  0  0  0
  -88.3909   34.1260   -2.4621 N   0  0  0  0  0  0  0  0  0  0  0  0
  -89.3146   34.5849   -2.5786 H   0  0  0  0  0  0  0  0  0  0  0  0
  -86.6493   29.6755    0.4137 C   0  0  0  0  0  0  0  0  0  0  0  0
  -87.4603   28.6860    0.5718 O   0  0  0  0  0  0  0  0  0  0  0  0
  -85.3207   29.5728    0.9284 C   0  0  0  0  0  0  0  0  0  0  0  0
  -84.3150   30.4386    0.5885 C   0  0  0  0  0  0  0  0  0  0  0  0
  -83.0322   30.3398    1.1299 C   0  0  0  0  0  0  0  0  0  0  0  0
  -82.7794   29.3324    2.0355 C   0  0  0  0  0  0  0  0  0  0  0  0
  -83.7983   28.4683    2.3680 C   0  0  0  0  0  0  0  0  0  0  0  0
  -85.0701   28.5460    1.8484 C   0  0  0  0  0  0  0  0  0  0  0  0
  -88.9824   35.2129   -5.6862 C   0  0  0  0  0  0  0  0  0  0  0  0
  -89.6154   35.6208   -6.8302 C   0  0  0  0  0  0  0  0  0  0  0  0
  -90.8833   34.4705   -6.9677 S   0  0  0  0  0  0  0  0  0  0  0  0
  -90.5353   33.5495   -5.5809 C   0  0  0  0  0  0  0  0  0  0  0  0
  -89.4872   34.1557   -5.0884 N   0  0  0  0  0  0  0  0  0  0  0  0
  -91.2534   32.3606   -5.0862 C   0  0  0  0  0  0  0  0  0  0  0  0
  -92.5306   32.1282   -5.4597 C   0  0  0  0  0  0  0  0  0  0  0  0
  -93.1912   30.9939   -4.9670 C   0  0  0  0  0  0  0  0  0  0  0  0
  -92.5807   30.1048   -4.1116 C   0  0  0  0  0  0  0  0  0  0  0  0
  -92.9986   28.9153   -3.4788 O   0  0  0  0  0  0  0  0  0  0  0  0
  -92.1891   28.7651   -2.2972 C   0  0  0  0  0  0  0  0  0  0  0  0
  -90.8679   29.2625   -2.8399 C   0  0  0  0  0  0  0  0  0  0  0  0
  -91.2807   30.3585   -3.7435 C   0  0  0  0  0  0  0  0  0  0  0  0
  -90.6143   31.4915   -4.2330 C   0  0  0  0  0  0  0  0  0  0  0  0
  1  2  2  0  0  0
  2  3  1  0  0  0
  3  5  1  0  0  0
  5  6  2  0  0  0
  6  7  1  0  0  0
  7  8  2  0  0  0
  8  9  1  0  0  0
  9 10  2  0  0  0
 10 11  1  0  0  0
 11 12  2  0  0  0
 12 13  1  0  0  0
  9 15  1  0  0  0
 15 16  2  0  0  0
 15 17  1  0  0  0
 17 18  2  0  0  0
 18 19  1  0  0  0
 19 20  2  0  0  0
 20 21  1  0  0  0
 21 22  2  0  0  0
  2 23  1  0  0  0
 23 24  2  0  0  0
 24 25  1  0  0  0
 25 26  1  0  0  0
 26 27  2  0  0  0
 26 28  1  0  0  0
 28 29  2  0  0  0
 29 30  1  0  0  0
 30 31  2  0  0  0
 31 32  1  0  0  0
 32 33  1  0  0  0
 33 34  1  0  0  0
 34 35  1  0  0  0
 35 36  2  0  0  0
 13  5  1  0  0  0
 22 17  1  0  0  0
 27 23  1  0  0  0
 36 28  1  0  0  0
 12  7  1  0  0  0
 35 31  1  0  0  0
  3  4  1  0  0  0
 13 14  1  0  0  0
M  END
> <minimizedAffinity>
-9.54149

> <CNNscore>
0.0947878212

> <CNNaffinity>
6.1333351135

> <CNN_VS>
0.5813654661

> <CNNaffinity_variance>
0.4158307910

$$$$
[H]c1c([H])c([H])c(C([H])(N([H])C(=O)c2c([H])c([H])c(Cl)c(N([H])C(=O)c3c([H])c4c([H])nc(N([H])C([H])([H])C([H])([H])N5C([H])([H])C([H])([H])N(C([H])([H])[H])C([H])([H])C5([H])[H])nc4n([H])c3=O)c2[H])C([H])([H])C([H])([H])N([H])[H])c([H])c1[H]


 50 54  0  0  0  0  0  0  0  0999 V2000
  -86.8937   31.9683   -1.4635 C   0  0  0  0  0  0  0  0  0  0  0  0
  -87.2769   30.8027   -1.8053 O   0  0  0  0  0  0  0  0  0  0  0  0
  -85.8763   32.1770   -0.5150 N   0  0  0  0  0  0  0  0  0  0  0  0
  -85.6071   33.1802   -0.3301 H   0  0  0  0  0  0  0  0  0  0  0  0
  -88.8979   37.0261   -4.8832 C   0  0  0  0  0  0  0  0  0  0  0  0
  -87.5776   36.8365   -5.0646 N   0  0  0  0  0  0  0  0  0  0  0  0
  -86.9112   35.8370   -4.4677 C   0  0  0  0  0  0  0  0  0  0  0  0
  -87.5776   34.9432   -3.6213 C   0  0  0  0  0  0  0  0  0  0  0  0
  -86.9188   33.9146   -2.9962 C   0  0  0  0  0  0  0  0  0  0  0  0
  -87.6174   33.0484   -2.1576 C   0  0  0  0  0  0  0  0  0  0  0  0
  -88.9577   33.2826   -2.0039 C   0  0  0  0  0  0  0  0  0  0  0  0
  -89.6899   32.5713   -1.2801 O   0  0  0  0  0  0  0  0  0  0  0  0
  -89.5760   34.3176   -2.6441 N   0  0  0  0  0  0  0  0  0  0  0  0
  -88.9193   35.1586   -3.4532 C   0  0  0  0  0  0  0  0  0  0  0  0
  -89.5274   36.1778   -4.0806 N   0  0  0  0  0  0  0  0  0  0  0  0
  -90.6068   34.4736   -2.5055 H   0  0  0  0  0  0  0  0  0  0  0  0
  -89.6058   38.0894   -5.4924 N   0  0  0  0  0  0  0  0  0  0  0  0
  -89.3806   38.2838   -6.5136 H   0  0  0  0  0  0  0  0  0  0  0  0
  -90.5837   38.9093   -4.8425 C   0  0  0  0  0  0  0  0  0  0  0  0
  -91.8934   38.8551   -5.6229 C   0  0  0  0  0  0  0  0  0  0  0  0
  -95.0138   36.2040   -2.6514 C   0  0  0  0  0  0  0  0  0  0  0  0
  -95.0655   37.5438   -3.1561 N   0  0  0  0  0  0  0  0  0  0  0  0
  -94.0287   38.4061   -2.6475 C   0  0  0  0  0  0  0  0  0  0  0  0
  -92.7494   38.3073   -3.4245 C   0  0  0  0  0  0  0  0  0  0  0  0
  -93.0290   38.5517   -4.8118 N   0  0  0  0  0  0  0  0  0  0  0  0
  -93.8634   37.4879   -5.3093 C   0  0  0  0  0  0  0  0  0  0  0  0
  -95.2024   37.6110   -4.5869 C   0  0  0  0  0  0  0  0  0  0  0  0
  -85.1823   31.1683    0.1858 C   0  0  0  0  0  0  0  0  0  0  0  0
  -85.6610   29.9676    0.6026 C   0  0  0  0  0  0  0  0  0  0  0  0
  -84.9210   29.0203    1.3328 C   0  0  0  0  0  0  0  0  0  0  0  0
  -83.6258   29.3818    1.6197 C   0  0  0  0  0  0  0  0  0  0  0  0
  -83.0807   30.5699    1.2327 C   0  0  0  0  0  0  0  0  0  0  0  0
  -83.8435   31.4597    0.5232 C   0  0  0  0  0  0  0  0  0  0  0  0
  -83.1363   32.9977    0.0182 Cl  0  0  0  0  0  0  0  0  0  0  0  0
  -85.5459   27.7884    1.7298 C   0  0  0  0  0  0  0  0  0  0  0  0
  -84.8634   26.9197    2.3138 O   0  0  0  0  0  0  0  0  0  0  0  0
  -86.8915   27.5441    1.4758 N   0  0  0  0  0  0  0  0  0  0  0  0
  -87.4681   28.2637    0.9923 H   0  0  0  0  0  0  0  0  0  0  0  0
  -87.6003   26.3333    1.8350 C   0  0  0  0  0  0  0  0  0  0  0  0
  -88.6064   26.4404    2.8561 C   0  0  0  0  0  0  0  0  0  0  0  0
  -89.0998   27.6942    3.1796 C   0  0  0  0  0  0  0  0  0  0  0  0
  -90.0421   27.8101    4.1893 C   0  0  0  0  0  0  0  0  0  0  0  0
  -90.5203   26.7222    4.8988 C   0  0  0  0  0  0  0  0  0  0  0  0
  -90.0388   25.4889    4.5851 C   0  0  0  0  0  0  0  0  0  0  0  0
  -89.1045   25.3695    3.5850 C   0  0  0  0  0  0  0  0  0  0  0  0
  -88.0016   25.7190    0.5176 C   0  0  0  0  0  0  0  0  0  0  0  0
  -88.4157   26.7024   -0.5336 C   0  0  0  0  0  0  0  0  0  0  0  0
  -87.5166   26.9937   -1.5697 N   0  0  0  0  0  0  0  0  0  0  0  0
  -87.8432   26.9054   -2.5374 H   0  0  0  0  0  0  0  0  0  0  0  0
  -86.7593   27.6529   -1.3996 H   0  0  0  0  0  0  0  0  0  0  0  0
 21 22  1  0  0  0
 22 23  1  0  0  0
 23 24  1  0  0  0
 24 25  1  0  0  0
 25 20  1  0  0  0
 20 19  1  0  0  0
 19 17  1  0  0  0
 17  5  1  0  0  0
  5  6  2  0  0  0
  6  7  1  0  0  0
  7  8  2  0  0  0
  8  9  1  0  0  0
  9 10  2  0  0  0
 10  1  1  0  0  0
  1  2  2  0  0  0
  1  3  1  0  0  0
  3 28  1  0  0  0
 28 29  2  0  0  0
 29 30  1  0  0  0
 30 31  2  0  0  0
 31 32  1  0  0  0
 32 33  2  0  0  0
 33 34  1  0  0  0
 30 35  1  0  0  0
 35 36  2  0  0  0
 35 37  1  0  0  0
 37 39  1  0  0  0
 39 46  1  0  0  0
 46 47  1  0  0  0
 47 48  1  0  0  0
 39 40  1  0  0  0
 40 41  2  0  0  0
 41 42  1  0  0  0
 42 43  2  0  0  0
 43 44  1  0  0  0
 44 45  2  0  0  0
 10 11  1  0  0  0
 11 12  2  0  0  0
 11 13  1  0  0  0
 13 14  1  0  0  0
 14 15  2  0  0  0
 25 26  1  0  0  0
 26 27  1  0  0  0
 27 22  1  0  0  0
 15  5  1  0  0  0
 14  8  1  0  0  0
 33 28  1  0  0  0
 45 40  1  0  0  0
 17 18  1  0  0  0
  3  4  1  0  0  0
 37 38  1  0  0  0
 48 49  1  0  0  0
 48 50  1  0  0  0
 13 16  1  0  0  0
M  END
> <minimizedAffinity>
-9.46890

> <CNNscore>
0.6430808902

> <CNNaffinity>
7.5716047287

> <CNN_VS>
4.8691544533

> <CNNaffinity_variance>
0.0182148200

$$$$
[H]c1c([H])c([H])c(C([H])(N([H])C(=O)c2c([H])c([H])c(Cl)c(N([H])C(=O)c3c([H])c4c([H])nc(N([H])C([H])([H])C([H])([H])N5C([H])([H])C([H])([H])N(C([H])([H])[H])C([H])([H])C5([H])[H])nc4n([H])c3=O)c2[H])C([H])([H])C([H])([H])N([H])[H])c([H])c1[H]


 50 54  0  0  0  0  0  0  0  0999 V2000
  -86.9348   32.0221   -1.5433 C   0  0  0  0  0  0  0  0  0  0  0  0
  -87.1800   30.8646   -2.0150 O   0  0  0  0  0  0  0  0  0  0  0  0
  -86.0177   32.2287   -0.4972 N   0  0  0  0  0  0  0  0  0  0  0  0
  -85.8585   33.2298   -0.2049 H   0  0  0  0  0  0  0  0  0  0  0  0
  -89.1321   37.1628   -4.7116 C   0  0  0  0  0  0  0  0  0  0  0  0
  -87.7932   37.0840   -4.8258 N   0  0  0  0  0  0  0  0  0  0  0  0
  -87.0854   36.0938   -4.2620 C   0  0  0  0  0  0  0  0  0  0  0  0
  -87.7264   35.0928   -3.5227 C   0  0  0  0  0  0  0  0  0  0  0  0
  -87.0257   34.0710   -2.9332 C   0  0  0  0  0  0  0  0  0  0  0  0
  -87.7005   33.0956   -2.2017 C   0  0  0  0  0  0  0  0  0  0  0  0
  -89.0612   33.2193   -2.1132 C   0  0  0  0  0  0  0  0  0  0  0  0
  -89.7751   32.4042   -1.4871 O   0  0  0  0  0  0  0  0  0  0  0  0
  -89.7214   34.2516   -2.7147 N   0  0  0  0  0  0  0  0  0  0  0  0
  -89.0880   35.1965   -3.4211 C   0  0  0  0  0  0  0  0  0  0  0  0
  -89.7375   36.2130   -4.0106 N   0  0  0  0  0  0  0  0  0  0  0  0
  -90.7671   34.3213   -2.6280 H   0  0  0  0  0  0  0  0  0  0  0  0
  -89.8853   38.2143   -5.2858 N   0  0  0  0  0  0  0  0  0  0  0  0
  -89.6151   39.2019   -4.9976 H   0  0  0  0  0  0  0  0  0  0  0  0
  -90.9679   38.0461   -6.2081 C   0  0  0  0  0  0  0  0  0  0  0  0
  -91.1706   39.3366   -6.9961 C   0  0  0  0  0  0  0  0  0  0  0  0
  -90.4833   37.4804  -11.6520 C   0  0  0  0  0  0  0  0  0  0  0  0
  -91.4279   38.4127  -11.1129 N   0  0  0  0  0  0  0  0  0  0  0  0
  -92.3432   37.8398  -10.1582 C   0  0  0  0  0  0  0  0  0  0  0  0
  -91.7900   37.8018   -8.7644 C   0  0  0  0  0  0  0  0  0  0  0  0
  -91.3748   39.1257   -8.3937 N   0  0  0  0  0  0  0  0  0  0  0  0
  -90.2717   39.5163   -9.2341 C   0  0  0  0  0  0  0  0  0  0  0  0
  -90.8253   39.6352  -10.6515 C   0  0  0  0  0  0  0  0  0  0  0  0
  -85.2889   31.2227    0.1716 C   0  0  0  0  0  0  0  0  0  0  0  0
  -85.7420   30.0177    0.6040 C   0  0  0  0  0  0  0  0  0  0  0  0
  -84.9663   29.0735    1.3003 C   0  0  0  0  0  0  0  0  0  0  0  0
  -83.6629   29.4429    1.5349 C   0  0  0  0  0  0  0  0  0  0  0  0
  -83.1421   30.6357    1.1295 C   0  0  0  0  0  0  0  0  0  0  0  0
  -83.9393   31.5223    0.4546 C   0  0  0  0  0  0  0  0  0  0  0  0
  -83.2637   33.0665   -0.0743 Cl  0  0  0  0  0  0  0  0  0  0  0  0
  -85.5661   27.8362    1.7188 C   0  0  0  0  0  0  0  0  0  0  0  0
  -84.8584   26.9781    2.2884 O   0  0  0  0  0  0  0  0  0  0  0  0
  -86.9151   27.5752    1.5015 N   0  0  0  0  0  0  0  0  0  0  0  0
  -87.5125   28.2859    1.0303 H   0  0  0  0  0  0  0  0  0  0  0  0
  -87.5999   26.3580    1.8844 C   0  0  0  0  0  0  0  0  0  0  0  0
  -88.6761   26.4802    2.8296 C   0  0  0  0  0  0  0  0  0  0  0  0
  -89.3378   25.3344    3.2410 C   0  0  0  0  0  0  0  0  0  0  0  0
  -90.4013   25.4475    4.1227 C   0  0  0  0  0  0  0  0  0  0  0  0
  -90.8398   26.6631    4.6184 C   0  0  0  0  0  0  0  0  0  0  0  0
  -90.1933   27.7911    4.2174 C   0  0  0  0  0  0  0  0  0  0  0  0
  -89.1388   27.6836    3.3433 C   0  0  0  0  0  0  0  0  0  0  0  0
  -87.8877   25.6542    0.5820 C   0  0  0  0  0  0  0  0  0  0  0  0
  -88.1645   26.5639   -0.5754 C   0  0  0  0  0  0  0  0  0  0  0  0
  -89.1791   27.5231   -0.4458 N   0  0  0  0  0  0  0  0  0  0  0  0
  -88.9536   28.5017   -0.6513 H   0  0  0  0  0  0  0  0  0  0  0  0
  -90.1493   27.2400   -0.5711 H   0  0  0  0  0  0  0  0  0  0  0  0
 21 22  1  0  0  0
 22 23  1  0  0  0
 23 24  1  0  0  0
 24 25  1  0  0  0
 25 20  1  0  0  0
 20 19  1  0  0  0
 19 17  1  0  0  0
 17  5  1  0  0  0
  5  6  2  0  0  0
  6  7  1  0  0  0
  7  8  2  0  0  0
  8  9  1  0  0  0
  9 10  2  0  0  0
 10  1  1  0  0  0
  1  2  2  0  0  0
  1  3  1  0  0  0
  3 28  1  0  0  0
 28 29  2  0  0  0
 29 30  1  0  0  0
 30 31  2  0  0  0
 31 32  1  0  0  0
 32 33  2  0  0  0
 33 34  1  0  0  0
 30 35  1  0  0  0
 35 36  2  0  0  0
 35 37  1  0  0  0
 37 39  1  0  0  0
 39 46  1  0  0  0
 46 47  1  0  0  0
 47 48  1  0  0  0
 39 40  1  0  0  0
 40 41  2  0  0  0
 41 42  1  0  0  0
 42 43  2  0  0  0
 43 44  1  0  0  0
 44 45  2  0  0  0
 10 11  1  0  0  0
 11 12  2  0  0  0
 11 13  1  0  0  0
 13 14  1  0  0  0
 14 15  2  0  0  0
 25 26  1  0  0  0
 26 27  1  0  0  0
 27 22  1  0  0  0
 15  5  1  0  0  0
 14  8  1  0  0  0
 33 28  1  0  0  0
 45 40  1  0  0  0
 17 18  1  0  0  0
  3  4  1  0  0  0
 37 38  1  0  0  0
 48 49  1  0  0  0
 48 50  1  0  0  0
 13 16  1  0  0  0
M  END
> <minimizedAffinity>
-8.91110

> <CNNscore>
0.5863413215

> <CNNaffinity>
7.4338889122

> <CNN_VS>
4.3587961197

> <CNNaffinity_variance>
0.1321836412

$$$$
[H]c1c([H])c([H])c(C([H])(N([H])C(=O)c2c([H])c([H])c(Cl)c(N([H])C(=O)c3c([H])c4c([H])nc(N([H])C([H])([H])C([H])([H])N5C([H])([H])C([H])([H])N(C([H])([H])[H])C([H])([H])C5([H])[H])nc4n([H])c3=O)c2[H])C([H])([H])C([H])([H])N([H])[H])c([H])c1[H]


 50 54  0  0  0  0  0  0  0  0999 V2000
  -86.9552   32.0712   -1.5805 C   0  0  0  0  0  0  0  0  0  0  0  0
  -87.1768   30.9231   -2.0855 O   0  0  0  0  0  0  0  0  0  0  0  0
  -86.0587   32.2628   -0.5138 N   0  0  0  0  0  0  0  0  0  0  0  0
  -85.9179   33.2581   -0.1935 H   0  0  0  0  0  0  0  0  0  0  0  0
  -89.1693   37.2921   -4.6026 C   0  0  0  0  0  0  0  0  0  0  0  0
  -87.8243   37.2633   -4.6499 N   0  0  0  0  0  0  0  0  0  0  0  0
  -87.1115   36.2694   -4.0991 C   0  0  0  0  0  0  0  0  0  0  0  0
  -87.7534   35.2113   -3.4450 C   0  0  0  0  0  0  0  0  0  0  0  0
  -87.0478   34.1843   -2.8705 C   0  0  0  0  0  0  0  0  0  0  0  0
  -87.7239   33.1512   -2.2246 C   0  0  0  0  0  0  0  0  0  0  0  0
  -89.0909   33.2254   -2.2018 C   0  0  0  0  0  0  0  0  0  0  0  0
  -89.8064   32.3564   -1.6551 O   0  0  0  0  0  0  0  0  0  0  0  0
  -89.7558   34.2648   -2.7856 N   0  0  0  0  0  0  0  0  0  0  0  0
  -89.1212   35.2650   -3.4102 C   0  0  0  0  0  0  0  0  0  0  0  0
  -89.7755   36.2883   -3.9821 N   0  0  0  0  0  0  0  0  0  0  0  0
  -90.8064   34.2956   -2.7508 H   0  0  0  0  0  0  0  0  0  0  0  0
  -89.9291   38.3462   -5.1631 N   0  0  0  0  0  0  0  0  0  0  0  0
  -89.5705   39.3324   -4.9890 H   0  0  0  0  0  0  0  0  0  0  0  0
  -91.1265   38.1827   -5.9314 C   0  0  0  0  0  0  0  0  0  0  0  0
  -90.7773   37.6155   -7.3039 C   0  0  0  0  0  0  0  0  0  0  0  0
  -93.4329   33.4781   -8.4978 C   0  0  0  0  0  0  0  0  0  0  0  0
  -92.1335   33.6601   -7.9226 N   0  0  0  0  0  0  0  0  0  0  0  0
  -91.1758   34.2707   -8.8099 C   0  0  0  0  0  0  0  0  0  0  0  0
  -91.2404   35.7693   -8.8017 C   0  0  0  0  0  0  0  0  0  0  0  0
  -91.1020   36.2324   -7.4493 N   0  0  0  0  0  0  0  0  0  0  0  0
  -92.2465   35.7947   -6.6917 C   0  0  0  0  0  0  0  0  0  0  0  0
  -92.1651   34.2721   -6.6208 C   0  0  0  0  0  0  0  0  0  0  0  0
  -85.3278   31.2497    0.1416 C   0  0  0  0  0  0  0  0  0  0  0  0
  -85.7799   30.0402    0.5628 C   0  0  0  0  0  0  0  0  0  0  0  0
  -85.0020   29.0884    1.2464 C   0  0  0  0  0  0  0  0  0  0  0  0
  -83.6976   29.4550    1.4803 C   0  0  0  0  0  0  0  0  0  0  0  0
  -83.1779   30.6519    1.0858 C   0  0  0  0  0  0  0  0  0  0  0  0
  -83.9772   31.5458    0.4232 C   0  0  0  0  0  0  0  0  0  0  0  0
  -83.3030   33.0954   -0.0917 Cl  0  0  0  0  0  0  0  0  0  0  0  0
  -85.6007   27.8470    1.6538 C   0  0  0  0  0  0  0  0  0  0  0  0
  -84.8904   26.9811    2.2082 O   0  0  0  0  0  0  0  0  0  0  0  0
  -86.9515   27.5904    1.4423 N   0  0  0  0  0  0  0  0  0  0  0  0
  -87.5511   28.3076    0.9838 H   0  0  0  0  0  0  0  0  0  0  0  0
  -87.6355   26.3695    1.8150 C   0  0  0  0  0  0  0  0  0  0  0  0
  -88.6484   26.4686    2.8301 C   0  0  0  0  0  0  0  0  0  0  0  0
  -89.0685   27.7255    3.2349 C   0  0  0  0  0  0  0  0  0  0  0  0
  -90.0171   27.8301    4.2401 C   0  0  0  0  0  0  0  0  0  0  0  0
  -90.5720   26.7278    4.8667 C   0  0  0  0  0  0  0  0  0  0  0  0
  -90.1627   25.4914    4.4729 C   0  0  0  0  0  0  0  0  0  0  0  0
  -89.2225   25.3831    3.4770 C   0  0  0  0  0  0  0  0  0  0  0  0
  -88.0173   25.7287    0.5043 C   0  0  0  0  0  0  0  0  0  0  0  0
  -88.4063   26.6913   -0.5754 C   0  0  0  0  0  0  0  0  0  0  0  0
  -87.4957   26.9378   -1.6130 N   0  0  0  0  0  0  0  0  0  0  0  0
  -87.8181   26.8299   -2.5801 H   0  0  0  0  0  0  0  0  0  0  0  0
  -86.7271   27.5871   -1.4556 H   0  0  0  0  0  0  0  0  0  0  0  0
 21 22  1  0  0  0
 22 23  1  0  0  0
 23 24  1  0  0  0
 24 25  1  0  0  0
 25 20  1  0  0  0
 20 19  1  0  0  0
 19 17  1  0  0  0
 17  5  1  0  0  0
  5  6  2  0  0  0
  6  7  1  0  0  0
  7  8  2  0  0  0
  8  9  1  0  0  0
  9 10  2  0  0  0
 10  1  1  0  0  0
  1  2  2  0  0  0
  1  3  1  0  0  0
  3 28  1  0  0  0
 28 29  2  0  0  0
 29 30  1  0  0  0
 30 31  2  0  0  0
 31 32  1  0  0  0
 32 33  2  0  0  0
 33 34  1  0  0  0
 30 35  1  0  0  0
 35 36  2  0  0  0
 35 37  1  0  0  0
 37 39  1  0  0  0
 39 46  1  0  0  0
 46 47  1  0  0  0
 47 48  1  0  0  0
 39 40  1  0  0  0
 40 41  2  0  0  0
 41 42  1  0  0  0
 42 43  2  0  0  0
 43 44  1  0  0  0
 44 45  2  0  0  0
 10 11  1  0  0  0
 11 12  2  0  0  0
 11 13  1  0  0  0
 13 14  1  0  0  0
 14 15  2  0  0  0
 25 26  1  0  0  0
 26 27  1  0  0  0
 27 22  1  0  0  0
 15  5  1  0  0  0
 14  8  1  0  0  0
 33 28  1  0  0  0
 45 40  1  0  0  0
 17 18  1  0  0  0
  3  4  1  0  0  0
 37 38  1  0  0  0
 48 49  1  0  0  0
 48 50  1  0  0  0
 13 16  1  0  0  0
M  END
> <minimizedAffinity>
-9.61421

> <CNNscore>
0.5764720440

> <CNNaffinity>
7.5496416092

> <CNN_VS>
4.3521571159

> <CNNaffinity_variance>
0.0312131308

$$$$
[H]c1c([H])c([H])c(C([H])(N([H])C(=O)c2c([H])c([H])c(Cl)c(N([H])C(=O)c3c([H])c4c([H])nc(N([H])C([H])([H])C([H])([H])N5C([H])([H])C([H])([H])N(C([H])([H])[H])C([H])([H])C5([H])[H])nc4n([H])c3=O)c2[H])C([H])([H])C([H])([H])N([H])[H])c([H])c1[H]


 50 54  0  0  0  0  0  0  0  0999 V2000
  -86.6272   31.6843   -1.0214 C   0  0  0  0  0  0  0  0  0  0  0  0
  -87.5386   30.7968   -0.9585 O   0  0  0  0  0  0  0  0  0  0  0  0
  -85.3914   31.5404   -0.3655 N   0  0  0  0  0  0  0  0  0  0  0  0
  -84.6905   32.3152   -0.5119 H   0  0  0  0  0  0  0  0  0  0  0  0
  -89.4279   36.2706   -4.5448 C   0  0  0  0  0  0  0  0  0  0  0  0
  -90.3551   35.4176   -4.0710 N   0  0  0  0  0  0  0  0  0  0  0  0
  -90.0331   34.3713   -3.2958 C   0  0  0  0  0  0  0  0  0  0  0  0
  -88.6992   34.1270   -2.9485 C   0  0  0  0  0  0  0  0  0  0  0  0
  -88.3427   33.0623   -2.1600 C   0  0  0  0  0  0  0  0  0  0  0  0
  -87.0030   32.8508   -1.8400 C   0  0  0  0  0  0  0  0  0  0  0  0
  -86.0975   33.7444   -2.3462 C   0  0  0  0  0  0  0  0  0  0  0  0
  -84.8686   33.6604   -2.1253 O   0  0  0  0  0  0  0  0  0  0  0  0
  -86.4931   34.7914   -3.1275 N   0  0  0  0  0  0  0  0  0  0  0  0
  -87.7760   35.0086   -3.4439 C   0  0  0  0  0  0  0  0  0  0  0  0
  -88.1645   36.0372   -4.2144 N   0  0  0  0  0  0  0  0  0  0  0  0
  -85.7744   35.4608   -3.5034 H   0  0  0  0  0  0  0  0  0  0  0  0
  -89.7555   37.3654   -5.3795 N   0  0  0  0  0  0  0  0  0  0  0  0
  -89.0119   38.1186   -5.4856 H   0  0  0  0  0  0  0  0  0  0  0  0
  -90.9958   37.5299   -6.0764 C   0  0  0  0  0  0  0  0  0  0  0  0
  -91.5775   38.9049   -5.7629 C   0  0  0  0  0  0  0  0  0  0  0  0
  -95.4706   38.6802   -2.5398 C   0  0  0  0  0  0  0  0  0  0  0  0
  -95.4020   38.7655   -3.9682 N   0  0  0  0  0  0  0  0  0  0  0  0
  -94.8500   40.0030   -4.4594 C   0  0  0  0  0  0  0  0  0  0  0  0
  -93.3514   39.9927   -4.5235 C   0  0  0  0  0  0  0  0  0  0  0  0
  -92.9279   38.8614   -5.3002 N   0  0  0  0  0  0  0  0  0  0  0  0
  -93.2903   37.6570   -4.5978 C   0  0  0  0  0  0  0  0  0  0  0  0
  -94.8157   37.6041   -4.5829 C   0  0  0  0  0  0  0  0  0  0  0  0
  -85.0099   30.4508    0.4455 C   0  0  0  0  0  0  0  0  0  0  0  0
  -85.7371   29.3432    0.7435 C   0  0  0  0  0  0  0  0  0  0  0  0
  -85.3075   28.3080    1.5932 C   0  0  0  0  0  0  0  0  0  0  0  0
  -84.0552   28.4753    2.1355 C   0  0  0  0  0  0  0  0  0  0  0  0
  -83.2715   29.5610    1.8797 C   0  0  0  0  0  0  0  0  0  0  0  0
  -83.7359   30.5433    1.0451 C   0  0  0  0  0  0  0  0  0  0  0  0
  -82.7191   31.9485    0.7103 Cl  0  0  0  0  0  0  0  0  0  0  0  0
  -86.1771   27.1911    1.8424 C   0  0  0  0  0  0  0  0  0  0  0  0
  -85.7949   26.2805    2.6081 O   0  0  0  0  0  0  0  0  0  0  0  0
  -87.4318   27.1033    1.2482 N   0  0  0  0  0  0  0  0  0  0  0  0
  -87.7592   27.8590    0.6112 H   0  0  0  0  0  0  0  0  0  0  0  0
  -88.3689   26.0156    1.4383 C   0  0  0  0  0  0  0  0  0  0  0  0
  -89.2653   26.1100    2.5581 C   0  0  0  0  0  0  0  0  0  0  0  0
  -89.7518   24.9431    3.1252 C   0  0  0  0  0  0  0  0  0  0  0  0
  -90.6464   25.0262    4.1806 C   0  0  0  0  0  0  0  0  0  0  0  0
  -91.0827   26.2316    4.7022 C   0  0  0  0  0  0  0  0  0  0  0  0
  -90.6080   27.3803    4.1487 C   0  0  0  0  0  0  0  0  0  0  0  0
  -89.7212   27.3026    3.1022 C   0  0  0  0  0  0  0  0  0  0  0  0
  -88.9720   25.7867    0.0752 C   0  0  0  0  0  0  0  0  0  0  0  0
  -89.6980   24.4857   -0.0797 C   0  0  0  0  0  0  0  0  0  0  0  0
  -88.9513   23.2987   -0.0876 N   0  0  0  0  0  0  0  0  0  0  0  0
  -89.2178   22.5511    0.5611 H   0  0  0  0  0  0  0  0  0  0  0  0
  -88.4769   23.0160   -0.9433 H   0  0  0  0  0  0  0  0  0  0  0  0
 21 22  1  0  0  0
 22 23  1  0  0  0
 23 24  1  0  0  0
 24 25  1  0  0  0
 25 20  1  0  0  0
 20 19  1  0  0  0
 19 17  1  0  0  0
 17  5  1  0  0  0
  5  6  2  0  0  0
  6  7  1  0  0  0
  7  8  2  0  0  0
  8  9  1  0  0  0
  9 10  2  0  0  0
 10  1  1  0  0  0
  1  2  2  0  0  0
  1  3  1  0  0  0
  3 28  1  0  0  0
 28 29  2  0  0  0
 29 30  1  0  0  0
 30 31  2  0  0  0
 31 32  1  0  0  0
 32 33  2  0  0  0
 33 34  1  0  0  0
 30 35  1  0  0  0
 35 36  2  0  0  0
 35 37  1  0  0  0
 37 39  1  0  0  0
 39 46  1  0  0  0
 46 47  1  0  0  0
 47 48  1  0  0  0
 39 40  1  0  0  0
 40 41  2  0  0  0
 41 42  1  0  0  0
 42 43  2  0  0  0
 43 44  1  0  0  0
 44 45  2  0  0  0
 10 11  1  0  0  0
 11 12  2  0  0  0
 11 13  1  0  0  0
 13 14  1  0  0  0
 14 15  2  0  0  0
 25 26  1  0  0  0
 26 27  1  0  0  0
 27 22  1  0  0  0
 15  5  1  0  0  0
 14  8  1  0  0  0
 33 28  1  0  0  0
 45 40  1  0  0  0
 17 18  1  0  0  0
  3  4  1  0  0  0
 37 38  1  0  0  0
 48 49  1  0  0  0
 48 50  1  0  0  0
 13 16  1  0  0  0
M  END
> <minimizedAffinity>
-8.37747

> <CNNscore>
0.5256291628

> <CNNaffinity>
7.4576482773

> <CNN_VS>
3.9199573994

> <CNNaffinity_variance>
0.0909560919

$$$$
[H]c1c([H])c([H])c(C([H])(N([H])C(=O)c2c([H])c([H])c(Cl)c(N([H])C(=O)c3c([H])c4c([H])nc(N([H])C([H])([H])C([H])([H])N5C([H])([H])C([H])([H])N(C([H])([H])[H])C([H])([H])C5([H])[H])nc4n([H])c3=O)c2[H])C([H])([H])C([H])([H])N([H])[H])c([H])c1[H]


 50 54  0  0  0  0  0  0  0  0999 V2000
  -86.8849   31.9756   -1.5047 C   0  0  0  0  0  0  0  0  0  0  0  0
  -87.2168   30.8152   -1.9116 O   0  0  0  0  0  0  0  0  0  0  0  0
  -85.9176   32.1726   -0.5028 N   0  0  0  0  0  0  0  0  0  0  0  0
  -85.6877   33.1742   -0.2644 H   0  0  0  0  0  0  0  0  0  0  0  0
  -88.8974   37.0540   -4.8887 C   0  0  0  0  0  0  0  0  0  0  0  0
  -87.5827   36.8504   -5.0940 N   0  0  0  0  0  0  0  0  0  0  0  0
  -86.9161   35.8440   -4.5090 C   0  0  0  0  0  0  0  0  0  0  0  0
  -87.5765   34.9573   -3.6505 C   0  0  0  0  0  0  0  0  0  0  0  0
  -86.9174   33.9219   -3.0371 C   0  0  0  0  0  0  0  0  0  0  0  0
  -87.6098   33.0631   -2.1858 C   0  0  0  0  0  0  0  0  0  0  0  0
  -88.9445   33.3114   -2.0080 C   0  0  0  0  0  0  0  0  0  0  0  0
  -89.6709   32.6080   -1.2708 O   0  0  0  0  0  0  0  0  0  0  0  0
  -89.5634   34.3528   -2.6370 N   0  0  0  0  0  0  0  0  0  0  0  0
  -88.9126   35.1868   -3.4581 C   0  0  0  0  0  0  0  0  0  0  0  0
  -89.5212   36.2124   -4.0747 N   0  0  0  0  0  0  0  0  0  0  0  0
  -90.5897   34.5197   -2.4799 H   0  0  0  0  0  0  0  0  0  0  0  0
  -89.6050   38.1245   -5.4854 N   0  0  0  0  0  0  0  0  0  0  0  0
  -90.4317   37.8608   -6.1005 H   0  0  0  0  0  0  0  0  0  0  0  0
  -89.2908   39.5125   -5.3251 C   0  0  0  0  0  0  0  0  0  0  0  0
  -88.8637   40.0963   -6.6683 C   0  0  0  0  0  0  0  0  0  0  0  0
  -83.9530   38.9454   -6.2737 C   0  0  0  0  0  0  0  0  0  0  0  0
  -84.6425   40.0435   -6.8827 N   0  0  0  0  0  0  0  0  0  0  0  0
  -85.4544   39.6753   -8.0151 C   0  0  0  0  0  0  0  0  0  0  0  0
  -86.8253   39.2062   -7.6268 C   0  0  0  0  0  0  0  0  0  0  0  0
  -87.4480   40.2141   -6.8151 N   0  0  0  0  0  0  0  0  0  0  0  0
  -86.7170   40.3287   -5.5790 C   0  0  0  0  0  0  0  0  0  0  0  0
  -85.3383   40.8765   -5.9380 C   0  0  0  0  0  0  0  0  0  0  0  0
  -85.2251   31.1551    0.1867 C   0  0  0  0  0  0  0  0  0  0  0  0
  -85.7109   29.9587    0.6076 C   0  0  0  0  0  0  0  0  0  0  0  0
  -84.9712   29.0021    1.3259 C   0  0  0  0  0  0  0  0  0  0  0  0
  -83.6685   29.3492    1.5961 C   0  0  0  0  0  0  0  0  0  0  0  0
  -83.1160   30.5322    1.2040 C   0  0  0  0  0  0  0  0  0  0  0  0
  -83.8788   31.4316    0.5066 C   0  0  0  0  0  0  0  0  0  0  0  0
  -83.1622   32.9631   -0.0049 Cl  0  0  0  0  0  0  0  0  0  0  0  0
  -85.6037   27.7761    1.7289 C   0  0  0  0  0  0  0  0  0  0  0  0
  -84.9375   26.9239    2.3547 O   0  0  0  0  0  0  0  0  0  0  0  0
  -86.9390   27.5194    1.4353 N   0  0  0  0  0  0  0  0  0  0  0  0
  -87.5021   28.2252    0.9169 H   0  0  0  0  0  0  0  0  0  0  0  0
  -87.6542   26.3132    1.7973 C   0  0  0  0  0  0  0  0  0  0  0  0
  -88.6132   26.4140    2.8633 C   0  0  0  0  0  0  0  0  0  0  0  0
  -89.1583   27.6536    3.1571 C   0  0  0  0  0  0  0  0  0  0  0  0
  -90.0549   27.7660    4.2081 C   0  0  0  0  0  0  0  0  0  0  0  0
  -90.4371   26.6882    4.9878 C   0  0  0  0  0  0  0  0  0  0  0  0
  -89.9045   25.4689    4.7034 C   0  0  0  0  0  0  0  0  0  0  0  0
  -89.0153   25.3530    3.6626 C   0  0  0  0  0  0  0  0  0  0  0  0
  -88.1232   25.7373    0.4848 C   0  0  0  0  0  0  0  0  0  0  0  0
  -88.4020   26.7512   -0.5819 C   0  0  0  0  0  0  0  0  0  0  0  0
  -87.4585   26.9238   -1.6049 N   0  0  0  0  0  0  0  0  0  0  0  0
  -87.7777   26.8641   -2.5772 H   0  0  0  0  0  0  0  0  0  0  0  0
  -86.6318   27.4915   -1.4276 H   0  0  0  0  0  0  0  0  0  0  0  0
 21 22  1  0  0  0
 22 23  1  0  0  0
 23 24  1  0  0  0
 24 25  1  0  0  0
 25 20  1  0  0  0
 20 19  1  0  0  0
 19 17  1  0  0  0
 17  5  1  0  0  0
  5  6  2  0  0  0
  6  7  1  0  0  0
  7  8  2  0  0  0
  8  9  1  0  0  0
  9 10  2  0  0  0
 10  1  1  0  0  0
  1  2  2  0  0  0
  1  3  1  0  0  0
  3 28  1  0  0  0
 28 29  2  0  0  0
 29 30  1  0  0  0
 30 31  2  0  0  0
 31 32  1  0  0  0
 32 33  2  0  0  0
 33 34  1  0  0  0
 30 35  1  0  0  0
 35 36  2  0  0  0
 35 37  1  0  0  0
 37 39  1  0  0  0
 39 46  1  0  0  0
 46 47  1  0  0  0
 47 48  1  0  0  0
 39 40  1  0  0  0
 40 41  2  0  0  0
 41 42  1  0  0  0
 42 43  2  0  0  0
 43 44  1  0  0  0
 44 45  2  0  0  0
 10 11  1  0  0  0
 11 12  2  0  0  0
 11 13  1  0  0  0
 13 14  1  0  0  0
 14 15  2  0  0  0
 25 26  1  0  0  0
 26 27  1  0  0  0
 27 22  1  0  0  0
 15  5  1  0  0  0
 14  8  1  0  0  0
 33 28  1  0  0  0
 45 40  1  0  0  0
 17 18  1  0  0  0
  3  4  1  0  0  0
 37 38  1  0  0  0
 48 49  1  0  0  0
 48 50  1  0  0  0
 13 16  1  0  0  0
M  END
> <minimizedAffinity>
-9.68810

> <CNNscore>
0.4927437007

> <CNNaffinity>
7.5166335106

> <CNN_VS>
3.7037737370

> <CNNaffinity_variance>
0.0527953617

$$$$
[H]c1c([H])c([H])c(C([H])(N([H])C(=O)c2c([H])c([H])c(Cl)c(N([H])C(=O)c3c([H])c4c([H])nc(N([H])C([H])([H])C([H])([H])N5C([H])([H])C([H])([H])N(C([H])([H])[H])C([H])([H])C5([H])[H])nc4n([H])c3=O)c2[H])C([H])([H])C([H])([H])N([H])[H])c([H])c1[H]


 50 54  0  0  0  0  0  0  0  0999 V2000
  -86.9577   32.5654   -1.5091 C   0  0  0  0  0  0  0  0  0  0  0  0
  -87.8674   32.4257   -0.6287 O   0  0  0  0  0  0  0  0  0  0  0  0
  -85.6918   31.9654   -1.3836 N   0  0  0  0  0  0  0  0  0  0  0  0
  -85.0226   32.1119   -2.1859 H   0  0  0  0  0  0  0  0  0  0  0  0
  -88.8185   37.1501   -5.6091 C   0  0  0  0  0  0  0  0  0  0  0  0
  -88.5878   37.6799   -4.3934 N   0  0  0  0  0  0  0  0  0  0  0  0
  -88.1780   36.9349   -3.3559 C   0  0  0  0  0  0  0  0  0  0  0  0
  -87.9739   35.5581   -3.5052 C   0  0  0  0  0  0  0  0  0  0  0  0
  -87.5582   34.7731   -2.4595 C   0  0  0  0  0  0  0  0  0  0  0  0
  -87.3704   33.4052   -2.6477 C   0  0  0  0  0  0  0  0  0  0  0  0
  -87.6189   32.9132   -3.9010 C   0  0  0  0  0  0  0  0  0  0  0  0
  -87.4826   31.7038   -4.1921 O   0  0  0  0  0  0  0  0  0  0  0  0
  -88.0314   33.7282   -4.9154 N   0  0  0  0  0  0  0  0  0  0  0  0
  -88.2163   35.0443   -4.7510 C   0  0  0  0  0  0  0  0  0  0  0  0
  -88.6244   35.8451   -5.7483 N   0  0  0  0  0  0  0  0  0  0  0  0
  -88.2160   33.3214   -5.8674 H   0  0  0  0  0  0  0  0  0  0  0  0
  -89.2702   37.9241   -6.7044 N   0  0  0  0  0  0  0  0  0  0  0  0
  -90.2468   37.7076   -7.0659 H   0  0  0  0  0  0  0  0  0  0  0  0
  -88.5182   38.9573   -7.3509 C   0  0  0  0  0  0  0  0  0  0  0  0
  -87.1052   38.4570   -7.6346 C   0  0  0  0  0  0  0  0  0  0  0  0
  -84.7241   40.5421   -3.6877 C   0  0  0  0  0  0  0  0  0  0  0  0
  -84.3791   40.4257   -5.0733 N   0  0  0  0  0  0  0  0  0  0  0  0
  -84.1502   39.0722   -5.5125 C   0  0  0  0  0  0  0  0  0  0  0  0
  -85.4111   38.3616   -5.9063 C   0  0  0  0  0  0  0  0  0  0  0  0
  -86.0964   39.1461   -6.8949 N   0  0  0  0  0  0  0  0  0  0  0  0
  -86.5249   40.3809   -6.2891 C   0  0  0  0  0  0  0  0  0  0  0  0
  -85.2579   41.1595   -5.9449 C   0  0  0  0  0  0  0  0  0  0  0  0
  -85.2559   31.1785   -0.2968 C   0  0  0  0  0  0  0  0  0  0  0  0
  -85.7770   30.0021    0.1380 C   0  0  0  0  0  0  0  0  0  0  0  0
  -85.3141   29.2861    1.2566 C   0  0  0  0  0  0  0  0  0  0  0  0
  -84.2569   29.8586    1.9236 C   0  0  0  0  0  0  0  0  0  0  0  0
  -83.6854   31.0362    1.5428 C   0  0  0  0  0  0  0  0  0  0  0  0
  -84.1733   31.6961    0.4457 C   0  0  0  0  0  0  0  0  0  0  0  0
  -83.4305   33.2201   -0.0504 Cl  0  0  0  0  0  0  0  0  0  0  0  0
  -85.9600   28.0563    1.6256 C   0  0  0  0  0  0  0  0  0  0  0  0
  -85.3360   27.2247    2.3190 O   0  0  0  0  0  0  0  0  0  0  0  0
  -87.2620   27.7736    1.2259 N   0  0  0  0  0  0  0  0  0  0  0  0
  -87.7901   28.4622    0.6505 H   0  0  0  0  0  0  0  0  0  0  0  0
  -87.9871   26.5617    1.5469 C   0  0  0  0  0  0  0  0  0  0  0  0
  -88.8365   26.5929    2.7061 C   0  0  0  0  0  0  0  0  0  0  0  0
  -88.8350   25.5058    3.5654 C   0  0  0  0  0  0  0  0  0  0  0  0
  -89.6793   25.5117    4.6646 C   0  0  0  0  0  0  0  0  0  0  0  0
  -90.5338   26.5625    4.9496 C   0  0  0  0  0  0  0  0  0  0  0  0
  -90.5390   27.6323    4.1089 C   0  0  0  0  0  0  0  0  0  0  0  0
  -89.7039   27.6305    3.0180 C   0  0  0  0  0  0  0  0  0  0  0  0
  -88.6004   26.1246    0.2403 C   0  0  0  0  0  0  0  0  0  0  0  0
  -89.5049   24.9347    0.3383 C   0  0  0  0  0  0  0  0  0  0  0  0
  -88.9789   23.6678    0.0472 N   0  0  0  0  0  0  0  0  0  0  0  0
  -89.0985   22.9201    0.7382 H   0  0  0  0  0  0  0  0  0  0  0  0
  -88.8808   23.3821   -0.9254 H   0  0  0  0  0  0  0  0  0  0  0  0
 21 22  1  0  0  0
 22 23  1  0  0  0
 23 24  1  0  0  0
 24 25  1  0  0  0
 25 20  1  0  0  0
 20 19  1  0  0  0
 19 17  1  0  0  0
 17  5  1  0  0  0
  5  6  2  0  0  0
  6  7  1  0  0  0
  7  8  2  0  0  0
  8  9  1  0  0  0
  9 10  2  0  0  0
 10  1  1  0  0  0
  1  2  2  0  0  0
  1  3  1  0  0  0
  3 28  1  0  0  0
 28 29  2  0  0  0
 29 30  1  0  0  0
 30 31  2  0  0  0
 31 32  1  0  0  0
 32 33  2  0  0  0
 33 34  1  0  0  0
 30 35  1  0  0  0
 35 36  2  0  0  0
 35 37  1  0  0  0
 37 39  1  0  0  0
 39 46  1  0  0  0
 46 47  1  0  0  0
 47 48  1  0  0  0
 39 40  1  0  0  0
 40 41  2  0  0  0
 41 42  1  0  0  0
 42 43  2  0  0  0
 43 44  1  0  0  0
 44 45  2  0  0  0
 10 11  1  0  0  0
 11 12  2  0  0  0
 11 13  1  0  0  0
 13 14  1  0  0  0
 14 15  2  0  0  0
 25 26  1  0  0  0
 26 27  1  0  0  0
 27 22  1  0  0  0
 15  5  1  0  0  0
 14  8  1  0  0  0
 33 28  1  0  0  0
 45 40  1  0  0  0
 17 18  1  0  0  0
  3  4  1  0  0  0
 37 38  1  0  0  0
 48 49  1  0  0  0
 48 50  1  0  0  0
 13 16  1  0  0  0
M  END
> <minimizedAffinity>
-8.99693

> <CNNscore>
0.4706990719

> <CNNaffinity>
7.4071488380

> <CNN_VS>
3.4865381718

> <CNNaffinity_variance>
0.0676341802

$$$$
[H]c1c([H])c([H])c(C([H])(N([H])C(=O)c2c([H])c([H])c(Cl)c(N([H])C(=O)c3c([H])c4c([H])nc(N([H])C([H])([H])C([H])([H])N5C([H])([H])C([H])([H])N(C([H])([H])[H])C([H])([H])C5([H])[H])nc4n([H])c3=O)c2[H])C([H])([H])C([H])([H])N([H])[H])c([H])c1[H]


 50 54  0  0  0  0  0  0  0  0999 V2000
  -87.2343   32.5350   -2.0125 C   0  0  0  0  0  0  0  0  0  0  0  0
  -86.9622   31.6016   -2.8353 O   0  0  0  0  0  0  0  0  0  0  0  0
  -86.7391   32.5447   -0.6961 N   0  0  0  0  0  0  0  0  0  0  0  0
  -86.9923   33.3822   -0.1067 H   0  0  0  0  0  0  0  0  0  0  0  0
  -90.0358   37.8503   -4.2911 C   0  0  0  0  0  0  0  0  0  0  0  0
  -88.7449   38.0946   -3.9983 N   0  0  0  0  0  0  0  0  0  0  0  0
  -87.9307   37.1454   -3.5132 C   0  0  0  0  0  0  0  0  0  0  0  0
  -88.4045   35.8472   -3.2908 C   0  0  0  0  0  0  0  0  0  0  0  0
  -87.5936   34.8589   -2.7924 C   0  0  0  0  0  0  0  0  0  0  0  0
  -88.1045   33.5798   -2.5811 C   0  0  0  0  0  0  0  0  0  0  0  0
  -89.4227   33.3808   -2.8928 C   0  0  0  0  0  0  0  0  0  0  0  0
  -89.9922   32.2757   -2.7494 O   0  0  0  0  0  0  0  0  0  0  0  0
  -90.1964   34.3910   -3.3869 N   0  0  0  0  0  0  0  0  0  0  0  0
  -89.7208   35.6253   -3.5959 C   0  0  0  0  0  0  0  0  0  0  0  0
  -90.4827   36.6192   -4.0795 N   0  0  0  0  0  0  0  0  0  0  0  0
  -91.2065   34.2085   -3.6158 H   0  0  0  0  0  0  0  0  0  0  0  0
  -90.9077   38.8499   -4.7842 N   0  0  0  0  0  0  0  0  0  0  0  0
  -91.7023   39.1439   -4.1411 H   0  0  0  0  0  0  0  0  0  0  0  0
  -90.8001   39.4801   -6.0657 C   0  0  0  0  0  0  0  0  0  0  0  0
  -90.2835   38.4717   -7.0873 C   0  0  0  0  0  0  0  0  0  0  0  0
  -85.3473   39.4863   -7.5341 C   0  0  0  0  0  0  0  0  0  0  0  0
  -86.4304   39.5237   -8.4709 N   0  0  0  0  0  0  0  0  0  0  0  0
  -87.0040   38.2338   -8.7614 C   0  0  0  0  0  0  0  0  0  0  0  0
  -88.0530   37.8215   -7.7716 C   0  0  0  0  0  0  0  0  0  0  0  0
  -89.0478   38.8543   -7.6924 N   0  0  0  0  0  0  0  0  0  0  0  0
  -88.4417   40.0381   -7.1387 C   0  0  0  0  0  0  0  0  0  0  0  0
  -87.4188   40.5230   -8.1627 C   0  0  0  0  0  0  0  0  0  0  0  0
  -85.9268   31.5495   -0.1130 C   0  0  0  0  0  0  0  0  0  0  0  0
  -86.3157   30.3476    0.3858 C   0  0  0  0  0  0  0  0  0  0  0  0
  -85.4538   29.4146    0.9898 C   0  0  0  0  0  0  0  0  0  0  0  0
  -84.1333   29.7920    1.0554 C   0  0  0  0  0  0  0  0  0  0  0  0
  -83.6739   30.9822    0.5751 C   0  0  0  0  0  0  0  0  0  0  0  0
  -84.5541   31.8578   -0.0043 C   0  0  0  0  0  0  0  0  0  0  0  0
  -83.9584   33.3985   -0.6303 Cl  0  0  0  0  0  0  0  0  0  0  0  0
  -85.9898   28.1798    1.4935 C   0  0  0  0  0  0  0  0  0  0  0  0
  -85.2867   27.4727    2.2466 O   0  0  0  0  0  0  0  0  0  0  0  0
  -87.2720   27.7567    1.1587 N   0  0  0  0  0  0  0  0  0  0  0  0
  -87.8656   28.3412    0.5342 H   0  0  0  0  0  0  0  0  0  0  0  0
  -87.8893   26.5286    1.6150 C   0  0  0  0  0  0  0  0  0  0  0  0
  -88.7368   26.6113    2.7731 C   0  0  0  0  0  0  0  0  0  0  0  0
  -88.9158   25.4797    3.5526 C   0  0  0  0  0  0  0  0  0  0  0  0
  -89.7615   25.5408    4.6490 C   0  0  0  0  0  0  0  0  0  0  0  0
  -90.4440   26.6902    5.0079 C   0  0  0  0  0  0  0  0  0  0  0  0
  -90.2717   27.8040    4.2456 C   0  0  0  0  0  0  0  0  0  0  0  0
  -89.4344   27.7478    3.1578 C   0  0  0  0  0  0  0  0  0  0  0  0
  -88.4641   25.9027    0.3692 C   0  0  0  0  0  0  0  0  0  0  0  0
  -88.5725   26.8264   -0.8050 C   0  0  0  0  0  0  0  0  0  0  0  0
  -87.5397   26.8279   -1.7536 N   0  0  0  0  0  0  0  0  0  0  0  0
  -87.7845   26.6982   -2.7405 H   0  0  0  0  0  0  0  0  0  0  0  0
  -86.6855   27.3466   -1.5572 H   0  0  0  0  0  0  0  0  0  0  0  0
 21 22  1  0  0  0
 22 23  1  0  0  0
 23 24  1  0  0  0
 24 25  1  0  0  0
 25 20  1  0  0  0
 20 19  1  0  0  0
 19 17  1  0  0  0
 17  5  1  0  0  0
  5  6  2  0  0  0
  6  7  1  0  0  0
  7  8  2  0  0  0
  8  9  1  0  0  0
  9 10  2  0  0  0
 10  1  1  0  0  0
  1  2  2  0  0  0
  1  3  1  0  0  0
  3 28  1  0  0  0
 28 29  2  0  0  0
 29 30  1  0  0  0
 30 31  2  0  0  0
 31 32  1  0  0  0
 32 33  2  0  0  0
 33 34  1  0  0  0
 30 35  1  0  0  0
 35 36  2  0  0  0
 35 37  1  0  0  0
 37 39  1  0  0  0
 39 46  1  0  0  0
 46 47  1  0  0  0
 47 48  1  0  0  0
 39 40  1  0  0  0
 40 41  2  0  0  0
 41 42  1  0  0  0
 42 43  2  0  0  0
 43 44  1  0  0  0
 44 45  2  0  0  0
 10 11  1  0  0  0
 11 12  2  0  0  0
 11 13  1  0  0  0
 13 14  1  0  0  0
 14 15  2  0  0  0
 25 26  1  0  0  0
 26 27  1  0  0  0
 27 22  1  0  0  0
 15  5  1  0  0  0
 14  8  1  0  0  0
 33 28  1  0  0  0
 45 40  1  0  0  0
 17 18  1  0  0  0
  3  4  1  0  0  0
 37 38  1  0  0  0
 48 49  1  0  0  0
 48 50  1  0  0  0
 13 16  1  0  0  0
M  END
> <minimizedAffinity>
-9.00651

> <CNNscore>
0.3903744221

> <CNNaffinity>
7.3240594864

> <CNN_VS>
2.8591253757

> <CNNaffinity_variance>
0.0351624973

$$$$
[H]c1c([H])c([H])c(C([H])(N([H])C(=O)c2c([H])c([H])c(Cl)c(N([H])C(=O)c3c([H])c4c([H])nc(N([H])C([H])([H])C([H])([H])N5C([H])([H])C([H])([H])N(C([H])([H])[H])C([H])([H])C5([H])[H])nc4n([H])c3=O)c2[H])C([H])([H])C([H])([H])N([H])[H])c([H])c1[H]


 50 54  0  0  0  0  0  0  0  0999 V2000
  -87.2403   31.9236   -1.7252 C   0  0  0  0  0  0  0  0  0  0  0  0
  -87.5622   30.7511   -2.1047 O   0  0  0  0  0  0  0  0  0  0  0  0
  -86.2733   32.1525   -0.7299 N   0  0  0  0  0  0  0  0  0  0  0  0
  -86.0522   33.1614   -0.5150 H   0  0  0  0  0  0  0  0  0  0  0  0
  -91.2461   35.6350   -5.1123 C   0  0  0  0  0  0  0  0  0  0  0  0
  -91.7421   34.3877   -5.0111 N   0  0  0  0  0  0  0  0  0  0  0  0
  -91.1015   33.4164   -4.3436 C   0  0  0  0  0  0  0  0  0  0  0  0
  -89.8746   33.6717   -3.7198 C   0  0  0  0  0  0  0  0  0  0  0  0
  -89.1974   32.6954   -3.0337 C   0  0  0  0  0  0  0  0  0  0  0  0
  -87.9762   32.9885   -2.4298 C   0  0  0  0  0  0  0  0  0  0  0  0
  -87.5128   34.2701   -2.5613 C   0  0  0  0  0  0  0  0  0  0  0  0
  -86.4316   34.6530   -2.0609 O   0  0  0  0  0  0  0  0  0  0  0  0
  -88.2172   35.2130   -3.2528 N   0  0  0  0  0  0  0  0  0  0  0  0
  -89.3919   34.9476   -3.8384 C   0  0  0  0  0  0  0  0  0  0  0  0
  -90.0832   35.8746   -4.5204 N   0  0  0  0  0  0  0  0  0  0  0  0
  -87.8352   36.1890   -3.3382 H   0  0  0  0  0  0  0  0  0  0  0  0
  -91.9045   36.6608   -5.8311 N   0  0  0  0  0  0  0  0  0  0  0  0
  -92.2787   37.4750   -5.2580 H   0  0  0  0  0  0  0  0  0  0  0  0
  -92.1021   36.6788   -7.2494 C   0  0  0  0  0  0  0  0  0  0  0  0
  -91.5081   35.4143   -7.8623 C   0  0  0  0  0  0  0  0  0  0  0  0
  -92.8938   32.3630  -11.6524 C   0  0  0  0  0  0  0  0  0  0  0  0
  -93.3625   33.6475  -11.2249 N   0  0  0  0  0  0  0  0  0  0  0  0
  -93.9975   33.6431   -9.9310 C   0  0  0  0  0  0  0  0  0  0  0  0
  -93.0227   33.7724   -8.7983 C   0  0  0  0  0  0  0  0  0  0  0  0
  -92.2214   34.9457   -9.0074 N   0  0  0  0  0  0  0  0  0  0  0  0
  -91.4164   34.7513  -10.1862 C   0  0  0  0  0  0  0  0  0  0  0  0
  -92.3816   34.6906  -11.3671 C   0  0  0  0  0  0  0  0  0  0  0  0
  -85.5703   31.1575   -0.0184 C   0  0  0  0  0  0  0  0  0  0  0  0
  -86.0470   29.9712    0.4396 C   0  0  0  0  0  0  0  0  0  0  0  0
  -85.2969   29.0381    1.1778 C   0  0  0  0  0  0  0  0  0  0  0  0
  -83.9936   29.3983    1.4271 C   0  0  0  0  0  0  0  0  0  0  0  0
  -83.4499   30.5723    0.9977 C   0  0  0  0  0  0  0  0  0  0  0  0
  -84.2227   31.4487    0.2822 C   0  0  0  0  0  0  0  0  0  0  0  0
  -83.5174   32.9685   -0.2776 Cl  0  0  0  0  0  0  0  0  0  0  0  0
  -85.9205   27.8210    1.6199 C   0  0  0  0  0  0  0  0  0  0  0  0
  -85.2536   27.0032    2.2893 O   0  0  0  0  0  0  0  0  0  0  0  0
  -87.2477   27.5355    1.3168 N   0  0  0  0  0  0  0  0  0  0  0  0
  -87.8114   28.2127    0.7621 H   0  0  0  0  0  0  0  0  0  0  0  0
  -87.9534   26.3355    1.7160 C   0  0  0  0  0  0  0  0  0  0  0  0
  -88.7921   26.4241    2.8802 C   0  0  0  0  0  0  0  0  0  0  0  0
  -89.4300   27.6231    3.1548 C   0  0  0  0  0  0  0  0  0  0  0  0
  -90.2097   27.7282    4.2959 C   0  0  0  0  0  0  0  0  0  0  0  0
  -90.3846   26.6820    5.1850 C   0  0  0  0  0  0  0  0  0  0  0  0
  -89.7602   25.5026    4.9198 C   0  0  0  0  0  0  0  0  0  0  0  0
  -88.9862   25.3941    3.7900 C   0  0  0  0  0  0  0  0  0  0  0  0
  -88.5734   25.8144    0.4439 C   0  0  0  0  0  0  0  0  0  0  0  0
  -87.8812   26.2431   -0.8134 C   0  0  0  0  0  0  0  0  0  0  0  0
  -88.6639   26.5913   -1.9236 N   0  0  0  0  0  0  0  0  0  0  0  0
  -88.4987   27.4989   -2.3708 H   0  0  0  0  0  0  0  0  0  0  0  0
  -89.0488   25.8539   -2.5111 H   0  0  0  0  0  0  0  0  0  0  0  0
 21 22  1  0  0  0
 22 23  1  0  0  0
 23 24  1  0  0  0
 24 25  1  0  0  0
 25 20  1  0  0  0
 20 19  1  0  0  0
 19 17  1  0  0  0
 17  5  1  0  0  0
  5  6  2  0  0  0
  6  7  1  0  0  0
  7  8  2  0  0  0
  8  9  1  0  0  0
  9 10  2  0  0  0
 10  1  1  0  0  0
  1  2  2  0  0  0
  1  3  1  0  0  0
  3 28  1  0  0  0
 28 29  2  0  0  0
 29 30  1  0  0  0
 30 31  2  0  0  0
 31 32  1  0  0  0
 32 33  2  0  0  0
 33 34  1  0  0  0
 30 35  1  0  0  0
 35 36  2  0  0  0
 35 37  1  0  0  0
 37 39  1  0  0  0
 39 46  1  0  0  0
 46 47  1  0  0  0
 47 48  1  0  0  0
 39 40  1  0  0  0
 40 41  2  0  0  0
 41 42  1  0  0  0
 42 43  2  0  0  0
 43 44  1  0  0  0
 44 45  2  0  0  0
 10 11  1  0  0  0
 11 12  2  0  0  0
 11 13  1  0  0  0
 13 14  1  0  0  0
 14 15  2  0  0  0
 25 26  1  0  0  0
 26 27  1  0  0  0
 27 22  1  0  0  0
 15  5  1  0  0  0
 14  8  1  0  0  0
 33 28  1  0  0  0
 45 40  1  0  0  0
 17 18  1  0  0  0
  3  4  1  0  0  0
 37 38  1  0  0  0
 48 49  1  0  0  0
 48 50  1  0  0  0
 13 16  1  0  0  0
M  END
> <minimizedAffinity>
-9.01121

> <CNNscore>
0.3241089880

> <CNNaffinity>
7.3093843460

> <CNN_VS>
2.3690371513

> <CNNaffinity_variance>
0.0464297235

$$$$
[H]c1c([H])c([H])c(C([H])(N([H])C(=O)c2c([H])c([H])c(Cl)c(N([H])C(=O)c3c([H])c4c([H])nc(N([H])C([H])([H])C([H])([H])N5C([H])([H])C([H])([H])N(C([H])([H])[H])C([H])([H])C5([H])[H])nc4n([H])c3=O)c2[H])C([H])([H])C([H])([H])N([H])[H])c([H])c1[H]


 50 54  0  0  0  0  0  0  0  0999 V2000
  -88.2903   32.3661   -1.9782 C   0  0  0  0  0  0  0  0  0  0  0  0
  -89.0877   32.4136   -0.9862 O   0  0  0  0  0  0  0  0  0  0  0  0
  -86.9992   31.8172   -1.8791 N   0  0  0  0  0  0  0  0  0  0  0  0
  -86.4318   31.7913   -2.7682 H   0  0  0  0  0  0  0  0  0  0  0  0
  -90.8994   35.9014   -6.6672 C   0  0  0  0  0  0  0  0  0  0  0  0
  -90.6745   36.6638   -5.5809 N   0  0  0  0  0  0  0  0  0  0  0  0
  -90.1255   36.1682   -4.4618 C   0  0  0  0  0  0  0  0  0  0  0  0
  -89.7627   34.8184   -4.3848 C   0  0  0  0  0  0  0  0  0  0  0  0
  -89.2026   34.2858   -3.2512 C   0  0  0  0  0  0  0  0  0  0  0  0
  -88.8589   32.9359   -3.2128 C   0  0  0  0  0  0  0  0  0  0  0  0
  -89.1079   32.2016   -4.3413 C   0  0  0  0  0  0  0  0  0  0  0  0
  -88.8398   30.9824   -4.4277 O   0  0  0  0  0  0  0  0  0  0  0  0
  -89.6670   32.7696   -5.4495 N   0  0  0  0  0  0  0  0  0  0  0  0
  -90.0026   34.0649   -5.5026 C   0  0  0  0  0  0  0  0  0  0  0  0
  -90.5547   34.6225   -6.5920 N   0  0  0  0  0  0  0  0  0  0  0  0
  -89.8479   32.1800   -6.3013 H   0  0  0  0  0  0  0  0  0  0  0  0
  -91.4964   36.4104   -7.8450 N   0  0  0  0  0  0  0  0  0  0  0  0
  -92.2388   37.1605   -7.7130 H   0  0  0  0  0  0  0  0  0  0  0  0
  -91.1799   35.9925   -9.1778 C   0  0  0  0  0  0  0  0  0  0  0  0
  -92.3648   36.2770  -10.0955 C   0  0  0  0  0  0  0  0  0  0  0  0
  -94.9824   32.0414   -9.1988 C   0  0  0  0  0  0  0  0  0  0  0  0
  -94.7482   32.7986  -10.3922 N   0  0  0  0  0  0  0  0  0  0  0  0
  -95.3395   34.1129  -10.3825 C   0  0  0  0  0  0  0  0  0  0  0  0
  -94.4716   35.1423   -9.7213 C   0  0  0  0  0  0  0  0  0  0  0  0
  -93.1793   35.1313  -10.3477 N   0  0  0  0  0  0  0  0  0  0  0  0
  -92.5463   33.8655  -10.0789 C   0  0  0  0  0  0  0  0  0  0  0  0
  -93.3696   32.8044  -10.8044 C   0  0  0  0  0  0  0  0  0  0  0  0
  -86.4154   31.2880   -0.7089 C   0  0  0  0  0  0  0  0  0  0  0  0
  -86.6482   30.0772   -0.1395 C   0  0  0  0  0  0  0  0  0  0  0  0
  -86.0561   29.6265    1.0540 C   0  0  0  0  0  0  0  0  0  0  0  0
  -85.1868   30.5105    1.6483 C   0  0  0  0  0  0  0  0  0  0  0  0
  -84.9067   31.7408    1.1323 C   0  0  0  0  0  0  0  0  0  0  0  0
  -85.5101   32.1338   -0.0333 C   0  0  0  0  0  0  0  0  0  0  0  0
  -85.1445   33.7265   -0.7043 Cl  0  0  0  0  0  0  0  0  0  0  0  0
  -86.3954   28.3265    1.5645 C   0  0  0  0  0  0  0  0  0  0  0  0
  -85.5898   27.7383    2.3173 O   0  0  0  0  0  0  0  0  0  0  0  0
  -87.5990   27.7110    1.2367 N   0  0  0  0  0  0  0  0  0  0  0  0
  -88.2773   28.1953    0.6125 H   0  0  0  0  0  0  0  0  0  0  0  0
  -88.0198   26.4051    1.7001 C   0  0  0  0  0  0  0  0  0  0  0  0
  -88.9846   26.3662    2.7651 C   0  0  0  0  0  0  0  0  0  0  0  0
  -89.6599   25.1818    3.0125 C   0  0  0  0  0  0  0  0  0  0  0  0
  -90.6190   25.1466    4.0124 C   0  0  0  0  0  0  0  0  0  0  0  0
  -90.9392   26.2493    4.7851 C   0  0  0  0  0  0  0  0  0  0  0  0
  -90.2791   27.4147    4.5460 C   0  0  0  0  0  0  0  0  0  0  0  0
  -89.3277   27.4542    3.5557 C   0  0  0  0  0  0  0  0  0  0  0  0
  -88.3334   25.6347    0.4422 C   0  0  0  0  0  0  0  0  0  0  0  0
  -88.9075   26.4565   -0.6707 C   0  0  0  0  0  0  0  0  0  0  0  0
  -88.9905   25.8874   -1.9497 N   0  0  0  0  0  0  0  0  0  0  0  0
  -89.8955   25.9001   -2.4309 H   0  0  0  0  0  0  0  0  0  0  0  0
  -88.1590   25.8626   -2.5372 H   0  0  0  0  0  0  0  0  0  0  0  0
 21 22  1  0  0  0
 22 23  1  0  0  0
 23 24  1  0  0  0
 24 25  1  0  0  0
 25 20  1  0  0  0
 20 19  1  0  0  0
 19 17  1  0  0  0
 17  5  1  0  0  0
  5  6  2  0  0  0
  6  7  1  0  0  0
  7  8  2  0  0  0
  8  9  1  0  0  0
  9 10  2  0  0  0
 10  1  1  0  0  0
  1  2  2  0  0  0
  1  3  1  0  0  0
  3 28  1  0  0  0
 28 29  2  0  0  0
 29 30  1  0  0  0
 30 31  2  0  0  0
 31 32  1  0  0  0
 32 33  2  0  0  0
 33 34  1  0  0  0
 30 35  1  0  0  0
 35 36  2  0  0  0
 35 37  1  0  0  0
 37 39  1  0  0  0
 39 46  1  0  0  0
 46 47  1  0  0  0
 47 48  1  0  0  0
 39 40  1  0  0  0
 40 41  2  0  0  0
 41 42  1  0  0  0
 42 43  2  0  0  0
 43 44  1  0  0  0
 44 45  2  0  0  0
 10 11  1  0  0  0
 11 12  2  0  0  0
 11 13  1  0  0  0
 13 14  1  0  0  0
 14 15  2  0  0  0
 25 26  1  0  0  0
 26 27  1  0  0  0
 27 22  1  0  0  0
 15  5  1  0  0  0
 14  8  1  0  0  0
 33 28  1  0  0  0
 45 40  1  0  0  0
 17 18  1  0  0  0
  3  4  1  0  0  0
 37 38  1  0  0  0
 48 49  1  0  0  0
 48 50  1  0  0  0
 13 16  1  0  0  0
M  END
> <minimizedAffinity>
-8.63056

> <CNNscore>
0.2736373246

> <CNNaffinity>
6.9665436745

> <CNN_VS>
1.9063063860

> <CNNaffinity_variance>
0.1011915058

$$$$
[H]N=C(OC([H])([H])[H])c1nc2c([H])c([H])c3nc([H])nc(N([H])c4c([H])c([H])c(Cl)c([H])c4Cl)c3c2s1


 28 31  0  0  0  0  0  0  0  0999 V2000
  -86.3579   33.1948   -1.5841 C   0  0  0  0  0  0  0  0  0  0  0  0
  -85.0760   33.3382   -1.3224 N   0  0  0  0  0  0  0  0  0  0  0  0
  -84.4625   32.4733   -0.5609 C   0  0  0  0  0  0  0  0  0  0  0  0
  -83.0998   32.5279   -0.1912 C   0  0  0  0  0  0  0  0  0  0  0  0
  -82.6106   31.5658    0.6240 C   0  0  0  0  0  0  0  0  0  0  0  0
  -83.3398   30.5192    1.1324 C   0  0  0  0  0  0  0  0  0  0  0  0
  -82.8389   29.5935    1.9549 N   0  0  0  0  0  0  0  0  0  0  0  0
  -83.6632   28.6069    2.4199 C   0  0  0  0  0  0  0  0  0  0  0  0
  -84.9481   28.5575    2.0642 N   0  0  0  0  0  0  0  0  0  0  0  0
  -85.5151   29.4593    1.2372 C   0  0  0  0  0  0  0  0  0  0  0  0
  -84.6761   30.4423    0.7834 C   0  0  0  0  0  0  0  0  0  0  0  0
  -85.2034   31.4298   -0.0588 C   0  0  0  0  0  0  0  0  0  0  0  0
  -86.7328   31.7844   -0.7282 S   0  0  0  0  0  0  0  0  0  0  0  0
  -87.2408   34.0481   -2.4158 C   0  0  0  0  0  0  0  0  0  0  0  0
  -86.6760   34.7753   -3.3096 N   0  0  0  0  0  0  0  0  0  0  0  0
  -87.2021   35.3963   -3.9311 H   0  0  0  0  0  0  0  0  0  0  0  0
  -89.4599   33.3405   -3.1335 C   0  0  0  0  0  0  0  0  0  0  0  0
  -88.6029   34.0507   -2.2270 O   0  0  0  0  0  0  0  0  0  0  0  0
  -86.8381   29.2456    0.8172 N   0  0  0  0  0  0  0  0  0  0  0  0
  -87.3964   30.0734    0.5319 H   0  0  0  0  0  0  0  0  0  0  0  0
  -87.4876   27.9779    0.6976 C   0  0  0  0  0  0  0  0  0  0  0  0
  -88.0086   27.3213    1.7763 C   0  0  0  0  0  0  0  0  0  0  0  0
  -88.6879   26.0986    1.5562 C   0  0  0  0  0  0  0  0  0  0  0  0
  -88.8235   25.5831    0.2988 C   0  0  0  0  0  0  0  0  0  0  0  0
  -89.6812   24.0557    0.0922 Cl  0  0  0  0  0  0  0  0  0  0  0  0
  -88.3034   26.2362   -0.7987 C   0  0  0  0  0  0  0  0  0  0  0  0
  -87.6440   27.4227   -0.5801 C   0  0  0  0  0  0  0  0  0  0  0  0
  -86.9561   28.2792   -1.9323 Cl  0  0  0  0  0  0  0  0  0  0  0  0
 17 18  1  0  0  0
 18 14  1  0  0  0
 14 15  2  0  0  0
 14  1  1  0  0  0
  1  2  2  0  0  0
  2  3  1  0  0  0
  3  4  2  0  0  0
  4  5  1  0  0  0
  5  6  2  0  0  0
  6  7  1  0  0  0
  7  8  2  0  0  0
  8  9  1  0  0  0
  9 10  2  0  0  0
 10 19  1  0  0  0
 19 21  1  0  0  0
 21 22  2  0  0  0
 22 23  1  0  0  0
 23 24  2  0  0  0
 24 25  1  0  0  0
 24 26  1  0  0  0
 26 27  2  0  0  0
 27 28  1  0  0  0
 10 11  1  0  0  0
 11 12  2  0  0  0
 12 13  1  0  0  0
 13  1  1  0  0  0
 12  3  1  0  0  0
 11  6  1  0  0  0
 27 21  1  0  0  0
 15 16  1  0  0  0
 19 20  1  0  0  0
M  END
> <minimizedAffinity>
-8.95407

> <CNNscore>
0.6024466157

> <CNNaffinity>
7.2439064980

> <CNN_VS>
4.3640670776

> <CNNaffinity_variance>
0.1783701479

$$$$
[H]N=C(OC([H])([H])[H])c1nc2c([H])c([H])c3nc([H])nc(N([H])c4c([H])c([H])c(Cl)c([H])c4Cl)c3c2s1


 28 31  0  0  0  0  0  0  0  0999 V2000
  -87.0338   27.1599    1.7920 C   0  0  0  0  0  0  0  0  0  0  0  0
  -85.8013   27.1146    2.2517 N   0  0  0  0  0  0  0  0  0  0  0  0
  -84.9700   28.0874    1.9933 C   0  0  0  0  0  0  0  0  0  0  0  0
  -83.6214   28.1462    2.4109 C   0  0  0  0  0  0  0  0  0  0  0  0
  -82.8762   29.2144    2.0464 C   0  0  0  0  0  0  0  0  0  0  0  0
  -83.3277   30.2680    1.2905 C   0  0  0  0  0  0  0  0  0  0  0  0
  -82.5651   31.3016    0.9238 N   0  0  0  0  0  0  0  0  0  0  0  0
  -83.1136   32.2860    0.1497 C   0  0  0  0  0  0  0  0  0  0  0  0
  -84.3887   32.2277   -0.2383 N   0  0  0  0  0  0  0  0  0  0  0  0
  -85.2119   31.2139    0.0981 C   0  0  0  0  0  0  0  0  0  0  0  0
  -84.6455   30.2351    0.8709 C   0  0  0  0  0  0  0  0  0  0  0  0
  -85.4345   29.1367    1.2362 C   0  0  0  0  0  0  0  0  0  0  0  0
  -87.0403   28.6308    0.9562 S   0  0  0  0  0  0  0  0  0  0  0  0
  -88.1303   26.1766    1.9655 C   0  0  0  0  0  0  0  0  0  0  0  0
  -88.3972   25.4177    0.9657 N   0  0  0  0  0  0  0  0  0  0  0  0
  -89.1361   24.7093    0.9905 H   0  0  0  0  0  0  0  0  0  0  0  0
  -89.5886   27.2110    3.6219 C   0  0  0  0  0  0  0  0  0  0  0  0
  -88.8226   26.0921    3.1506 O   0  0  0  0  0  0  0  0  0  0  0  0
  -86.5701   31.3099   -0.2464 N   0  0  0  0  0  0  0  0  0  0  0  0
  -87.2623   30.8502    0.3764 H   0  0  0  0  0  0  0  0  0  0  0  0
  -87.1059   32.0275   -1.3604 C   0  0  0  0  0  0  0  0  0  0  0  0
  -87.1002   33.3923   -1.4193 C   0  0  0  0  0  0  0  0  0  0  0  0
  -87.5976   34.0176   -2.5883 C   0  0  0  0  0  0  0  0  0  0  0  0
  -88.0720   33.2803   -3.6355 C   0  0  0  0  0  0  0  0  0  0  0  0
  -88.6777   34.1203   -5.0634 Cl  0  0  0  0  0  0  0  0  0  0  0  0
  -88.0826   31.9022   -3.5895 C   0  0  0  0  0  0  0  0  0  0  0  0
  -87.5993   31.2994   -2.4521 C   0  0  0  0  0  0  0  0  0  0  0  0
  -87.6045   29.5609   -2.3388 Cl  0  0  0  0  0  0  0  0  0  0  0  0
 17 18  1  0  0  0
 18 14  1  0  0  0
 14 15  2  0  0  0
 14  1  1  0  0  0
  1  2  2  0  0  0
  2  3  1  0  0  0
  3  4  2  0  0  0
  4  5  1  0  0  0
  5  6  2  0  0  0
  6  7  1  0  0  0
  7  8  2  0  0  0
  8  9  1  0  0  0
  9 10  2  0  0  0
 10 19  1  0  0  0
 19 21  1  0  0  0
 21 22  2  0  0  0
 22 23  1  0  0  0
 23 24  2  0  0  0
 24 25  1  0  0  0
 24 26  1  0  0  0
 26 27  2  0  0  0
 27 28  1  0  0  0
 10 11  1  0  0  0
 11 12  2  0  0  0
 12 13  1  0  0  0
 13  1  1  0  0  0
 12  3  1  0  0  0
 11  6  1  0  0  0
 27 21  1  0  0  0
 15 16  1  0  0  0
 19 20  1  0  0  0
M  END
> <minimizedAffinity>
-9.33200

> <CNNscore>
0.4747978449

> <CNNaffinity>
7.1025800705

> <CNN_VS>
3.3722896576

> <CNNaffinity_variance>
0.1247016340

$$$$
[H]N=C(OC([H])([H])[H])c1nc2c([H])c([H])c3nc([H])nc(N([H])c4c([H])c([H])c(Cl)c([H])c4Cl)c3c2s1


 28 31  0  0  0  0  0  0  0  0999 V2000
  -87.2256   27.0270    1.8902 C   0  0  0  0  0  0  0  0  0  0  0  0
  -85.9970   26.8669    2.3344 N   0  0  0  0  0  0  0  0  0  0  0  0
  -85.0985   27.7898    2.1219 C   0  0  0  0  0  0  0  0  0  0  0  0
  -83.7467   27.7271    2.5287 C   0  0  0  0  0  0  0  0  0  0  0  0
  -82.9278   28.7573    2.2165 C   0  0  0  0  0  0  0  0  0  0  0  0
  -83.3058   29.8816    1.5247 C   0  0  0  0  0  0  0  0  0  0  0  0
  -82.4720   30.8760    1.2083 N   0  0  0  0  0  0  0  0  0  0  0  0
  -82.9518   31.9394    0.4955 C   0  0  0  0  0  0  0  0  0  0  0  0
  -84.2300   31.9955    0.1176 N   0  0  0  0  0  0  0  0  0  0  0  0
  -85.1230   31.0268    0.4055 C   0  0  0  0  0  0  0  0  0  0  0  0
  -84.6249   29.9678    1.1171 C   0  0  0  0  0  0  0  0  0  0  0  0
  -85.4897   28.9107    1.4288 C   0  0  0  0  0  0  0  0  0  0  0  0
  -87.1297   28.5390    1.1373 S   0  0  0  0  0  0  0  0  0  0  0  0
  -88.3899   26.1176    2.0199 C   0  0  0  0  0  0  0  0  0  0  0  0
  -88.5058   25.4719    3.1228 N   0  0  0  0  0  0  0  0  0  0  0  0
  -89.2755   24.8215    3.3048 H   0  0  0  0  0  0  0  0  0  0  0  0
  -88.8878   25.4317   -0.2652 C   0  0  0  0  0  0  0  0  0  0  0  0
  -89.2975   25.9814    0.9960 O   0  0  0  0  0  0  0  0  0  0  0  0
  -86.4725   31.2402    0.0805 N   0  0  0  0  0  0  0  0  0  0  0  0
  -87.1381   31.4109    0.8591 H   0  0  0  0  0  0  0  0  0  0  0  0
  -87.0214   31.2924   -1.2383 C   0  0  0  0  0  0  0  0  0  0  0  0
  -87.4981   30.1811   -1.8739 C   0  0  0  0  0  0  0  0  0  0  0  0
  -88.0794   30.3362   -3.1556 C   0  0  0  0  0  0  0  0  0  0  0  0
  -88.1655   31.5640   -3.7475 C   0  0  0  0  0  0  0  0  0  0  0  0
  -88.9012   31.6895   -5.3457 Cl  0  0  0  0  0  0  0  0  0  0  0  0
  -87.6892   32.6939   -3.1166 C   0  0  0  0  0  0  0  0  0  0  0  0
  -87.1250   32.5384   -1.8725 C   0  0  0  0  0  0  0  0  0  0  0  0
  -86.4952   33.9331   -1.0399 Cl  0  0  0  0  0  0  0  0  0  0  0  0
 17 18  1  0  0  0
 18 14  1  0  0  0
 14 15  2  0  0  0
 14  1  1  0  0  0
  1  2  2  0  0  0
  2  3  1  0  0  0
  3  4  2  0  0  0
  4  5  1  0  0  0
  5  6  2  0  0  0
  6  7  1  0  0  0
  7  8  2  0  0  0
  8  9  1  0  0  0
  9 10  2  0  0  0
 10 19  1  0  0  0
 19 21  1  0  0  0
 21 22  2  0  0  0
 22 23  1  0  0  0
 23 24  2  0  0  0
 24 25  1  0  0  0
 24 26  1  0  0  0
 26 27  2  0  0  0
 27 28  1  0  0  0
 10 11  1  0  0  0
 11 12  2  0  0  0
 12 13  1  0  0  0
 13  1  1  0  0  0
 12  3  1  0  0  0
 11  6  1  0  0  0
 27 21  1  0  0  0
 15 16  1  0  0  0
 19 20  1  0  0  0
M  END
> <minimizedAffinity>
-9.13770

> <CNNscore>
0.4258956313

> <CNNaffinity>
7.0478310585

> <CNN_VS>
3.0016405582

> <CNNaffinity_variance>
0.1937404573

$$$$
[H]N=C(OC([H])([H])[H])c1nc2c([H])c([H])c3nc([H])nc(N([H])c4c([H])c([H])c(Cl)c([H])c4Cl)c3c2s1


 28 31  0  0  0  0  0  0  0  0999 V2000
  -86.5464   32.5259   -0.9401 C   0  0  0  0  0  0  0  0  0  0  0  0
  -85.2818   32.7022   -0.6206 N   0  0  0  0  0  0  0  0  0  0  0  0
  -84.6476   31.7926    0.0683 C   0  0  0  0  0  0  0  0  0  0  0  0
  -83.3010   31.8732    0.4888 C   0  0  0  0  0  0  0  0  0  0  0  0
  -82.7875   30.8554    1.2167 C   0  0  0  0  0  0  0  0  0  0  0  0
  -83.4768   29.7277    1.5887 C   0  0  0  0  0  0  0  0  0  0  0  0
  -82.9538   28.7458    2.3281 N   0  0  0  0  0  0  0  0  0  0  0  0
  -83.7399   27.6775    2.6597 C   0  0  0  0  0  0  0  0  0  0  0  0
  -85.0095   27.6043    2.2565 N   0  0  0  0  0  0  0  0  0  0  0  0
  -85.5972   28.5597    1.5078 C   0  0  0  0  0  0  0  0  0  0  0  0
  -84.7966   29.6239    1.1874 C   0  0  0  0  0  0  0  0  0  0  0  0
  -85.3487   30.6679    0.4339 C   0  0  0  0  0  0  0  0  0  0  0  0
  -86.8737   31.0173   -0.2480 S   0  0  0  0  0  0  0  0  0  0  0  0
  -87.4469   33.4186   -1.7093 C   0  0  0  0  0  0  0  0  0  0  0  0
  -88.7089   33.2225   -1.5844 N   0  0  0  0  0  0  0  0  0  0  0  0
  -89.4078   33.7875   -2.0753 H   0  0  0  0  0  0  0  0  0  0  0  0
  -87.8241   35.2779   -3.2393 C   0  0  0  0  0  0  0  0  0  0  0  0
  -86.9389   34.4086   -2.5172 O   0  0  0  0  0  0  0  0  0  0  0  0
  -86.8946   28.3282    1.0223 N   0  0  0  0  0  0  0  0  0  0  0  0
  -87.1956   28.8478    0.1750 H   0  0  0  0  0  0  0  0  0  0  0  0
  -87.8398   27.4002    1.5593 C   0  0  0  0  0  0  0  0  0  0  0  0
  -88.3249   27.5081    2.8319 C   0  0  0  0  0  0  0  0  0  0  0  0
  -89.3039   26.5790    3.2599 C   0  0  0  0  0  0  0  0  0  0  0  0
  -89.7573   25.5972    2.4259 C   0  0  0  0  0  0  0  0  0  0  0  0
  -90.9781   24.4712    3.0203 Cl  0  0  0  0  0  0  0  0  0  0  0  0
  -89.2769   25.4777    1.1388 C   0  0  0  0  0  0  0  0  0  0  0  0
  -88.3260   26.3816    0.7278 C   0  0  0  0  0  0  0  0  0  0  0  0
  -87.6765   26.2641   -0.8845 Cl  0  0  0  0  0  0  0  0  0  0  0  0
 17 18  1  0  0  0
 18 14  1  0  0  0
 14 15  2  0  0  0
 14  1  1  0  0  0
  1  2  2  0  0  0
  2  3  1  0  0  0
  3  4  2  0  0  0
  4  5  1  0  0  0
  5  6  2  0  0  0
  6  7  1  0  0  0
  7  8  2  0  0  0
  8  9  1  0  0  0
  9 10  2  0  0  0
 10 19  1  0  0  0
 19 21  1  0  0  0
 21 22  2  0  0  0
 22 23  1  0  0  0
 23 24  2  0  0  0
 24 25  1  0  0  0
 24 26  1  0  0  0
 26 27  2  0  0  0
 27 28  1  0  0  0
 10 11  1  0  0  0
 11 12  2  0  0  0
 12 13  1  0  0  0
 13  1  1  0  0  0
 12  3  1  0  0  0
 11  6  1  0  0  0
 27 21  1  0  0  0
 15 16  1  0  0  0
 19 20  1  0  0  0
M  END
> <minimizedAffinity>
-8.97922

> <CNNscore>
0.4042620063

> <CNNaffinity>
7.1427774429

> <CNN_VS>
2.8875534534

> <CNNaffinity_variance>
0.1861997545

$$$$
[H]N=C(OC([H])([H])[H])c1nc2c([H])c([H])c3nc([H])nc(N([H])c4c([H])c([H])c(Cl)c([H])c4Cl)c3c2s1


 28 31  0  0  0  0  0  0  0  0999 V2000
  -83.3779   28.8872    1.8578 C   0  0  0  0  0  0  0  0  0  0  0  0
  -82.7880   30.0031    1.4847 N   0  0  0  0  0  0  0  0  0  0  0  0
  -83.4666   30.9234    0.8548 C   0  0  0  0  0  0  0  0  0  0  0  0
  -82.9452   32.1504    0.3865 C   0  0  0  0  0  0  0  0  0  0  0  0
  -83.7711   32.9972   -0.2693 C   0  0  0  0  0  0  0  0  0  0  0  0
  -85.0999   32.7618   -0.5232 C   0  0  0  0  0  0  0  0  0  0  0  0
  -85.8901   33.6046   -1.1937 N   0  0  0  0  0  0  0  0  0  0  0  0
  -87.1947   33.2575   -1.4093 C   0  0  0  0  0  0  0  0  0  0  0  0
  -87.6831   32.0997   -0.9612 N   0  0  0  0  0  0  0  0  0  0  0  0
  -86.9399   31.2061   -0.2772 C   0  0  0  0  0  0  0  0  0  0  0  0
  -85.6349   31.5683   -0.0728 C   0  0  0  0  0  0  0  0  0  0  0  0
  -84.7961   30.6759    0.6074 C   0  0  0  0  0  0  0  0  0  0  0  0
  -84.9589   29.1272    1.3057 S   0  0  0  0  0  0  0  0  0  0  0  0
  -82.8036   27.7246    2.5776 C   0  0  0  0  0  0  0  0  0  0  0  0
  -83.6109   27.0164    3.2800 N   0  0  0  0  0  0  0  0  0  0  0  0
  -83.3076   26.1955    3.8117 H   0  0  0  0  0  0  0  0  0  0  0  0
  -80.9436   26.2365    3.0931 C   0  0  0  0  0  0  0  0  0  0  0  0
  -81.4636   27.4297    2.4878 O   0  0  0  0  0  0  0  0  0  0  0  0
  -87.5780   30.0795    0.2670 N   0  0  0  0  0  0  0  0  0  0  0  0
  -87.5768   29.9728    1.3000 H   0  0  0  0  0  0  0  0  0  0  0  0
  -88.2793   29.0739   -0.4679 C   0  0  0  0  0  0  0  0  0  0  0  0
  -88.4017   29.1171   -1.8278 C   0  0  0  0  0  0  0  0  0  0  0  0
  -89.0617   28.0466   -2.4784 C   0  0  0  0  0  0  0  0  0  0  0  0
  -89.5651   26.9931   -1.7700 C   0  0  0  0  0  0  0  0  0  0  0  0
  -90.3763   25.6911   -2.6406 Cl  0  0  0  0  0  0  0  0  0  0  0  0
  -89.4475   26.9365   -0.3972 C   0  0  0  0  0  0  0  0  0  0  0  0
  -88.8065   27.9785    0.2303 C   0  0  0  0  0  0  0  0  0  0  0  0
  -88.6449   27.9613    1.9649 Cl  0  0  0  0  0  0  0  0  0  0  0  0
 17 18  1  0  0  0
 18 14  1  0  0  0
 14 15  2  0  0  0
 14  1  1  0  0  0
  1  2  2  0  0  0
  2  3  1  0  0  0
  3  4  2  0  0  0
  4  5  1  0  0  0
  5  6  2  0  0  0
  6  7  1  0  0  0
  7  8  2  0  0  0
  8  9  1  0  0  0
  9 10  2  0  0  0
 10 19  1  0  0  0
 19 21  1  0  0  0
 21 22  2  0  0  0
 22 23  1  0  0  0
 23 24  2  0  0  0
 24 25  1  0  0  0
 24 26  1  0  0  0
 26 27  2  0  0  0
 27 28  1  0  0  0
 10 11  1  0  0  0
 11 12  2  0  0  0
 12 13  1  0  0  0
 13  1  1  0  0  0
 12  3  1  0  0  0
 11  6  1  0  0  0
 27 21  1  0  0  0
 15 16  1  0  0  0
 19 20  1  0  0  0
M  END
> <minimizedAffinity>
-6.71746

> <CNNscore>
0.3192543983

> <CNNaffinity>
6.9121513367

> <CNN_VS>
2.2067346573

> <CNNaffinity_variance>
0.1026990190

$$$$
[H]N=C(OC([H])([H])[H])c1nc2c([H])c([H])c3nc([H])nc(N([H])c4c([H])c([H])c(Cl)c([H])c4Cl)c3c2s1


 28 31  0  0  0  0  0  0  0  0999 V2000
  -85.1443   31.2090    0.2655 C   0  0  0  0  0  0  0  0  0  0  0  0
  -85.7258   32.2567   -0.2792 N   0  0  0  0  0  0  0  0  0  0  0  0
  -86.9328   32.1562   -0.7662 C   0  0  0  0  0  0  0  0  0  0  0  0
  -87.6541   33.1980   -1.3914 C   0  0  0  0  0  0  0  0  0  0  0  0
  -88.8928   32.9343   -1.8660 C   0  0  0  0  0  0  0  0  0  0  0  0
  -89.5221   31.7163   -1.7900 C   0  0  0  0  0  0  0  0  0  0  0  0
  -90.7381   31.4746   -2.2871 N   0  0  0  0  0  0  0  0  0  0  0  0
  -91.2598   30.2158   -2.1753 C   0  0  0  0  0  0  0  0  0  0  0  0
  -90.5763   29.2368   -1.5802 N   0  0  0  0  0  0  0  0  0  0  0  0
  -89.3462   29.4146   -1.0568 C   0  0  0  0  0  0  0  0  0  0  0  0
  -88.8375   30.6803   -1.1803 C   0  0  0  0  0  0  0  0  0  0  0  0
  -87.5522   30.9316   -0.6832 C   0  0  0  0  0  0  0  0  0  0  0  0
  -86.3357   30.0203    0.0931 S   0  0  0  0  0  0  0  0  0  0  0  0
  -83.7960   31.1022    0.8738 C   0  0  0  0  0  0  0  0  0  0  0  0
  -82.8320   31.6882    0.2623 N   0  0  0  0  0  0  0  0  0  0  0  0
  -81.8672   31.6703    0.6051 H   0  0  0  0  0  0  0  0  0  0  0  0
  -82.8516   29.1787    2.0350 C   0  0  0  0  0  0  0  0  0  0  0  0
  -83.6012   30.4030    2.0417 O   0  0  0  0  0  0  0  0  0  0  0  0
  -88.7655   28.3594   -0.3343 N   0  0  0  0  0  0  0  0  0  0  0  0
  -87.9532   27.8705   -0.7579 H   0  0  0  0  0  0  0  0  0  0  0  0
  -89.1584   27.9149    0.9662 C   0  0  0  0  0  0  0  0  0  0  0  0
  -90.2705   28.3971    1.5961 C   0  0  0  0  0  0  0  0  0  0  0  0
  -90.6173   27.8558    2.8577 C   0  0  0  0  0  0  0  0  0  0  0  0
  -89.8634   26.8748    3.4359 C   0  0  0  0  0  0  0  0  0  0  0  0
  -90.3496   26.2427    5.0093 Cl  0  0  0  0  0  0  0  0  0  0  0  0
  -88.7391   26.3784    2.8105 C   0  0  0  0  0  0  0  0  0  0  0  0
  -88.4059   26.9075    1.5860 C   0  0  0  0  0  0  0  0  0  0  0  0
  -86.9862   26.3245    0.7615 Cl  0  0  0  0  0  0  0  0  0  0  0  0
 17 18  1  0  0  0
 18 14  1  0  0  0
 14 15  2  0  0  0
 14  1  1  0  0  0
  1  2  2  0  0  0
  2  3  1  0  0  0
  3  4  2  0  0  0
  4  5  1  0  0  0
  5  6  2  0  0  0
  6  7  1  0  0  0
  7  8  2  0  0  0
  8  9  1  0  0  0
  9 10  2  0  0  0
 10 19  1  0  0  0
 19 21  1  0  0  0
 21 22  2  0  0  0
 22 23  1  0  0  0
 23 24  2  0  0  0
 24 25  1  0  0  0
 24 26  1  0  0  0
 26 27  2  0  0  0
 27 28  1  0  0  0
 10 11  1  0  0  0
 11 12  2  0  0  0
 12 13  1  0  0  0
 13  1  1  0  0  0
 12  3  1  0  0  0
 11  6  1  0  0  0
 27 21  1  0  0  0
 15 16  1  0  0  0
 19 20  1  0  0  0
M  END
> <minimizedAffinity>
-7.99985

> <CNNscore>
0.3070974946

> <CNNaffinity>
6.8847112656

> <CNN_VS>
2.1142776012

> <CNNaffinity_variance>
0.0447770506

$$$$
[H]N=C(OC([H])([H])[H])c1nc2c([H])c([H])c3nc([H])nc(N([H])c4c([H])c([H])c(Cl)c([H])c4Cl)c3c2s1


 28 31  0  0  0  0  0  0  0  0999 V2000
  -84.7454   31.9806    0.1649 C   0  0  0  0  0  0  0  0  0  0  0  0
  -85.0808   32.9408   -0.6706 N   0  0  0  0  0  0  0  0  0  0  0  0
  -86.2515   32.9269   -1.2480 C   0  0  0  0  0  0  0  0  0  0  0  0
  -86.7199   33.8849   -2.1751 C   0  0  0  0  0  0  0  0  0  0  0  0
  -87.9536   33.7240   -2.7056 C   0  0  0  0  0  0  0  0  0  0  0  0
  -88.8070   32.6886   -2.4138 C   0  0  0  0  0  0  0  0  0  0  0  0
  -90.0127   32.5390   -2.9688 N   0  0  0  0  0  0  0  0  0  0  0  0
  -90.7707   31.4556   -2.6212 C   0  0  0  0  0  0  0  0  0  0  0  0
  -90.3254   30.5563   -1.7422 N   0  0  0  0  0  0  0  0  0  0  0  0
  -89.1197   30.6491   -1.1453 C   0  0  0  0  0  0  0  0  0  0  0  0
  -88.3724   31.7384   -1.5071 C   0  0  0  0  0  0  0  0  0  0  0  0
  -87.0968   31.8854   -0.9469 C   0  0  0  0  0  0  0  0  0  0  0  0
  -86.1281   31.0059    0.1489 S   0  0  0  0  0  0  0  0  0  0  0  0
  -83.4835   31.8035    0.9235 C   0  0  0  0  0  0  0  0  0  0  0  0
  -82.4763   32.5072    0.5531 N   0  0  0  0  0  0  0  0  0  0  0  0
  -81.5641   32.4538    1.0153 H   0  0  0  0  0  0  0  0  0  0  0  0
  -82.8744   29.6035    1.7773 C   0  0  0  0  0  0  0  0  0  0  0  0
  -83.4093   30.9208    1.9753 O   0  0  0  0  0  0  0  0  0  0  0  0
  -88.7977   29.7266   -0.1364 N   0  0  0  0  0  0  0  0  0  0  0  0
  -88.4189   30.0968    0.7568 H   0  0  0  0  0  0  0  0  0  0  0  0
  -88.9857   28.3111   -0.2006 C   0  0  0  0  0  0  0  0  0  0  0  0
  -88.1382   27.4940   -0.8938 C   0  0  0  0  0  0  0  0  0  0  0  0
  -88.3667   26.0972   -0.8531 C   0  0  0  0  0  0  0  0  0  0  0  0
  -89.4064   25.5728   -0.1395 C   0  0  0  0  0  0  0  0  0  0  0  0
  -89.6364   23.8240   -0.1295 Cl  0  0  0  0  0  0  0  0  0  0  0  0
  -90.2686   26.3861    0.5654 C   0  0  0  0  0  0  0  0  0  0  0  0
  -90.0433   27.7417    0.5224 C   0  0  0  0  0  0  0  0  0  0  0  0
  -91.1130   28.8131    1.3843 Cl  0  0  0  0  0  0  0  0  0  0  0  0
 17 18  1  0  0  0
 18 14  1  0  0  0
 14 15  2  0  0  0
 14  1  1  0  0  0
  1  2  2  0  0  0
  2  3  1  0  0  0
  3  4  2  0  0  0
  4  5  1  0  0  0
  5  6  2  0  0  0
  6  7  1  0  0  0
  7  8  2  0  0  0
  8  9  1  0  0  0
  9 10  2  0  0  0
 10 19  1  0  0  0
 19 21  1  0  0  0
 21 22  2  0  0  0
 22 23  1  0  0  0
 23 24  2  0  0  0
 24 25  1  0  0  0
 24 26  1  0  0  0
 26 27  2  0  0  0
 27 28  1  0  0  0
 10 11  1  0  0  0
 11 12  2  0  0  0
 12 13  1  0  0  0
 13  1  1  0  0  0
 12  3  1  0  0  0
 11  6  1  0  0  0
 27 21  1  0  0  0
 15 16  1  0  0  0
 19 20  1  0  0  0
M  END
> <minimizedAffinity>
-7.80333

> <CNNscore>
0.2980787754

> <CNNaffinity>
6.8951749802

> <CNN_VS>
2.0553052425

> <CNNaffinity_variance>
0.0672212839

$$$$
[H]N=C(OC([H])([H])[H])c1nc2c([H])c([H])c3nc([H])nc(N([H])c4c([H])c([H])c(Cl)c([H])c4Cl)c3c2s1


 28 31  0  0  0  0  0  0  0  0999 V2000
  -87.9104   35.2067   -3.8055 C   0  0  0  0  0  0  0  0  0  0  0  0
  -88.8769   34.6231   -4.4821 N   0  0  0  0  0  0  0  0  0  0  0  0
  -89.2096   33.3891   -4.2158 C   0  0  0  0  0  0  0  0  0  0  0  0
  -90.2119   32.6483   -4.8817 C   0  0  0  0  0  0  0  0  0  0  0  0
  -90.4290   31.3676   -4.5050 C   0  0  0  0  0  0  0  0  0  0  0  0
  -89.7452   30.7130   -3.5103 C   0  0  0  0  0  0  0  0  0  0  0  0
  -89.9626   29.4392   -3.1718 N   0  0  0  0  0  0  0  0  0  0  0  0
  -89.2058   28.8805   -2.1797 C   0  0  0  0  0  0  0  0  0  0  0  0
  -88.2637   29.5857   -1.5513 N   0  0  0  0  0  0  0  0  0  0  0  0
  -87.9952   30.8746   -1.8436 C   0  0  0  0  0  0  0  0  0  0  0  0
  -88.7602   31.4175   -2.8416 C   0  0  0  0  0  0  0  0  0  0  0  0
  -88.5180   32.7452   -3.2173 C   0  0  0  0  0  0  0  0  0  0  0  0
  -87.4376   33.9782   -2.7429 S   0  0  0  0  0  0  0  0  0  0  0  0
  -87.3784   36.5844   -3.9404 C   0  0  0  0  0  0  0  0  0  0  0  0
  -86.3607   36.7446   -4.7055 N   0  0  0  0  0  0  0  0  0  0  0  0
  -85.9236   37.6575   -4.8611 H   0  0  0  0  0  0  0  0  0  0  0  0
  -89.1563   38.2435   -3.7767 C   0  0  0  0  0  0  0  0  0  0  0  0
  -87.9591   37.6349   -3.2696 O   0  0  0  0  0  0  0  0  0  0  0  0
  -87.0788   31.5687   -1.0368 N   0  0  0  0  0  0  0  0  0  0  0  0
  -87.1756   32.6005   -0.9697 H   0  0  0  0  0  0  0  0  0  0  0  0
  -86.0390   30.9826   -0.2503 C   0  0  0  0  0  0  0  0  0  0  0  0
  -86.1541   29.7366    0.2979 C   0  0  0  0  0  0  0  0  0  0  0  0
  -85.0502   29.2110    1.0120 C   0  0  0  0  0  0  0  0  0  0  0  0
  -83.8953   29.9263    1.1522 C   0  0  0  0  0  0  0  0  0  0  0  0
  -82.5566   29.2145    2.0537 Cl  0  0  0  0  0  0  0  0  0  0  0  0
  -83.7655   31.1845    0.6031 C   0  0  0  0  0  0  0  0  0  0  0  0
  -84.8402   31.6911   -0.0888 C   0  0  0  0  0  0  0  0  0  0  0  0
  -84.7317   33.2826   -0.7891 Cl  0  0  0  0  0  0  0  0  0  0  0  0
 17 18  1  0  0  0
 18 14  1  0  0  0
 14 15  2  0  0  0
 14  1  1  0  0  0
  1  2  2  0  0  0
  2  3  1  0  0  0
  3  4  2  0  0  0
  4  5  1  0  0  0
  5  6  2  0  0  0
  6  7  1  0  0  0
  7  8  2  0  0  0
  8  9  1  0  0  0
  9 10  2  0  0  0
 10 19  1  0  0  0
 19 21  1  0  0  0
 21 22  2  0  0  0
 22 23  1  0  0  0
 23 24  2  0  0  0
 24 25  1  0  0  0
 24 26  1  0  0  0
 26 27  2  0  0  0
 27 28  1  0  0  0
 10 11  1  0  0  0
 11 12  2  0  0  0
 12 13  1  0  0  0
 13  1  1  0  0  0
 12  3  1  0  0  0
 11  6  1  0  0  0
 27 21  1  0  0  0
 15 16  1  0  0  0
 19 20  1  0  0  0
M  END
> <minimizedAffinity>
-8.01815

> <CNNscore>
0.2506944537

> <CNNaffinity>
6.3001961708

> <CNN_VS>
1.5794242620

> <CNNaffinity_variance>
0.3937818408

$$$$
[H]N=C(OC([H])([H])[H])c1nc2c([H])c([H])c3nc([H])nc(N([H])c4c([H])c([H])c(Cl)c([H])c4Cl)c3c2s1


 28 31  0  0  0  0  0  0  0  0999 V2000
  -87.8974   26.7966    1.1543 C   0  0  0  0  0  0  0  0  0  0  0  0
  -86.9807   27.1851    2.0152 N   0  0  0  0  0  0  0  0  0  0  0  0
  -86.3724   28.3286    1.8523 C   0  0  0  0  0  0  0  0  0  0  0  0
  -85.3606   28.8461    2.6921 C   0  0  0  0  0  0  0  0  0  0  0  0
  -84.8087   30.0410    2.3810 C   0  0  0  0  0  0  0  0  0  0  0  0
  -85.1550   30.8097    1.2973 C   0  0  0  0  0  0  0  0  0  0  0  0
  -84.5785   31.9770    0.9982 N   0  0  0  0  0  0  0  0  0  0  0  0
  -84.9869   32.6485   -0.1205 C   0  0  0  0  0  0  0  0  0  0  0  0
  -85.9455   32.1575   -0.9077 N   0  0  0  0  0  0  0  0  0  0  0  0
  -86.5682   30.9868   -0.6618 C   0  0  0  0  0  0  0  0  0  0  0  0
  -86.1448   30.3259    0.4607 C   0  0  0  0  0  0  0  0  0  0  0  0
  -86.7287   29.0891    0.7639 C   0  0  0  0  0  0  0  0  0  0  0  0
  -87.9170   28.0865    0.0600 S   0  0  0  0  0  0  0  0  0  0  0  0
  -88.7038   25.5519    1.1493 C   0  0  0  0  0  0  0  0  0  0  0  0
  -88.5045   24.7315    0.1829 N   0  0  0  0  0  0  0  0  0  0  0  0
  -89.0130   23.8471    0.0943 H   0  0  0  0  0  0  0  0  0  0  0  0
  -90.7522   24.4548    1.8846 C   0  0  0  0  0  0  0  0  0  0  0  0
  -89.6212   25.3005    2.1423 O   0  0  0  0  0  0  0  0  0  0  0  0
  -87.6544   30.6212   -1.4736 N   0  0  0  0  0  0  0  0  0  0  0  0
  -88.1607   29.7449   -1.2410 H   0  0  0  0  0  0  0  0  0  0  0  0
  -88.1690   31.3705   -2.5767 C   0  0  0  0  0  0  0  0  0  0  0  0
  -87.8443   31.0782   -3.8711 C   0  0  0  0  0  0  0  0  0  0  0  0
  -88.4483   31.8354   -4.9039 C   0  0  0  0  0  0  0  0  0  0  0  0
  -89.3355   32.8342   -4.6201 C   0  0  0  0  0  0  0  0  0  0  0  0
  -90.0530   33.7402   -5.9527 Cl  0  0  0  0  0  0  0  0  0  0  0  0
  -89.6728   33.1388   -3.3182 C   0  0  0  0  0  0  0  0  0  0  0  0
  -89.0833   32.4014   -2.3186 C   0  0  0  0  0  0  0  0  0  0  0  0
  -89.4652   32.7569   -0.6564 Cl  0  0  0  0  0  0  0  0  0  0  0  0
 17 18  1  0  0  0
 18 14  1  0  0  0
 14 15  2  0  0  0
 14  1  1  0  0  0
  1  2  2  0  0  0
  2  3  1  0  0  0
  3  4  2  0  0  0
  4  5  1  0  0  0
  5  6  2  0  0  0
  6  7  1  0  0  0
  7  8  2  0  0  0
  8  9  1  0  0  0
  9 10  2  0  0  0
 10 19  1  0  0  0
 19 21  1  0  0  0
 21 22  2  0  0  0
 22 23  1  0  0  0
 23 24  2  0  0  0
 24 25  1  0  0  0
 24 26  1  0  0  0
 26 27  2  0  0  0
 27 28  1  0  0  0
 10 11  1  0  0  0
 11 12  2  0  0  0
 12 13  1  0  0  0
 13  1  1  0  0  0
 12  3  1  0  0  0
 11  6  1  0  0  0
 27 21  1  0  0  0
 15 16  1  0  0  0
 19 20  1  0  0  0
M  END
> <minimizedAffinity>
-8.13877

> <CNNscore>
0.2247774005

> <CNNaffinity>
6.6308279037

> <CNN_VS>
1.4904602766

> <CNNaffinity_variance>
0.3462458551

$$$$
[H]c1sc(-c2c([H])c([H])c3c(c2[H])C([H])([H])C([H])([H])O3)nc1C(=O)N([H])c1nc2c([H])c(C(=O)N3C([H])([H])C([H])([H])C([H])([H])C3([H])[H])c([H])c([H])c2n1[H]


 35 40  0  0  0  0  0  0  0  0999 V2000
  -85.5888   33.6195   -0.4389 O   0  0  0  0  0  0  0  0  0  0  0  0
  -86.1708   32.5992   -0.8371 C   0  0  0  0  0  0  0  0  0  0  0  0
  -87.0198   32.5886   -1.9634 N   0  0  0  0  0  0  0  0  0  0  0  0
  -87.4687   31.6734   -2.2231 H   0  0  0  0  0  0  0  0  0  0  0  0
  -87.2695   33.7388   -2.7207 C   0  0  0  0  0  0  0  0  0  0  0  0
  -88.4904   34.3640   -2.6838 N   0  0  0  0  0  0  0  0  0  0  0  0
  -88.4804   35.4266   -3.4830 C   0  0  0  0  0  0  0  0  0  0  0  0
  -89.4260   36.3548   -3.7868 C   0  0  0  0  0  0  0  0  0  0  0  0
  -89.1406   37.4035   -4.6895 C   0  0  0  0  0  0  0  0  0  0  0  0
  -87.8871   37.4222   -5.2215 C   0  0  0  0  0  0  0  0  0  0  0  0
  -86.9263   36.4679   -4.9045 C   0  0  0  0  0  0  0  0  0  0  0  0
  -87.2288   35.4724   -4.0347 C   0  0  0  0  0  0  0  0  0  0  0  0
  -86.5014   34.4379   -3.5613 N   0  0  0  0  0  0  0  0  0  0  0  0
  -85.5307   34.2638   -3.8323 H   0  0  0  0  0  0  0  0  0  0  0  0
  -90.1502   38.3839   -4.9974 C   0  0  0  0  0  0  0  0  0  0  0  0
  -89.8587   39.5917   -4.6065 O   0  0  0  0  0  0  0  0  0  0  0  0
  -91.3779   38.2116   -5.6482 N   0  0  0  0  0  0  0  0  0  0  0  0
  -92.2486   39.4180   -5.8505 C   0  0  0  0  0  0  0  0  0  0  0  0
  -93.0151   39.0608   -7.1120 C   0  0  0  0  0  0  0  0  0  0  0  0
  -93.3499   37.6236   -6.7902 C   0  0  0  0  0  0  0  0  0  0  0  0
  -92.0704   37.0940   -6.2074 C   0  0  0  0  0  0  0  0  0  0  0  0
  -85.9445   31.3380   -0.0699 C   0  0  0  0  0  0  0  0  0  0  0  0
  -84.7876   31.1330    0.6410 C   0  0  0  0  0  0  0  0  0  0  0  0
  -85.0575   29.5743    1.3015 S   0  0  0  0  0  0  0  0  0  0  0  0
  -86.6153   29.2887    0.6332 C   0  0  0  0  0  0  0  0  0  0  0  0
  -86.8288   30.3827   -0.0413 N   0  0  0  0  0  0  0  0  0  0  0  0
  -87.4484   28.0845    0.8167 C   0  0  0  0  0  0  0  0  0  0  0  0
  -87.7644   27.6564    2.0867 C   0  0  0  0  0  0  0  0  0  0  0  0
  -88.5540   26.5152    2.2756 C   0  0  0  0  0  0  0  0  0  0  0  0
  -89.0215   25.8111    1.1879 C   0  0  0  0  0  0  0  0  0  0  0  0
  -89.8165   24.6562    1.1252 O   0  0  0  0  0  0  0  0  0  0  0  0
  -89.6869   24.1121   -0.1762 C   0  0  0  0  0  0  0  0  0  0  0  0
  -89.3436   25.2926   -1.0234 C   0  0  0  0  0  0  0  0  0  0  0  0
  -88.7026   26.2437   -0.0812 C   0  0  0  0  0  0  0  0  0  0  0  0
  -87.9102   27.3893   -0.2465 C   0  0  0  0  0  0  0  0  0  0  0  0
  1  2  2  0  0  0
  2  3  1  0  0  0
  3  5  1  0  0  0
  5  6  2  0  0  0
  6  7  1  0  0  0
  7  8  2  0  0  0
  8  9  1  0  0  0
  9 10  2  0  0  0
 10 11  1  0  0  0
 11 12  2  0  0  0
 12 13  1  0  0  0
  9 15  1  0  0  0
 15 16  2  0  0  0
 15 17  1  0  0  0
 17 18  1  0  0  0
 18 19  1  0  0  0
 19 20  1  0  0  0
 20 21  1  0  0  0
  2 22  1  0  0  0
 22 23  2  0  0  0
 23 24  1  0  0  0
 24 25  1  0  0  0
 25 26  2  0  0  0
 25 27  1  0  0  0
 27 28  2  0  0  0
 28 29  1  0  0  0
 29 30  2  0  0  0
 30 31  1  0  0  0
 31 32  1  0  0  0
 32 33  1  0  0  0
 33 34  1  0  0  0
 34 35  2  0  0  0
 13  5  1  0  0  0
 21 17  1  0  0  0
 26 22  1  0  0  0
 35 27  1  0  0  0
 12  7  1  0  0  0
 34 30  1  0  0  0
  3  4  1  0  0  0
 13 14  1  0  0  0
M  END
> <minimizedAffinity>
-8.10970

> <CNNscore>
0.2083044052

> <CNNaffinity>
6.3214836121

> <CNN_VS>
1.3167928457

> <CNNaffinity_variance>
0.1047216430

$$$$
[H]c1sc(-c2c([H])c([H])c3c(c2[H])C([H])([H])C([H])([H])O3)nc1C(=O)N([H])c1nc2c([H])c(C(=O)N3C([H])([H])C([H])([H])C([H])([H])C3([H])[H])c([H])c([H])c2n1[H]


 35 40  0  0  0  0  0  0  0  0999 V2000
  -88.2355   32.4255   -1.6141 O   0  0  0  0  0  0  0  0  0  0  0  0
  -87.9950   31.5870   -2.4958 C   0  0  0  0  0  0  0  0  0  0  0  0
  -87.7225   31.9362   -3.8349 N   0  0  0  0  0  0  0  0  0  0  0  0
  -87.5303   31.1530   -4.5103 H   0  0  0  0  0  0  0  0  0  0  0  0
  -87.7033   33.2662   -4.2704 C   0  0  0  0  0  0  0  0  0  0  0  0
  -88.6147   33.7285   -5.1859 N   0  0  0  0  0  0  0  0  0  0  0  0
  -88.3924   35.0150   -5.4377 C   0  0  0  0  0  0  0  0  0  0  0  0
  -89.0090   35.9097   -6.2547 C   0  0  0  0  0  0  0  0  0  0  0  0
  -88.5554   37.2456   -6.3308 C   0  0  0  0  0  0  0  0  0  0  0  0
  -87.4868   37.5692   -5.5510 C   0  0  0  0  0  0  0  0  0  0  0  0
  -86.8625   36.6466   -4.7183 C   0  0  0  0  0  0  0  0  0  0  0  0
  -87.3198   35.3709   -4.6659 C   0  0  0  0  0  0  0  0  0  0  0  0
  -86.9100   34.2954   -3.9597 N   0  0  0  0  0  0  0  0  0  0  0  0
  -86.1203   34.3182   -3.3102 H   0  0  0  0  0  0  0  0  0  0  0  0
  -89.2222   38.1847   -7.1961 C   0  0  0  0  0  0  0  0  0  0  0  0
  -88.5356   38.5195   -8.2511 O   0  0  0  0  0  0  0  0  0  0  0  0
  -90.4852   38.7720   -7.0542 N   0  0  0  0  0  0  0  0  0  0  0  0
  -90.9486   39.7235   -8.1194 C   0  0  0  0  0  0  0  0  0  0  0  0
  -92.4582   39.5681   -8.0631 C   0  0  0  0  0  0  0  0  0  0  0  0
  -92.6439   39.5715   -6.5643 C   0  0  0  0  0  0  0  0  0  0  0  0
  -91.5243   38.6963   -6.0764 C   0  0  0  0  0  0  0  0  0  0  0  0
  -88.0008   30.1488   -2.0933 C   0  0  0  0  0  0  0  0  0  0  0  0
  -87.6951   29.1553   -2.9906 C   0  0  0  0  0  0  0  0  0  0  0  0
  -87.8528   27.7507   -2.0207 S   0  0  0  0  0  0  0  0  0  0  0  0
  -88.2946   28.5163   -0.5464 C   0  0  0  0  0  0  0  0  0  0  0  0
  -88.2943   29.7755   -0.8809 N   0  0  0  0  0  0  0  0  0  0  0  0
  -88.5873   27.8548    0.7398 C   0  0  0  0  0  0  0  0  0  0  0  0
  -87.8480   26.7615    1.1324 C   0  0  0  0  0  0  0  0  0  0  0  0
  -88.1150   26.1237    2.3504 C   0  0  0  0  0  0  0  0  0  0  0  0
  -89.1227   26.5881    3.1667 C   0  0  0  0  0  0  0  0  0  0  0  0
  -89.5705   26.1236    4.4130 O   0  0  0  0  0  0  0  0  0  0  0  0
  -90.8556   26.6734    4.6432 C   0  0  0  0  0  0  0  0  0  0  0  0
  -90.8517   27.9349    3.8445 C   0  0  0  0  0  0  0  0  0  0  0  0
  -89.8598   27.6828    2.7694 C   0  0  0  0  0  0  0  0  0  0  0  0
  -89.5747   28.3056    1.5452 C   0  0  0  0  0  0  0  0  0  0  0  0
  1  2  2  0  0  0
  2  3  1  0  0  0
  3  5  1  0  0  0
  5  6  2  0  0  0
  6  7  1  0  0  0
  7  8  2  0  0  0
  8  9  1  0  0  0
  9 10  2  0  0  0
 10 11  1  0  0  0
 11 12  2  0  0  0
 12 13  1  0  0  0
  9 15  1  0  0  0
 15 16  2  0  0  0
 15 17  1  0  0  0
 17 18  1  0  0  0
 18 19  1  0  0  0
 19 20  1  0  0  0
 20 21  1  0  0  0
  2 22  1  0  0  0
 22 23  2  0  0  0
 23 24  1  0  0  0
 24 25  1  0  0  0
 25 26  2  0  0  0
 25 27  1  0  0  0
 27 28  2  0  0  0
 28 29  1  0  0  0
 29 30  2  0  0  0
 30 31  1  0  0  0
 31 32  1  0  0  0
 32 33  1  0  0  0
 33 34  1  0  0  0
 34 35  2  0  0  0
 13  5  1  0  0  0
 21 17  1  0  0  0
 26 22  1  0  0  0
 35 27  1  0  0  0
 12  7  1  0  0  0
 34 30  1  0  0  0
  3  4  1  0  0  0
 13 14  1  0  0  0
M  END
> <minimizedAffinity>
-7.30551

> <CNNscore>
0.0887364522

> <CNNaffinity>
5.7653760910

> <CNN_VS>
0.5115990043

> <CNNaffinity_variance>
0.0742723793

$$$$
[H]c1sc(-c2c([H])c([H])c3c(c2[H])C([H])([H])C([H])([H])O3)nc1C(=O)N([H])c1nc2c([H])c(C(=O)N3C([H])([H])C([H])([H])C([H])([H])C3([H])[H])c([H])c([H])c2n1[H]


 35 40  0  0  0  0  0  0  0  0999 V2000
  -89.5097   33.4640   -3.1251 O   0  0  0  0  0  0  0  0  0  0  0  0
  -88.9697   32.5330   -2.5088 C   0  0  0  0  0  0  0  0  0  0  0  0
  -89.5301   31.2416   -2.4217 N   0  0  0  0  0  0  0  0  0  0  0  0
  -88.9965   30.5178   -1.8758 H   0  0  0  0  0  0  0  0  0  0  0  0
  -90.7472   30.9135   -3.0298 C   0  0  0  0  0  0  0  0  0  0  0  0
  -90.8578   29.8264   -3.8598 N   0  0  0  0  0  0  0  0  0  0  0  0
  -92.1045   29.7249   -4.3109 C   0  0  0  0  0  0  0  0  0  0  0  0
  -92.7091   28.8371   -5.1442 C   0  0  0  0  0  0  0  0  0  0  0  0
  -94.0793   28.9678   -5.4626 C   0  0  0  0  0  0  0  0  0  0  0  0
  -94.7375   30.0155   -4.8936 C   0  0  0  0  0  0  0  0  0  0  0  0
  -94.1102   30.9188   -4.0422 C   0  0  0  0  0  0  0  0  0  0  0  0
  -92.7934   30.7684   -3.7546 C   0  0  0  0  0  0  0  0  0  0  0  0
  -91.9540   31.4845   -2.9762 N   0  0  0  0  0  0  0  0  0  0  0  0
  -92.2434   32.3154   -2.4548 H   0  0  0  0  0  0  0  0  0  0  0  0
  -94.7085   28.0160   -6.3421 C   0  0  0  0  0  0  0  0  0  0  0  0
  -95.0501   28.5039   -7.5005 O   0  0  0  0  0  0  0  0  0  0  0  0
  -94.9947   26.6637   -6.1190 N   0  0  0  0  0  0  0  0  0  0  0  0
  -95.6569   25.8879   -7.2210 C   0  0  0  0  0  0  0  0  0  0  0  0
  -95.1585   24.4751   -6.9719 C   0  0  0  0  0  0  0  0  0  0  0  0
  -95.3207   24.4247   -5.4712 C   0  0  0  0  0  0  0  0  0  0  0  0
  -94.8087   25.7647   -5.0242 C   0  0  0  0  0  0  0  0  0  0  0  0
  -87.6670   32.8205   -1.8374 C   0  0  0  0  0  0  0  0  0  0  0  0
  -87.1068   34.0738   -1.8734 C   0  0  0  0  0  0  0  0  0  0  0  0
  -85.6679   33.8371   -0.9724 S   0  0  0  0  0  0  0  0  0  0  0  0
  -85.8733   32.1690   -0.6116 C   0  0  0  0  0  0  0  0  0  0  0  0
  -87.0087   31.9011   -1.1918 N   0  0  0  0  0  0  0  0  0  0  0  0
  -84.9559   31.3134    0.1655 C   0  0  0  0  0  0  0  0  0  0  0  0
  -83.6044   31.5764    0.1616 C   0  0  0  0  0  0  0  0  0  0  0  0
  -82.7222   30.7726    0.8944 C   0  0  0  0  0  0  0  0  0  0  0  0
  -83.2028   29.7096    1.6268 C   0  0  0  0  0  0  0  0  0  0  0  0
  -82.5261   28.7766    2.4276 O   0  0  0  0  0  0  0  0  0  0  0  0
  -83.3918   27.6742    2.6327 C   0  0  0  0  0  0  0  0  0  0  0  0
  -84.7570   28.2628    2.4952 C   0  0  0  0  0  0  0  0  0  0  0  0
  -84.5565   29.4504    1.6277 C   0  0  0  0  0  0  0  0  0  0  0  0
  -85.4214   30.2689    0.8862 C   0  0  0  0  0  0  0  0  0  0  0  0
  1  2  2  0  0  0
  2  3  1  0  0  0
  3  5  1  0  0  0
  5  6  2  0  0  0
  6  7  1  0  0  0
  7  8  2  0  0  0
  8  9  1  0  0  0
  9 10  2  0  0  0
 10 11  1  0  0  0
 11 12  2  0  0  0
 12 13  1  0  0  0
  9 15  1  0  0  0
 15 16  2  0  0  0
 15 17  1  0  0  0
 17 18  1  0  0  0
 18 19  1  0  0  0
 19 20  1  0  0  0
 20 21  1  0  0  0
  2 22  1  0  0  0
 22 23  2  0  0  0
 23 24  1  0  0  0
 24 25  1  0  0  0
 25 26  2  0  0  0
 25 27  1  0  0  0
 27 28  2  0  0  0
 28 29  1  0  0  0
 29 30  2  0  0  0
 30 31  1  0  0  0
 31 32  1  0  0  0
 32 33  1  0  0  0
 33 34  1  0  0  0
 34 35  2  0  0  0
 13  5  1  0  0  0
 21 17  1  0  0  0
 26 22  1  0  0  0
 35 27  1  0  0  0
 12  7  1  0  0  0
 34 30  1  0  0  0
  3  4  1  0  0  0
 13 14  1  0  0  0
M  END
> <minimizedAffinity>
-8.97294

> <CNNscore>
0.0757486224

> <CNNaffinity>
5.8742208481

> <CNN_VS>
0.4449641407

> <CNNaffinity_variance>
0.1010901481

$$$$
[H]c1sc(-c2c([H])c([H])c3c(c2[H])C([H])([H])C([H])([H])O3)nc1C(=O)N([H])c1nc2c([H])c(C(=O)N3C([H])([H])C([H])([H])C([H])([H])C3([H])[H])c([H])c([H])c2n1[H]


 35 40  0  0  0  0  0  0  0  0999 V2000
  -88.4822   29.6141   -0.0853 O   0  0  0  0  0  0  0  0  0  0  0  0
  -88.2520   29.9994   -1.2415 C   0  0  0  0  0  0  0  0  0  0  0  0
  -88.5173   29.2121   -2.3814 N   0  0  0  0  0  0  0  0  0  0  0  0
  -88.2876   29.6265   -3.3205 H   0  0  0  0  0  0  0  0  0  0  0  0
  -89.0645   27.9271   -2.2901 C   0  0  0  0  0  0  0  0  0  0  0  0
  -90.2136   27.5936   -2.9616 N   0  0  0  0  0  0  0  0  0  0  0  0
  -90.5302   26.3255   -2.7173 C   0  0  0  0  0  0  0  0  0  0  0  0
  -91.5559   25.5387   -3.1379 C   0  0  0  0  0  0  0  0  0  0  0  0
  -91.6521   24.1945   -2.7136 C   0  0  0  0  0  0  0  0  0  0  0  0
  -90.6738   23.7508   -1.8765 C   0  0  0  0  0  0  0  0  0  0  0  0
  -89.6282   24.5636   -1.4515 C   0  0  0  0  0  0  0  0  0  0  0  0
  -89.5618   25.8501   -1.8752 C   0  0  0  0  0  0  0  0  0  0  0  0
  -88.6750   26.8368   -1.6232 N   0  0  0  0  0  0  0  0  0  0  0  0
  -87.8599   26.7176   -1.0171 H   0  0  0  0  0  0  0  0  0  0  0  0
  -92.7409   23.3704   -3.1723 C   0  0  0  0  0  0  0  0  0  0  0  0
  -92.3904   22.1624   -3.5111 O   0  0  0  0  0  0  0  0  0  0  0  0
  -94.0978   23.6913   -3.2989 N   0  0  0  0  0  0  0  0  0  0  0  0
  -95.0338   22.6298   -3.8006 C   0  0  0  0  0  0  0  0  0  0  0  0
  -96.3478   23.0148   -3.1436 C   0  0  0  0  0  0  0  0  0  0  0  0
  -96.3043   24.5064   -3.3764 C   0  0  0  0  0  0  0  0  0  0  0  0
  -94.8796   24.8631   -3.0597 C   0  0  0  0  0  0  0  0  0  0  0  0
  -87.6672   31.3638   -1.4052 C   0  0  0  0  0  0  0  0  0  0  0  0
  -86.5775   31.7657   -0.6725 C   0  0  0  0  0  0  0  0  0  0  0  0
  -86.3427   33.3635   -1.2473 S   0  0  0  0  0  0  0  0  0  0  0  0
  -87.6389   33.4138   -2.3752 C   0  0  0  0  0  0  0  0  0  0  0  0
  -88.1615   32.2275   -2.2449 N   0  0  0  0  0  0  0  0  0  0  0  0
  -88.0120   34.5477   -3.2428 C   0  0  0  0  0  0  0  0  0  0  0  0
  -89.3051   35.0206   -3.2347 C   0  0  0  0  0  0  0  0  0  0  0  0
  -89.6733   36.0960   -4.0530 C   0  0  0  0  0  0  0  0  0  0  0  0
  -88.7404   36.6898   -4.8743 C   0  0  0  0  0  0  0  0  0  0  0  0
  -88.8684   37.7634   -5.7691 O   0  0  0  0  0  0  0  0  0  0  0  0
  -87.7562   37.7306   -6.6459 C   0  0  0  0  0  0  0  0  0  0  0  0
  -86.6947   37.0463   -5.8495 C   0  0  0  0  0  0  0  0  0  0  0  0
  -87.4473   36.2129   -4.8788 C   0  0  0  0  0  0  0  0  0  0  0  0
  -87.1013   35.1346   -4.0509 C   0  0  0  0  0  0  0  0  0  0  0  0
  1  2  2  0  0  0
  2  3  1  0  0  0
  3  5  1  0  0  0
  5  6  2  0  0  0
  6  7  1  0  0  0
  7  8  2  0  0  0
  8  9  1  0  0  0
  9 10  2  0  0  0
 10 11  1  0  0  0
 11 12  2  0  0  0
 12 13  1  0  0  0
  9 15  1  0  0  0
 15 16  2  0  0  0
 15 17  1  0  0  0
 17 18  1  0  0  0
 18 19  1  0  0  0
 19 20  1  0  0  0
 20 21  1  0  0  0
  2 22  1  0  0  0
 22 23  2  0  0  0
 23 24  1  0  0  0
 24 25  1  0  0  0
 25 26  2  0  0  0
 25 27  1  0  0  0
 27 28  2  0  0  0
 28 29  1  0  0  0
 29 30  2  0  0  0
 30 31  1  0  0  0
 31 32  1  0  0  0
 32 33  1  0  0  0
 33 34  1  0  0  0
 34 35  2  0  0  0
 13  5  1  0  0  0
 21 17  1  0  0  0
 26 22  1  0  0  0
 35 27  1  0  0  0
 12  7  1  0  0  0
 34 30  1  0  0  0
  3  4  1  0  0  0
 13 14  1  0  0  0
M  END
> <minimizedAffinity>
-7.67632

> <CNNscore>
0.0650237724

> <CNNaffinity>
5.6797351837

> <CNN_VS>
0.3693177998

> <CNNaffinity_variance>
0.2257135212

$$$$
[H]c1sc(-c2c([H])c([H])c3c(c2[H])C([H])([H])C([H])([H])O3)nc1C(=O)N([H])c1nc2c([H])c(C(=O)N3C([H])([H])C([H])([H])C([H])([H])C3([H])[H])c([H])c([H])c2n1[H]


 35 40  0  0  0  0  0  0  0  0999 V2000
  -90.1391   23.7748   -0.3735 O   0  0  0  0  0  0  0  0  0  0  0  0
  -90.4680   24.5268   -1.3033 C   0  0  0  0  0  0  0  0  0  0  0  0
  -89.8468   25.7703   -1.5427 N   0  0  0  0  0  0  0  0  0  0  0  0
  -90.1962   26.3375   -2.3568 H   0  0  0  0  0  0  0  0  0  0  0  0
  -88.8047   26.2507   -0.7415 C   0  0  0  0  0  0  0  0  0  0  0  0
  -88.1225   27.3945   -1.0714 N   0  0  0  0  0  0  0  0  0  0  0  0
  -87.1854   27.6425   -0.1613 C   0  0  0  0  0  0  0  0  0  0  0  0
  -86.2649   28.6354   -0.0395 C   0  0  0  0  0  0  0  0  0  0  0  0
  -85.3694   28.6559    1.0531 C   0  0  0  0  0  0  0  0  0  0  0  0
  -85.4867   27.6407    1.9532 C   0  0  0  0  0  0  0  0  0  0  0  0
  -86.4318   26.6290    1.8199 C   0  0  0  0  0  0  0  0  0  0  0  0
  -87.2784   26.6352    0.7605 C   0  0  0  0  0  0  0  0  0  0  0  0
  -88.2694   25.7942    0.3945 N   0  0  0  0  0  0  0  0  0  0  0  0
  -88.5266   24.9625    0.9313 H   0  0  0  0  0  0  0  0  0  0  0  0
  -84.4032   29.7177    1.1729 C   0  0  0  0  0  0  0  0  0  0  0  0
  -83.3480   29.4036    1.8692 O   0  0  0  0  0  0  0  0  0  0  0  0
  -84.4492   31.0156    0.6498 N   0  0  0  0  0  0  0  0  0  0  0  0
  -83.2901   31.9308    0.9208 C   0  0  0  0  0  0  0  0  0  0  0  0
  -83.3063   32.8470   -0.2903 C   0  0  0  0  0  0  0  0  0  0  0  0
  -84.7917   33.1065   -0.3748 C   0  0  0  0  0  0  0  0  0  0  0  0
  -85.3926   31.7510   -0.1316 C   0  0  0  0  0  0  0  0  0  0  0  0
  -91.5755   24.0697   -2.1949 C   0  0  0  0  0  0  0  0  0  0  0  0
  -92.0764   22.7937   -2.1139 C   0  0  0  0  0  0  0  0  0  0  0  0
  -93.2877   22.8184   -3.3266 S   0  0  0  0  0  0  0  0  0  0  0  0
  -93.0776   24.4413   -3.8531 C   0  0  0  0  0  0  0  0  0  0  0  0
  -92.1120   24.8562   -3.0832 N   0  0  0  0  0  0  0  0  0  0  0  0
  -93.8345   25.1305   -4.9160 C   0  0  0  0  0  0  0  0  0  0  0  0
  -94.6964   24.4160   -5.7175 C   0  0  0  0  0  0  0  0  0  0  0  0
  -95.4210   25.0571   -6.7301 C   0  0  0  0  0  0  0  0  0  0  0  0
  -95.2756   26.4120   -6.9314 C   0  0  0  0  0  0  0  0  0  0  0  0
  -95.8840   27.2631   -7.8669 O   0  0  0  0  0  0  0  0  0  0  0  0
  -95.1209   28.4550   -7.9276 C   0  0  0  0  0  0  0  0  0  0  0  0
  -94.4753   28.5336   -6.5836 C   0  0  0  0  0  0  0  0  0  0  0  0
  -94.4117   27.1229   -6.1265 C   0  0  0  0  0  0  0  0  0  0  0  0
  -93.6962   26.4597   -5.1185 C   0  0  0  0  0  0  0  0  0  0  0  0
  1  2  2  0  0  0
  2  3  1  0  0  0
  3  5  1  0  0  0
  5  6  2  0  0  0
  6  7  1  0  0  0
  7  8  2  0  0  0
  8  9  1  0  0  0
  9 10  2  0  0  0
 10 11  1  0  0  0
 11 12  2  0  0  0
 12 13  1  0  0  0
  9 15  1  0  0  0
 15 16  2  0  0  0
 15 17  1  0  0  0
 17 18  1  0  0  0
 18 19  1  0  0  0
 19 20  1  0  0  0
 20 21  1  0  0  0
  2 22  1  0  0  0
 22 23  2  0  0  0
 23 24  1  0  0  0
 24 25  1  0  0  0
 25 26  2  0  0  0
 25 27  1  0  0  0
 27 28  2  0  0  0
 28 29  1  0  0  0
 29 30  2  0  0  0
 30 31  1  0  0  0
 31 32  1  0  0  0
 32 33  1  0  0  0
 33 34  1  0  0  0
 34 35  2  0  0  0
 13  5  1  0  0  0
 21 17  1  0  0  0
 26 22  1  0  0  0
 35 27  1  0  0  0
 12  7  1  0  0  0
 34 30  1  0  0  0
  3  4  1  0  0  0
 13 14  1  0  0  0
M  END
> <minimizedAffinity>
-8.86975

> <CNNscore>
0.0649545416

> <CNNaffinity>
5.5891022682

> <CNN_VS>
0.3630375862

> <CNNaffinity_variance>
0.1950194538

$$$$
[H]c1sc(-c2c([H])c([H])c3c(c2[H])C([H])([H])C([H])([H])O3)nc1C(=O)N([H])c1nc2c([H])c(C(=O)N3C([H])([H])C([H])([H])C([H])([H])C3([H])[H])c([H])c([H])c2n1[H]


 35 40  0  0  0  0  0  0  0  0999 V2000
  -92.3727   30.3383   -2.6078 O   0  0  0  0  0  0  0  0  0  0  0  0
  -91.2330   29.8854   -2.4227 C   0  0  0  0  0  0  0  0  0  0  0  0
  -90.9574   28.5041   -2.3490 N   0  0  0  0  0  0  0  0  0  0  0  0
  -89.9580   28.2174   -2.1892 H   0  0  0  0  0  0  0  0  0  0  0  0
  -91.9586   27.5351   -2.4805 C   0  0  0  0  0  0  0  0  0  0  0  0
  -91.9441   26.6324   -3.5138 N   0  0  0  0  0  0  0  0  0  0  0  0
  -92.9931   25.8206   -3.4220 C   0  0  0  0  0  0  0  0  0  0  0  0
  -93.4182   24.7808   -4.1876 C   0  0  0  0  0  0  0  0  0  0  0  0
  -94.5955   24.0751   -3.8528 C   0  0  0  0  0  0  0  0  0  0  0  0
  -95.2592   24.4951   -2.7403 C   0  0  0  0  0  0  0  0  0  0  0  0
  -94.8165   25.5603   -1.9632 C   0  0  0  0  0  0  0  0  0  0  0  0
  -93.6828   26.2192   -2.3091 C   0  0  0  0  0  0  0  0  0  0  0  0
  -93.0410   27.2649   -1.7452 N   0  0  0  0  0  0  0  0  0  0  0  0
  -93.3699   27.7349   -0.8984 H   0  0  0  0  0  0  0  0  0  0  0  0
  -95.0307   22.9712   -4.6696 C   0  0  0  0  0  0  0  0  0  0  0  0
  -95.8281   23.3086   -5.6427 O   0  0  0  0  0  0  0  0  0  0  0  0
  -94.7152   21.6118   -4.5565 N   0  0  0  0  0  0  0  0  0  0  0  0
  -95.3056   20.6611   -5.5576 C   0  0  0  0  0  0  0  0  0  0  0  0
  -94.2647   19.5567   -5.6138 C   0  0  0  0  0  0  0  0  0  0  0  0
  -93.9869   19.4136   -4.1362 C   0  0  0  0  0  0  0  0  0  0  0  0
  -93.9179   20.8367   -3.6592 C   0  0  0  0  0  0  0  0  0  0  0  0
  -90.1202   30.8703   -2.2744 C   0  0  0  0  0  0  0  0  0  0  0  0
  -90.1418   32.0758   -2.9317 C   0  0  0  0  0  0  0  0  0  0  0  0
  -88.6672   32.7801   -2.4141 S   0  0  0  0  0  0  0  0  0  0  0  0
  -88.1243   31.5015   -1.4015 C   0  0  0  0  0  0  0  0  0  0  0  0
  -89.0865   30.6311   -1.5197 N   0  0  0  0  0  0  0  0  0  0  0  0
  -86.8722   31.4628   -0.6215 C   0  0  0  0  0  0  0  0  0  0  0  0
  -86.0854   32.5892   -0.5314 C   0  0  0  0  0  0  0  0  0  0  0  0
  -84.8945   32.5667    0.2053 C   0  0  0  0  0  0  0  0  0  0  0  0
  -84.5011   31.4131    0.8471 C   0  0  0  0  0  0  0  0  0  0  0  0
  -83.3679   31.1500    1.6321 O   0  0  0  0  0  0  0  0  0  0  0  0
  -83.2220   29.7440    1.7235 C   0  0  0  0  0  0  0  0  0  0  0  0
  -84.6113   29.2289    1.5398 C   0  0  0  0  0  0  0  0  0  0  0  0
  -85.2921   30.2882    0.7540 C   0  0  0  0  0  0  0  0  0  0  0  0
  -86.4807   30.3339    0.0105 C   0  0  0  0  0  0  0  0  0  0  0  0
  1  2  2  0  0  0
  2  3  1  0  0  0
  3  5  1  0  0  0
  5  6  2  0  0  0
  6  7  1  0  0  0
  7  8  2  0  0  0
  8  9  1  0  0  0
  9 10  2  0  0  0
 10 11  1  0  0  0
 11 12  2  0  0  0
 12 13  1  0  0  0
  9 15  1  0  0  0
 15 16  2  0  0  0
 15 17  1  0  0  0
 17 18  1  0  0  0
 18 19  1  0  0  0
 19 20  1  0  0  0
 20 21  1  0  0  0
  2 22  1  0  0  0
 22 23  2  0  0  0
 23 24  1  0  0  0
 24 25  1  0  0  0
 25 26  2  0  0  0
 25 27  1  0  0  0
 27 28  2  0  0  0
 28 29  1  0  0  0
 29 30  2  0  0  0
 30 31  1  0  0  0
 31 32  1  0  0  0
 32 33  1  0  0  0
 33 34  1  0  0  0
 34 35  2  0  0  0
 13  5  1  0  0  0
 21 17  1  0  0  0
 26 22  1  0  0  0
 35 27  1  0  0  0
 12  7  1  0  0  0
 34 30  1  0  0  0
  3  4  1  0  0  0
 13 14  1  0  0  0
M  END
> <minimizedAffinity>
-7.64690

> <CNNscore>
0.0609411113

> <CNNaffinity>
5.6672835350

> <CNN_VS>
0.3453705609

> <CNNaffinity_variance>
0.3400136530

$$$$
[H]c1sc(-c2c([H])c([H])c3c(c2[H])C([H])([H])C([H])([H])O3)nc1C(=O)N([H])c1nc2c([H])c(C(=O)N3C([H])([H])C([H])([H])C([H])([H])C3([H])[H])c([H])c([H])c2n1[H]


 35 40  0  0  0  0  0  0  0  0999 V2000
  -91.7728   29.8078   -5.2888 O   0  0  0  0  0  0  0  0  0  0  0  0
  -92.6008   29.3873   -4.4667 C   0  0  0  0  0  0  0  0  0  0  0  0
  -92.4590   29.5627   -3.0744 N   0  0  0  0  0  0  0  0  0  0  0  0
  -93.2148   29.1699   -2.4571 H   0  0  0  0  0  0  0  0  0  0  0  0
  -91.3638   30.2298   -2.5138 C   0  0  0  0  0  0  0  0  0  0  0  0
  -90.3175   29.5380   -1.9578 N   0  0  0  0  0  0  0  0  0  0  0  0
  -89.4057   30.3883   -1.4956 C   0  0  0  0  0  0  0  0  0  0  0  0
  -88.2125   30.2038   -0.8707 C   0  0  0  0  0  0  0  0  0  0  0  0
  -87.4273   31.3108   -0.4785 C   0  0  0  0  0  0  0  0  0  0  0  0
  -87.9321   32.5437   -0.7608 C   0  0  0  0  0  0  0  0  0  0  0  0
  -89.1542   32.7224   -1.4005 C   0  0  0  0  0  0  0  0  0  0  0  0
  -89.8865   31.6409   -1.7655 C   0  0  0  0  0  0  0  0  0  0  0  0
  -91.0805   31.5294   -2.3862 N   0  0  0  0  0  0  0  0  0  0  0  0
  -91.6340   32.3350   -2.6871 H   0  0  0  0  0  0  0  0  0  0  0  0
  -86.1620   31.1004    0.1772 C   0  0  0  0  0  0  0  0  0  0  0  0
  -85.3364   32.1031    0.0794 O   0  0  0  0  0  0  0  0  0  0  0  0
  -85.7132   29.9824    0.8908 N   0  0  0  0  0  0  0  0  0  0  0  0
  -84.3362   30.0282    1.4879 C   0  0  0  0  0  0  0  0  0  0  0  0
  -84.4704   29.1112    2.6910 C   0  0  0  0  0  0  0  0  0  0  0  0
  -85.2498   27.9874    2.0502 C   0  0  0  0  0  0  0  0  0  0  0  0
  -86.2712   28.7081    1.2166 C   0  0  0  0  0  0  0  0  0  0  0  0
  -93.7933   28.6659   -5.0033 C   0  0  0  0  0  0  0  0  0  0  0  0
  -94.9226   29.3439   -5.3917 C   0  0  0  0  0  0  0  0  0  0  0  0
  -95.9373   28.0621   -5.9072 S   0  0  0  0  0  0  0  0  0  0  0  0
  -94.8636   26.7562   -5.5963 C   0  0  0  0  0  0  0  0  0  0  0  0
  -93.8148   27.3698   -5.1261 N   0  0  0  0  0  0  0  0  0  0  0  0
  -95.1259   25.3224   -5.8267 C   0  0  0  0  0  0  0  0  0  0  0  0
  -95.3163   24.4793   -4.7549 C   0  0  0  0  0  0  0  0  0  0  0  0
  -95.5660   23.1163   -4.9588 C   0  0  0  0  0  0  0  0  0  0  0  0
  -95.6229   22.6086   -6.2380 C   0  0  0  0  0  0  0  0  0  0  0  0
  -95.8551   21.2995   -6.6876 O   0  0  0  0  0  0  0  0  0  0  0  0
  -95.4241   21.2220   -8.0348 C   0  0  0  0  0  0  0  0  0  0  0  0
  -95.5518   22.6245   -8.5310 C   0  0  0  0  0  0  0  0  0  0  0  0
  -95.4317   23.4565   -7.3076 C   0  0  0  0  0  0  0  0  0  0  0  0
  -95.1830   24.8180   -7.0795 C   0  0  0  0  0  0  0  0  0  0  0  0
  1  2  2  0  0  0
  2  3  1  0  0  0
  3  5  1  0  0  0
  5  6  2  0  0  0
  6  7  1  0  0  0
  7  8  2  0  0  0
  8  9  1  0  0  0
  9 10  2  0  0  0
 10 11  1  0  0  0
 11 12  2  0  0  0
 12 13  1  0  0  0
  9 15  1  0  0  0
 15 16  2  0  0  0
 15 17  1  0  0  0
 17 18  1  0  0  0
 18 19  1  0  0  0
 19 20  1  0  0  0
 20 21  1  0  0  0
  2 22  1  0  0  0
 22 23  2  0  0  0
 23 24  1  0  0  0
 24 25  1  0  0  0
 25 26  2  0  0  0
 25 27  1  0  0  0
 27 28  2  0  0  0
 28 29  1  0  0  0
 29 30  2  0  0  0
 30 31  1  0  0  0
 31 32  1  0  0  0
 32 33  1  0  0  0
 33 34  1  0  0  0
 34 35  2  0  0  0
 13  5  1  0  0  0
 21 17  1  0  0  0
 26 22  1  0  0  0
 35 27  1  0  0  0
 12  7  1  0  0  0
 34 30  1  0  0  0
  3  4  1  0  0  0
 13 14  1  0  0  0
M  END
> <minimizedAffinity>
-8.18228

> <CNNscore>
0.0554789267

> <CNNaffinity>
5.6018934250

> <CNN_VS>
0.3107870221

> <CNNaffinity_variance>
0.2603636086

$$$$
[H]c1sc(-c2c([H])c([H])c3c(c2[H])C([H])([H])C([H])([H])O3)nc1C(=O)N([H])c1nc2c([H])c(C(=O)N3C([H])([H])C([H])([H])C([H])([H])C3([H])[H])c([H])c([H])c2n1[H]


 35 40  0  0  0  0  0  0  0  0999 V2000
  -93.1376   31.0602   -3.8891 O   0  0  0  0  0  0  0  0  0  0  0  0
  -92.6012   31.1532   -5.0035 C   0  0  0  0  0  0  0  0  0  0  0  0
  -92.3462   30.0384   -5.8292 N   0  0  0  0  0  0  0  0  0  0  0  0
  -91.8867   30.2187   -6.7581 H   0  0  0  0  0  0  0  0  0  0  0  0
  -92.6828   28.7345   -5.4479 C   0  0  0  0  0  0  0  0  0  0  0  0
  -91.9248   28.0409   -4.5386 N   0  0  0  0  0  0  0  0  0  0  0  0
  -92.4445   26.8329   -4.3421 C   0  0  0  0  0  0  0  0  0  0  0  0
  -92.0710   25.7908   -3.5530 C   0  0  0  0  0  0  0  0  0  0  0  0
  -92.8228   24.5947   -3.5375 C   0  0  0  0  0  0  0  0  0  0  0  0
  -93.9188   24.5562   -4.3449 C   0  0  0  0  0  0  0  0  0  0  0  0
  -94.2930   25.6277   -5.1489 C   0  0  0  0  0  0  0  0  0  0  0  0
  -93.5518   26.7634   -5.1433 C   0  0  0  0  0  0  0  0  0  0  0  0
  -93.6851   27.9292   -5.8115 N   0  0  0  0  0  0  0  0  0  0  0  0
  -94.4431   28.1136   -6.4729 H   0  0  0  0  0  0  0  0  0  0  0  0
  -92.4189   23.5008   -2.6917 C   0  0  0  0  0  0  0  0  0  0  0  0
  -92.0398   22.4364   -3.3398 O   0  0  0  0  0  0  0  0  0  0  0  0
  -92.3815   23.4336   -1.2937 N   0  0  0  0  0  0  0  0  0  0  0  0
  -91.9052   22.1597   -0.6574 C   0  0  0  0  0  0  0  0  0  0  0  0
  -91.3173   22.6489    0.6545 C   0  0  0  0  0  0  0  0  0  0  0  0
  -92.3978   23.6265    1.0518 C   0  0  0  0  0  0  0  0  0  0  0  0
  -92.7115   24.3351   -0.2354 C   0  0  0  0  0  0  0  0  0  0  0  0
  -92.2181   32.5200   -5.4674 C   0  0  0  0  0  0  0  0  0  0  0  0
  -93.0622   33.2717   -6.2473 C   0  0  0  0  0  0  0  0  0  0  0  0
  -92.1440   34.7012   -6.4750 S   0  0  0  0  0  0  0  0  0  0  0  0
  -90.7551   34.2502   -5.5681 C   0  0  0  0  0  0  0  0  0  0  0  0
  -91.0735   33.0564   -5.1548 N   0  0  0  0  0  0  0  0  0  0  0  0
  -89.5402   35.0594   -5.3511 C   0  0  0  0  0  0  0  0  0  0  0  0
  -89.0281   35.2003   -4.0808 C   0  0  0  0  0  0  0  0  0  0  0  0
  -87.8759   35.9654   -3.8602 C   0  0  0  0  0  0  0  0  0  0  0  0
  -87.2452   36.5842   -4.9169 C   0  0  0  0  0  0  0  0  0  0  0  0
  -86.0960   37.3895   -4.9452 O   0  0  0  0  0  0  0  0  0  0  0  0
  -86.0904   38.0920   -6.1753 C   0  0  0  0  0  0  0  0  0  0  0  0
  -86.8737   37.2116   -7.0921 C   0  0  0  0  0  0  0  0  0  0  0  0
  -87.7616   36.4402   -6.1866 C   0  0  0  0  0  0  0  0  0  0  0  0
  -88.9167   35.6691   -6.3838 C   0  0  0  0  0  0  0  0  0  0  0  0
  1  2  2  0  0  0
  2  3  1  0  0  0
  3  5  1  0  0  0
  5  6  2  0  0  0
  6  7  1  0  0  0
  7  8  2  0  0  0
  8  9  1  0  0  0
  9 10  2  0  0  0
 10 11  1  0  0  0
 11 12  2  0  0  0
 12 13  1  0  0  0
  9 15  1  0  0  0
 15 16  2  0  0  0
 15 17  1  0  0  0
 17 18  1  0  0  0
 18 19  1  0  0  0
 19 20  1  0  0  0
 20 21  1  0  0  0
  2 22  1  0  0  0
 22 23  2  0  0  0
 23 24  1  0  0  0
 24 25  1  0  0  0
 25 26  2  0  0  0
 25 27  1  0  0  0
 27 28  2  0  0  0
 28 29  1  0  0  0
 29 30  2  0  0  0
 30 31  1  0  0  0
 31 32  1  0  0  0
 32 33  1  0  0  0
 33 34  1  0  0  0
 34 35  2  0  0  0
 13  5  1  0  0  0
 21 17  1  0  0  0
 26 22  1  0  0  0
 35 27  1  0  0  0
 12  7  1  0  0  0
 34 30  1  0  0  0
  3  4  1  0  0  0
 13 14  1  0  0  0
M  END
> <minimizedAffinity>
-7.24805

> <CNNscore>
0.0513951033

> <CNNaffinity>
5.1360559464

> <CNN_VS>
0.2639681399

> <CNNaffinity_variance>
0.0377438553

$$$$
[H]c1sc(-c2c([H])c([H])c3c(c2[H])C([H])([H])C([H])([H])O3)nc1C(=O)N([H])c1nc2c([H])c(C(=O)N3C([H])([H])C([H])([H])C([H])([H])C3([H])[H])c([H])c([H])c2n1[H]


 35 40  0  0  0  0  0  0  0  0999 V2000
  -90.7458   30.7978   -1.3025 O   0  0  0  0  0  0  0  0  0  0  0  0
  -91.1217   30.1805   -2.3105 C   0  0  0  0  0  0  0  0  0  0  0  0
  -91.2033   28.7734   -2.3641 N   0  0  0  0  0  0  0  0  0  0  0  0
  -91.5336   28.3413   -3.2645 H   0  0  0  0  0  0  0  0  0  0  0  0
  -90.8631   27.9639   -1.2743 C   0  0  0  0  0  0  0  0  0  0  0  0
  -91.4986   26.7688   -1.0496 N   0  0  0  0  0  0  0  0  0  0  0  0
  -91.0024   26.1884    0.0389 C   0  0  0  0  0  0  0  0  0  0  0  0
  -91.2905   25.0174    0.6664 C   0  0  0  0  0  0  0  0  0  0  0  0
  -90.5923   24.6364    1.8341 C   0  0  0  0  0  0  0  0  0  0  0  0
  -89.6359   25.4983    2.2779 C   0  0  0  0  0  0  0  0  0  0  0  0
  -89.3484   26.6944    1.6290 C   0  0  0  0  0  0  0  0  0  0  0  0
  -90.0350   27.0341    0.5099 C   0  0  0  0  0  0  0  0  0  0  0  0
  -89.9608   28.1120   -0.3000 N   0  0  0  0  0  0  0  0  0  0  0  0
  -89.3069   28.8838   -0.1487 H   0  0  0  0  0  0  0  0  0  0  0  0
  -90.9037   23.3897    2.4852 C   0  0  0  0  0  0  0  0  0  0  0  0
  -91.4640   23.5226    3.6535 O   0  0  0  0  0  0  0  0  0  0  0  0
  -90.6872   22.0814    2.0357 N   0  0  0  0  0  0  0  0  0  0  0  0
  -91.1198   20.9472    2.9195 C   0  0  0  0  0  0  0  0  0  0  0  0
  -91.4230   19.8479    1.9165 C   0  0  0  0  0  0  0  0  0  0  0  0
  -90.2266   20.0140    1.0098 C   0  0  0  0  0  0  0  0  0  0  0  0
  -90.1101   21.5047    0.8627 C   0  0  0  0  0  0  0  0  0  0  0  0
  -91.4990   30.9892   -3.5079 C   0  0  0  0  0  0  0  0  0  0  0  0
  -92.6556   30.7368   -4.2039 C   0  0  0  0  0  0  0  0  0  0  0  0
  -92.5846   31.9246   -5.4379 S   0  0  0  0  0  0  0  0  0  0  0  0
  -91.0968   32.6592   -4.9889 C   0  0  0  0  0  0  0  0  0  0  0  0
  -90.7526   31.9636   -3.9425 N   0  0  0  0  0  0  0  0  0  0  0  0
  -90.4313   33.7910   -5.6626 C   0  0  0  0  0  0  0  0  0  0  0  0
  -90.9905   34.3399   -6.7949 C   0  0  0  0  0  0  0  0  0  0  0  0
  -90.3697   35.4141   -7.4446 C   0  0  0  0  0  0  0  0  0  0  0  0
  -89.1911   35.9305   -6.9531 C   0  0  0  0  0  0  0  0  0  0  0  0
  -88.3951   36.9868   -7.4225 O   0  0  0  0  0  0  0  0  0  0  0  0
  -87.1179   36.8659   -6.8218 C   0  0  0  0  0  0  0  0  0  0  0  0
  -87.3914   36.1402   -5.5459 C   0  0  0  0  0  0  0  0  0  0  0  0
  -88.6352   35.3777   -5.8195 C   0  0  0  0  0  0  0  0  0  0  0  0
  -89.2746   34.3022   -5.1854 C   0  0  0  0  0  0  0  0  0  0  0  0
  1  2  2  0  0  0
  2  3  1  0  0  0
  3  5  1  0  0  0
  5  6  2  0  0  0
  6  7  1  0  0  0
  7  8  2  0  0  0
  8  9  1  0  0  0
  9 10  2  0  0  0
 10 11  1  0  0  0
 11 12  2  0  0  0
 12 13  1  0  0  0
  9 15  1  0  0  0
 15 16  2  0  0  0
 15 17  1  0  0  0
 17 18  1  0  0  0
 18 19  1  0  0  0
 19 20  1  0  0  0
 20 21  1  0  0  0
  2 22  1  0  0  0
 22 23  2  0  0  0
 23 24  1  0  0  0
 24 25  1  0  0  0
 25 26  2  0  0  0
 25 27  1  0  0  0
 27 28  2  0  0  0
 28 29  1  0  0  0
 29 30  2  0  0  0
 30 31  1  0  0  0
 31 32  1  0  0  0
 32 33  1  0  0  0
 33 34  1  0  0  0
 34 35  2  0  0  0
 13  5  1  0  0  0
 21 17  1  0  0  0
 26 22  1  0  0  0
 35 27  1  0  0  0
 12  7  1  0  0  0
 34 30  1  0  0  0
  3  4  1  0  0  0
 13 14  1  0  0  0
M  END
> <minimizedAffinity>
-6.98092

> <CNNscore>
0.0496334955

> <CNNaffinity>
5.2716445923

> <CNN_VS>
0.2616501451

> <CNNaffinity_variance>
0.2181458920

$$$$
[H]N=C(OC([H])([H])[H])c1nc2c([H])c([H])c3nc([H])nc(N([H])c4c([H])c([H])c(C#N)c([H])c4[H])c3c2s1


 28 31  0  0  0  0  0  0  0  0999 V2000
  -86.2148   32.5017   -1.1880 C   0  0  0  0  0  0  0  0  0  0  0  0
  -84.9839   32.6176   -0.7262 N   0  0  0  0  0  0  0  0  0  0  0  0
  -84.4960   31.6812    0.0469 C   0  0  0  0  0  0  0  0  0  0  0  0
  -83.1976   31.6700    0.6025 C   0  0  0  0  0  0  0  0  0  0  0  0
  -82.8171   30.6259    1.3831 C   0  0  0  0  0  0  0  0  0  0  0  0
  -83.5990   29.5485    1.6925 C   0  0  0  0  0  0  0  0  0  0  0  0
  -83.2386   28.5162    2.4445 N   0  0  0  0  0  0  0  0  0  0  0  0
  -84.0612   27.4838    2.6978 C   0  0  0  0  0  0  0  0  0  0  0  0
  -85.2813   27.5194    2.1635 N   0  0  0  0  0  0  0  0  0  0  0  0
  -85.7606   28.5269    1.3763 C   0  0  0  0  0  0  0  0  0  0  0  0
  -84.8857   29.5559    1.1452 C   0  0  0  0  0  0  0  0  0  0  0  0
  -85.2968   30.6144    0.3421 C   0  0  0  0  0  0  0  0  0  0  0  0
  -86.7127   31.0276   -0.5179 S   0  0  0  0  0  0  0  0  0  0  0  0
  -86.9659   33.4297   -2.0682 C   0  0  0  0  0  0  0  0  0  0  0  0
  -86.4136   34.0252   -3.0339 N   0  0  0  0  0  0  0  0  0  0  0  0
  -85.3996   33.8861   -3.2513 H   0  0  0  0  0  0  0  0  0  0  0  0
  -89.1675   34.0541   -2.8641 C   0  0  0  0  0  0  0  0  0  0  0  0
  -88.3103   33.6406   -1.8134 O   0  0  0  0  0  0  0  0  0  0  0  0
  -87.0931   28.4743    0.9405 N   0  0  0  0  0  0  0  0  0  0  0  0
  -87.4806   29.1667    0.2923 H   0  0  0  0  0  0  0  0  0  0  0  0
  -87.9838   27.4356    1.4269 C   0  0  0  0  0  0  0  0  0  0  0  0
  -88.5075   27.5977    2.7058 C   0  0  0  0  0  0  0  0  0  0  0  0
  -89.3924   26.6975    3.2592 C   0  0  0  0  0  0  0  0  0  0  0  0
  -89.7862   25.5911    2.5389 C   0  0  0  0  0  0  0  0  0  0  0  0
  -89.2701   25.4300    1.2751 C   0  0  0  0  0  0  0  0  0  0  0  0
  -88.3672   26.3470    0.7071 C   0  0  0  0  0  0  0  0  0  0  0  0
  -90.7171   24.6273    3.0980 C   0  0  0  0  0  0  0  0  0  0  0  0
  -91.4636   23.8739    3.5569 N   0  0  0  0  0  0  0  0  0  0  0  0
 17 18  1  0  0  0
 18 14  1  0  0  0
 14 15  2  0  0  0
 14  1  1  0  0  0
  1  2  2  0  0  0
  2  3  1  0  0  0
  3  4  2  0  0  0
  4  5  1  0  0  0
  5  6  2  0  0  0
  6  7  1  0  0  0
  7  8  2  0  0  0
  8  9  1  0  0  0
  9 10  2  0  0  0
 10 19  1  0  0  0
 19 21  1  0  0  0
 21 22  2  0  0  0
 22 23  1  0  0  0
 23 24  2  0  0  0
 24 25  1  0  0  0
 25 26  2  0  0  0
 24 27  1  0  0  0
 27 28  3  0  0  0
 10 11  1  0  0  0
 11 12  2  0  0  0
 12 13  1  0  0  0
 13  1  1  0  0  0
 12  3  1  0  0  0
 11  6  1  0  0  0
 26 21  1  0  0  0
 15 16  1  0  0  0
 19 20  1  0  0  0
M  END
> <minimizedAffinity>
-8.92894

> <CNNscore>
0.8470267653

> <CNNaffinity>
7.1884422302

> <CNN_VS>
6.0888028145

> <CNNaffinity_variance>
0.1221944243

$$$$
[H]N=C(OC([H])([H])[H])c1nc2c([H])c([H])c3nc([H])nc(N([H])c4c([H])c([H])c(C#N)c([H])c4[H])c3c2s1


 28 31  0  0  0  0  0  0  0  0999 V2000
  -87.0583   27.1159    1.7912 C   0  0  0  0  0  0  0  0  0  0  0  0
  -85.8123   27.0224    2.2164 N   0  0  0  0  0  0  0  0  0  0  0  0
  -84.9758   27.9998    1.9768 C   0  0  0  0  0  0  0  0  0  0  0  0
  -83.6224   28.0384    2.3789 C   0  0  0  0  0  0  0  0  0  0  0  0
  -82.8674   29.1240    2.0698 C   0  0  0  0  0  0  0  0  0  0  0  0
  -83.3087   30.2199    1.3827 C   0  0  0  0  0  0  0  0  0  0  0  0
  -82.5869   31.2922    1.0821 N   0  0  0  0  0  0  0  0  0  0  0  0
  -83.0937   32.3400    0.4101 C   0  0  0  0  0  0  0  0  0  0  0  0
  -84.3724   32.2782    0.0404 N   0  0  0  0  0  0  0  0  0  0  0  0
  -85.2089   31.2290    0.2932 C   0  0  0  0  0  0  0  0  0  0  0  0
  -84.6478   30.1855    0.9818 C   0  0  0  0  0  0  0  0  0  0  0  0
  -85.4403   29.0844    1.2879 C   0  0  0  0  0  0  0  0  0  0  0  0
  -87.0645   28.6274    1.0263 S   0  0  0  0  0  0  0  0  0  0  0  0
  -88.1660   26.1417    1.9457 C   0  0  0  0  0  0  0  0  0  0  0  0
  -88.5253   25.3865    1.0009 N   0  0  0  0  0  0  0  0  0  0  0  0
  -88.0528   25.4192    0.0679 H   0  0  0  0  0  0  0  0  0  0  0  0
  -89.5261   27.1949    3.6521 C   0  0  0  0  0  0  0  0  0  0  0  0
  -88.8167   26.0679    3.1655 O   0  0  0  0  0  0  0  0  0  0  0  0
  -86.5143   31.2611   -0.2198 N   0  0  0  0  0  0  0  0  0  0  0  0
  -87.2604   30.6672    0.1552 H   0  0  0  0  0  0  0  0  0  0  0  0
  -86.8434   32.1311   -1.3349 C   0  0  0  0  0  0  0  0  0  0  0  0
  -87.3637   31.5289   -2.4763 C   0  0  0  0  0  0  0  0  0  0  0  0
  -87.7479   32.2555   -3.5827 C   0  0  0  0  0  0  0  0  0  0  0  0
  -87.6216   33.6274   -3.5806 C   0  0  0  0  0  0  0  0  0  0  0  0
  -87.1084   34.2236   -2.4534 C   0  0  0  0  0  0  0  0  0  0  0  0
  -86.7156   33.4852   -1.3224 C   0  0  0  0  0  0  0  0  0  0  0  0
  -88.0188   34.4167   -4.7327 C   0  0  0  0  0  0  0  0  0  0  0  0
  -88.3456   35.0570   -5.6375 N   0  0  0  0  0  0  0  0  0  0  0  0
 17 18  1  0  0  0
 18 14  1  0  0  0
 14 15  2  0  0  0
 14  1  1  0  0  0
  1  2  2  0  0  0
  2  3  1  0  0  0
  3  4  2  0  0  0
  4  5  1  0  0  0
  5  6  2  0  0  0
  6  7  1  0  0  0
  7  8  2  0  0  0
  8  9  1  0  0  0
  9 10  2  0  0  0
 10 19  1  0  0  0
 19 21  1  0  0  0
 21 22  2  0  0  0
 22 23  1  0  0  0
 23 24  2  0  0  0
 24 25  1  0  0  0
 25 26  2  0  0  0
 24 27  1  0  0  0
 27 28  3  0  0  0
 10 11  1  0  0  0
 11 12  2  0  0  0
 12 13  1  0  0  0
 13  1  1  0  0  0
 12  3  1  0  0  0
 11  6  1  0  0  0
 26 21  1  0  0  0
 15 16  1  0  0  0
 19 20  1  0  0  0
M  END
> <minimizedAffinity>
-8.91936

> <CNNscore>
0.6541785002

> <CNNaffinity>
7.0355973244

> <CNN_VS>
4.6025366783

> <CNNaffinity_variance>
0.1235654205

$$$$
[H]N=C(OC([H])([H])[H])c1nc2c([H])c([H])c3nc([H])nc(N([H])c4c([H])c([H])c(C#N)c([H])c4[H])c3c2s1


 28 31  0  0  0  0  0  0  0  0999 V2000
  -86.5916   32.8462   -1.2059 C   0  0  0  0  0  0  0  0  0  0  0  0
  -85.2939   33.0155   -1.0346 N   0  0  0  0  0  0  0  0  0  0  0  0
  -84.6233   32.1570   -0.3095 C   0  0  0  0  0  0  0  0  0  0  0  0
  -83.2358   32.2088   -0.0510 C   0  0  0  0  0  0  0  0  0  0  0  0
  -82.6652   31.2426    0.7140 C   0  0  0  0  0  0  0  0  0  0  0  0
  -83.3297   30.1892    1.2765 C   0  0  0  0  0  0  0  0  0  0  0  0
  -82.7852   29.2321    2.0171 N   0  0  0  0  0  0  0  0  0  0  0  0
  -83.5029   28.2181    2.5302 C   0  0  0  0  0  0  0  0  0  0  0  0
  -84.8101   28.1931    2.2732 N   0  0  0  0  0  0  0  0  0  0  0  0
  -85.4775   29.1213    1.5265 C   0  0  0  0  0  0  0  0  0  0  0  0
  -84.7039   30.1345    1.0239 C   0  0  0  0  0  0  0  0  0  0  0  0
  -85.3097   31.1126    0.2425 C   0  0  0  0  0  0  0  0  0  0  0  0
  -86.8895   31.4328   -0.3206 S   0  0  0  0  0  0  0  0  0  0  0  0
  -87.5420   33.6840   -1.9771 C   0  0  0  0  0  0  0  0  0  0  0  0
  -88.7833   33.4576   -1.9740 N   0  0  0  0  0  0  0  0  0  0  0  0
  -89.1911   32.6662   -1.4245 H   0  0  0  0  0  0  0  0  0  0  0  0
  -87.2655   34.7872   -4.1165 C   0  0  0  0  0  0  0  0  0  0  0  0
  -87.0414   34.7414   -2.7174 O   0  0  0  0  0  0  0  0  0  0  0  0
  -86.8705   29.0163    1.3973 N   0  0  0  0  0  0  0  0  0  0  0  0
  -87.5006   29.7764    1.6711 H   0  0  0  0  0  0  0  0  0  0  0  0
  -87.4705   27.7951    0.8898 C   0  0  0  0  0  0  0  0  0  0  0  0
  -88.2336   27.0464    1.7805 C   0  0  0  0  0  0  0  0  0  0  0  0
  -88.8823   25.8901    1.4039 C   0  0  0  0  0  0  0  0  0  0  0  0
  -88.7858   25.4410    0.1050 C   0  0  0  0  0  0  0  0  0  0  0  0
  -88.0326   26.1799   -0.7760 C   0  0  0  0  0  0  0  0  0  0  0  0
  -87.3697   27.3606   -0.3952 C   0  0  0  0  0  0  0  0  0  0  0  0
  -89.4589   24.2261   -0.3181 C   0  0  0  0  0  0  0  0  0  0  0  0
  -90.0086   23.2621   -0.6403 N   0  0  0  0  0  0  0  0  0  0  0  0
 17 18  1  0  0  0
 18 14  1  0  0  0
 14 15  2  0  0  0
 14  1  1  0  0  0
  1  2  2  0  0  0
  2  3  1  0  0  0
  3  4  2  0  0  0
  4  5  1  0  0  0
  5  6  2  0  0  0
  6  7  1  0  0  0
  7  8  2  0  0  0
  8  9  1  0  0  0
  9 10  2  0  0  0
 10 19  1  0  0  0
 19 21  1  0  0  0
 21 22  2  0  0  0
 22 23  1  0  0  0
 23 24  2  0  0  0
 24 25  1  0  0  0
 25 26  2  0  0  0
 24 27  1  0  0  0
 27 28  3  0  0  0
 10 11  1  0  0  0
 11 12  2  0  0  0
 12 13  1  0  0  0
 13  1  1  0  0  0
 12  3  1  0  0  0
 11  6  1  0  0  0
 26 21  1  0  0  0
 15 16  1  0  0  0
 19 20  1  0  0  0
M  END
> <minimizedAffinity>
-8.34407

> <CNNscore>
0.5559111238

> <CNNaffinity>
6.9535837173

> <CNN_VS>
3.8655745983

> <CNNaffinity_variance>
0.1296294034

$$$$
[H]N=C(OC([H])([H])[H])c1nc2c([H])c([H])c3nc([H])nc(N([H])c4c([H])c([H])c(C#N)c([H])c4[H])c3c2s1


 28 31  0  0  0  0  0  0  0  0999 V2000
  -87.2308   27.0936    1.8940 C   0  0  0  0  0  0  0  0  0  0  0  0
  -85.9787   26.9880    2.2975 N   0  0  0  0  0  0  0  0  0  0  0  0
  -85.1345   27.9528    2.0345 C   0  0  0  0  0  0  0  0  0  0  0  0
  -83.7737   27.9777    2.4118 C   0  0  0  0  0  0  0  0  0  0  0  0
  -83.0110   29.0511    2.0799 C   0  0  0  0  0  0  0  0  0  0  0  0
  -83.4510   30.1467    1.3915 C   0  0  0  0  0  0  0  0  0  0  0  0
  -82.7215   31.2073    1.0689 N   0  0  0  0  0  0  0  0  0  0  0  0
  -83.2274   32.2558    0.3971 C   0  0  0  0  0  0  0  0  0  0  0  0
  -84.5132   32.2069    0.0511 N   0  0  0  0  0  0  0  0  0  0  0  0
  -85.3580   31.1705    0.3279 C   0  0  0  0  0  0  0  0  0  0  0  0
  -84.7975   30.1258    1.0151 C   0  0  0  0  0  0  0  0  0  0  0  0
  -85.5979   29.0373    1.3449 C   0  0  0  0  0  0  0  0  0  0  0  0
  -87.2322   28.5987    1.1165 S   0  0  0  0  0  0  0  0  0  0  0  0
  -88.3476   26.1347    2.0767 C   0  0  0  0  0  0  0  0  0  0  0  0
  -88.4839   25.4655    3.1377 N   0  0  0  0  0  0  0  0  0  0  0  0
  -87.8107   25.5622    3.9328 H   0  0  0  0  0  0  0  0  0  0  0  0
  -88.8336   25.4398   -0.1930 C   0  0  0  0  0  0  0  0  0  0  0  0
  -89.2601   25.9781    1.0473 O   0  0  0  0  0  0  0  0  0  0  0  0
  -86.6720   31.2147   -0.1618 N   0  0  0  0  0  0  0  0  0  0  0  0
  -87.4346   30.6923    0.2803 H   0  0  0  0  0  0  0  0  0  0  0  0
  -86.9879   31.9929   -1.3465 C   0  0  0  0  0  0  0  0  0  0  0  0
  -86.8536   33.3746   -1.2513 C   0  0  0  0  0  0  0  0  0  0  0  0
  -87.0883   34.2130   -2.3197 C   0  0  0  0  0  0  0  0  0  0  0  0
  -87.4703   33.6865   -3.5343 C   0  0  0  0  0  0  0  0  0  0  0  0
  -87.6028   32.3217   -3.6298 C   0  0  0  0  0  0  0  0  0  0  0  0
  -87.3635   31.4630   -2.5416 C   0  0  0  0  0  0  0  0  0  0  0  0
  -87.7239   34.5471   -4.6759 C   0  0  0  0  0  0  0  0  0  0  0  0
  -87.9139   35.2462   -5.5761 N   0  0  0  0  0  0  0  0  0  0  0  0
 17 18  1  0  0  0
 18 14  1  0  0  0
 14 15  2  0  0  0
 14  1  1  0  0  0
  1  2  2  0  0  0
  2  3  1  0  0  0
  3  4  2  0  0  0
  4  5  1  0  0  0
  5  6  2  0  0  0
  6  7  1  0  0  0
  7  8  2  0  0  0
  8  9  1  0  0  0
  9 10  2  0  0  0
 10 19  1  0  0  0
 19 21  1  0  0  0
 21 22  2  0  0  0
 22 23  1  0  0  0
 23 24  2  0  0  0
 24 25  1  0  0  0
 25 26  2  0  0  0
 24 27  1  0  0  0
 27 28  3  0  0  0
 10 11  1  0  0  0
 11 12  2  0  0  0
 12 13  1  0  0  0
 13  1  1  0  0  0
 12  3  1  0  0  0
 11  6  1  0  0  0
 26 21  1  0  0  0
 15 16  1  0  0  0
 19 20  1  0  0  0
M  END
> <minimizedAffinity>
-8.83448

> <CNNscore>
0.5179367661

> <CNNaffinity>
6.8778114319

> <CNN_VS>
3.5622713566

> <CNNaffinity_variance>
0.1476409137

$$$$
[H]N=C(OC([H])([H])[H])c1nc2c([H])c([H])c3nc([H])nc(N([H])c4c([H])c([H])c(C#N)c([H])c4[H])c3c2s1


 28 31  0  0  0  0  0  0  0  0999 V2000
  -84.4653   29.9993    1.2443 C   0  0  0  0  0  0  0  0  0  0  0  0
  -83.9811   31.0392    0.5917 N   0  0  0  0  0  0  0  0  0  0  0  0
  -84.7907   31.7953   -0.1051 C   0  0  0  0  0  0  0  0  0  0  0  0
  -84.4139   32.9399   -0.8417 C   0  0  0  0  0  0  0  0  0  0  0  0
  -85.3631   33.6402   -1.5145 C   0  0  0  0  0  0  0  0  0  0  0  0
  -86.6940   33.3310   -1.5475 C   0  0  0  0  0  0  0  0  0  0  0  0
  -87.6347   34.0105   -2.1912 N   0  0  0  0  0  0  0  0  0  0  0  0
  -88.9295   33.6507   -2.1696 C   0  0  0  0  0  0  0  0  0  0  0  0
  -89.2587   32.5661   -1.4691 N   0  0  0  0  0  0  0  0  0  0  0  0
  -88.3788   31.7907   -0.7698 C   0  0  0  0  0  0  0  0  0  0  0  0
  -87.0713   32.1977   -0.8204 C   0  0  0  0  0  0  0  0  0  0  0  0
  -86.1165   31.4656   -0.1230 C   0  0  0  0  0  0  0  0  0  0  0  0
  -86.1161   30.0781    0.8720 S   0  0  0  0  0  0  0  0  0  0  0  0
  -83.7428   29.0151    2.0866 C   0  0  0  0  0  0  0  0  0  0  0  0
  -82.4832   28.9972    2.1580 N   0  0  0  0  0  0  0  0  0  0  0  0
  -81.8977   29.6795    1.6229 H   0  0  0  0  0  0  0  0  0  0  0  0
  -85.1590   27.0496    2.1330 C   0  0  0  0  0  0  0  0  0  0  0  0
  -84.4820   28.0950    2.8104 O   0  0  0  0  0  0  0  0  0  0  0  0
  -88.8491   30.6306   -0.1364 N   0  0  0  0  0  0  0  0  0  0  0  0
  -88.7558   30.4871    0.8738 H   0  0  0  0  0  0  0  0  0  0  0  0
  -89.4661   29.5695   -0.9124 C   0  0  0  0  0  0  0  0  0  0  0  0
  -90.7847   29.2462   -0.6075 C   0  0  0  0  0  0  0  0  0  0  0  0
  -91.4865   28.2835   -1.3006 C   0  0  0  0  0  0  0  0  0  0  0  0
  -90.8811   27.6047   -2.3355 C   0  0  0  0  0  0  0  0  0  0  0  0
  -89.5787   27.9235   -2.6381 C   0  0  0  0  0  0  0  0  0  0  0  0
  -88.8597   28.9058   -1.9332 C   0  0  0  0  0  0  0  0  0  0  0  0
  -91.5974   26.5859   -3.0818 C   0  0  0  0  0  0  0  0  0  0  0  0
  -92.1629   25.7615   -3.6615 N   0  0  0  0  0  0  0  0  0  0  0  0
 17 18  1  0  0  0
 18 14  1  0  0  0
 14 15  2  0  0  0
 14  1  1  0  0  0
  1  2  2  0  0  0
  2  3  1  0  0  0
  3  4  2  0  0  0
  4  5  1  0  0  0
  5  6  2  0  0  0
  6  7  1  0  0  0
  7  8  2  0  0  0
  8  9  1  0  0  0
  9 10  2  0  0  0
 10 19  1  0  0  0
 19 21  1  0  0  0
 21 22  2  0  0  0
 22 23  1  0  0  0
 23 24  2  0  0  0
 24 25  1  0  0  0
 25 26  2  0  0  0
 24 27  1  0  0  0
 27 28  3  0  0  0
 10 11  1  0  0  0
 11 12  2  0  0  0
 12 13  1  0  0  0
 13  1  1  0  0  0
 12  3  1  0  0  0
 11  6  1  0  0  0
 26 21  1  0  0  0
 15 16  1  0  0  0
 19 20  1  0  0  0
M  END
> <minimizedAffinity>
-7.32208

> <CNNscore>
0.1880016625

> <CNNaffinity>
6.1765937805

> <CNN_VS>
1.1612099409

> <CNNaffinity_variance>
0.2333513796

$$$$
[H]N=C(OC([H])([H])[H])c1nc2c([H])c([H])c3nc([H])nc(N([H])c4c([H])c([H])c(C#N)c([H])c4[H])c3c2s1


 28 31  0  0  0  0  0  0  0  0999 V2000
  -89.4498   28.2264   -2.2080 C   0  0  0  0  0  0  0  0  0  0  0  0
  -89.3631   28.9842   -3.2851 N   0  0  0  0  0  0  0  0  0  0  0  0
  -88.6792   30.0988   -3.2341 C   0  0  0  0  0  0  0  0  0  0  0  0
  -88.4951   30.9980   -4.3075 C   0  0  0  0  0  0  0  0  0  0  0  0
  -87.7505   32.1176   -4.1170 C   0  0  0  0  0  0  0  0  0  0  0  0
  -87.1420   32.4682   -2.9446 C   0  0  0  0  0  0  0  0  0  0  0  0
  -86.4031   33.5524   -2.7456 N   0  0  0  0  0  0  0  0  0  0  0  0
  -85.8256   33.8270   -1.5634 C   0  0  0  0  0  0  0  0  0  0  0  0
  -86.0161   32.9638   -0.5663 N   0  0  0  0  0  0  0  0  0  0  0  0
  -86.7550   31.8189   -0.6545 C   0  0  0  0  0  0  0  0  0  0  0  0
  -87.3225   31.5811   -1.8789 C   0  0  0  0  0  0  0  0  0  0  0  0
  -88.0804   30.4278   -2.0510 C   0  0  0  0  0  0  0  0  0  0  0  0
  -88.5414   29.1027   -1.0780 S   0  0  0  0  0  0  0  0  0  0  0  0
  -90.1635   26.9375   -2.0363 C   0  0  0  0  0  0  0  0  0  0  0  0
  -89.6428   25.8382   -2.3716 N   0  0  0  0  0  0  0  0  0  0  0  0
  -88.6830   25.7941   -2.7856 H   0  0  0  0  0  0  0  0  0  0  0  0
  -91.8098   25.9612   -0.5506 C   0  0  0  0  0  0  0  0  0  0  0  0
  -91.4363   26.9536   -1.4917 O   0  0  0  0  0  0  0  0  0  0  0  0
  -86.9368   31.0366    0.4958 N   0  0  0  0  0  0  0  0  0  0  0  0
  -87.8320   31.0010    0.9929 H   0  0  0  0  0  0  0  0  0  0  0  0
  -85.8340   30.2642    1.0400 C   0  0  0  0  0  0  0  0  0  0  0  0
  -86.1060   28.9544    1.4229 C   0  0  0  0  0  0  0  0  0  0  0  0
  -85.1319   28.1138    1.9170 C   0  0  0  0  0  0  0  0  0  0  0  0
  -83.8364   28.5650    2.0447 C   0  0  0  0  0  0  0  0  0  0  0  0
  -83.5662   29.8585    1.6663 C   0  0  0  0  0  0  0  0  0  0  0  0
  -84.5578   30.7189    1.1612 C   0  0  0  0  0  0  0  0  0  0  0  0
  -82.7911   27.7003    2.5623 C   0  0  0  0  0  0  0  0  0  0  0  0
  -81.9609   27.0005    2.9578 N   0  0  0  0  0  0  0  0  0  0  0  0
 17 18  1  0  0  0
 18 14  1  0  0  0
 14 15  2  0  0  0
 14  1  1  0  0  0
  1  2  2  0  0  0
  2  3  1  0  0  0
  3  4  2  0  0  0
  4  5  1  0  0  0
  5  6  2  0  0  0
  6  7  1  0  0  0
  7  8  2  0  0  0
  8  9  1  0  0  0
  9 10  2  0  0  0
 10 19  1  0  0  0
 19 21  1  0  0  0
 21 22  2  0  0  0
 22 23  1  0  0  0
 23 24  2  0  0  0
 24 25  1  0  0  0
 25 26  2  0  0  0
 24 27  1  0  0  0
 27 28  3  0  0  0
 10 11  1  0  0  0
 11 12  2  0  0  0
 12 13  1  0  0  0
 13  1  1  0  0  0
 12  3  1  0  0  0
 11  6  1  0  0  0
 26 21  1  0  0  0
 15 16  1  0  0  0
 19 20  1  0  0  0
M  END
> <minimizedAffinity>
-7.76561

> <CNNscore>
0.1707013398

> <CNNaffinity>
6.2908048630

> <CNN_VS>
1.0738488436

> <CNNaffinity_variance>
0.3177928030

$$$$
[H]N=C(OC([H])([H])[H])c1nc2c([H])c([H])c3nc([H])nc(N([H])c4c([H])c([H])c(C#N)c([H])c4[H])c3c2s1


 28 31  0  0  0  0  0  0  0  0999 V2000
  -87.4397   37.2116   -5.3204 C   0  0  0  0  0  0  0  0  0  0  0  0
  -88.3801   36.5818   -5.9992 N   0  0  0  0  0  0  0  0  0  0  0  0
  -88.8077   35.4188   -5.5785 C   0  0  0  0  0  0  0  0  0  0  0  0
  -89.8110   34.6408   -6.1973 C   0  0  0  0  0  0  0  0  0  0  0  0
  -90.1654   33.4516   -5.6456 C   0  0  0  0  0  0  0  0  0  0  0  0
  -89.6241   32.9183   -4.5096 C   0  0  0  0  0  0  0  0  0  0  0  0
  -89.9666   31.7636   -3.9527 N   0  0  0  0  0  0  0  0  0  0  0  0
  -89.3952   31.3069   -2.8251 C   0  0  0  0  0  0  0  0  0  0  0  0
  -88.4501   32.0586   -2.2620 N   0  0  0  0  0  0  0  0  0  0  0  0
  -88.0170   33.2604   -2.7443 C   0  0  0  0  0  0  0  0  0  0  0  0
  -88.6296   33.6849   -3.8942 C   0  0  0  0  0  0  0  0  0  0  0  0
  -88.2510   34.9064   -4.4409 C   0  0  0  0  0  0  0  0  0  0  0  0
  -87.1389   36.1395   -4.0437 S   0  0  0  0  0  0  0  0  0  0  0  0
  -86.8097   38.5233   -5.6078 C   0  0  0  0  0  0  0  0  0  0  0  0
  -87.2239   39.2721   -6.5351 N   0  0  0  0  0  0  0  0  0  0  0  0
  -88.0317   38.9945   -7.1394 H   0  0  0  0  0  0  0  0  0  0  0  0
  -84.4189   38.5798   -5.2181 C   0  0  0  0  0  0  0  0  0  0  0  0
  -85.7377   38.9268   -4.8302 O   0  0  0  0  0  0  0  0  0  0  0  0
  -86.9596   33.9134   -2.0934 N   0  0  0  0  0  0  0  0  0  0  0  0
  -86.8111   34.9238   -2.1767 H   0  0  0  0  0  0  0  0  0  0  0  0
  -86.0125   33.1581   -1.2925 C   0  0  0  0  0  0  0  0  0  0  0  0
  -86.5250   32.1299   -0.5073 C   0  0  0  0  0  0  0  0  0  0  0  0
  -85.7195   31.3210    0.2649 C   0  0  0  0  0  0  0  0  0  0  0  0
  -84.3561   31.5192    0.2751 C   0  0  0  0  0  0  0  0  0  0  0  0
  -83.8484   32.5341   -0.5005 C   0  0  0  0  0  0  0  0  0  0  0  0
  -84.6676   33.3612   -1.2902 C   0  0  0  0  0  0  0  0  0  0  0  0
  -83.4847   30.6815    1.0797 C   0  0  0  0  0  0  0  0  0  0  0  0
  -82.8056   30.0139    1.7343 N   0  0  0  0  0  0  0  0  0  0  0  0
 17 18  1  0  0  0
 18 14  1  0  0  0
 14 15  2  0  0  0
 14  1  1  0  0  0
  1  2  2  0  0  0
  2  3  1  0  0  0
  3  4  2  0  0  0
  4  5  1  0  0  0
  5  6  2  0  0  0
  6  7  1  0  0  0
  7  8  2  0  0  0
  8  9  1  0  0  0
  9 10  2  0  0  0
 10 19  1  0  0  0
 19 21  1  0  0  0
 21 22  2  0  0  0
 22 23  1  0  0  0
 23 24  2  0  0  0
 24 25  1  0  0  0
 25 26  2  0  0  0
 24 27  1  0  0  0
 27 28  3  0  0  0
 10 11  1  0  0  0
 11 12  2  0  0  0
 12 13  1  0  0  0
 13  1  1  0  0  0
 12  3  1  0  0  0
 11  6  1  0  0  0
 26 21  1  0  0  0
 15 16  1  0  0  0
 19 20  1  0  0  0
M  END
> <minimizedAffinity>
-6.70321

> <CNNscore>
0.1706564575

> <CNNaffinity>
5.8658342361

> <CNN_VS>
1.0010424852

> <CNNaffinity_variance>
0.0989611670

$$$$
[H]N=C(OC([H])([H])[H])c1nc2c([H])c([H])c3nc([H])nc(N([H])c4c([H])c([H])c(C#N)c([H])c4[H])c3c2s1


 28 31  0  0  0  0  0  0  0  0999 V2000
  -87.0904   33.3595   -2.9365 C   0  0  0  0  0  0  0  0  0  0  0  0
  -86.3564   33.4648   -1.8447 N   0  0  0  0  0  0  0  0  0  0  0  0
  -86.2575   32.4416   -1.0348 C   0  0  0  0  0  0  0  0  0  0  0  0
  -85.5028   32.4099    0.1585 C   0  0  0  0  0  0  0  0  0  0  0  0
  -85.4812   31.2737    0.9019 C   0  0  0  0  0  0  0  0  0  0  0  0
  -86.1437   30.1187    0.5937 C   0  0  0  0  0  0  0  0  0  0  0  0
  -86.1242   28.9977    1.3036 N   0  0  0  0  0  0  0  0  0  0  0  0
  -86.7950   27.8941    0.9312 C   0  0  0  0  0  0  0  0  0  0  0  0
  -87.5009   27.9505   -0.1975 N   0  0  0  0  0  0  0  0  0  0  0  0
  -87.5947   29.0465   -1.0065 C   0  0  0  0  0  0  0  0  0  0  0  0
  -86.8930   30.1460   -0.5866 C   0  0  0  0  0  0  0  0  0  0  0  0
  -86.9292   31.2984   -1.3643 C   0  0  0  0  0  0  0  0  0  0  0  0
  -87.6663   31.7699   -2.8304 S   0  0  0  0  0  0  0  0  0  0  0  0
  -87.3437   34.3776   -3.9850 C   0  0  0  0  0  0  0  0  0  0  0  0
  -86.8293   35.5286   -3.9337 N   0  0  0  0  0  0  0  0  0  0  0  0
  -86.2013   35.8097   -3.1455 H   0  0  0  0  0  0  0  0  0  0  0  0
  -89.5254   34.4586   -5.0360 C   0  0  0  0  0  0  0  0  0  0  0  0
  -88.1696   34.0441   -5.0450 O   0  0  0  0  0  0  0  0  0  0  0  0
  -88.4352   28.9936   -2.1286 N   0  0  0  0  0  0  0  0  0  0  0  0
  -88.0731   28.8204   -3.0713 H   0  0  0  0  0  0  0  0  0  0  0  0
  -89.8634   29.2153   -1.9868 C   0  0  0  0  0  0  0  0  0  0  0  0
  -90.5726   29.5347   -3.1407 C   0  0  0  0  0  0  0  0  0  0  0  0
  -91.9369   29.7299   -3.1366 C   0  0  0  0  0  0  0  0  0  0  0  0
  -92.6439   29.6097   -1.9602 C   0  0  0  0  0  0  0  0  0  0  0  0
  -91.9446   29.2937   -0.8198 C   0  0  0  0  0  0  0  0  0  0  0  0
  -90.5523   29.0933   -0.8204 C   0  0  0  0  0  0  0  0  0  0  0  0
  -94.0816   29.8102   -1.9279 C   0  0  0  0  0  0  0  0  0  0  0  0
  -95.2230   29.9862   -1.8906 N   0  0  0  0  0  0  0  0  0  0  0  0
 17 18  1  0  0  0
 18 14  1  0  0  0
 14 15  2  0  0  0
 14  1  1  0  0  0
  1  2  2  0  0  0
  2  3  1  0  0  0
  3  4  2  0  0  0
  4  5  1  0  0  0
  5  6  2  0  0  0
  6  7  1  0  0  0
  7  8  2  0  0  0
  8  9  1  0  0  0
  9 10  2  0  0  0
 10 19  1  0  0  0
 19 21  1  0  0  0
 21 22  2  0  0  0
 22 23  1  0  0  0
 23 24  2  0  0  0
 24 25  1  0  0  0
 25 26  2  0  0  0
 24 27  1  0  0  0
 27 28  3  0  0  0
 10 11  1  0  0  0
 11 12  2  0  0  0
 12 13  1  0  0  0
 13  1  1  0  0  0
 12  3  1  0  0  0
 11  6  1  0  0  0
 26 21  1  0  0  0
 15 16  1  0  0  0
 19 20  1  0  0  0
M  END
> <minimizedAffinity>
-6.30525

> <CNNscore>
0.1632675976

> <CNNaffinity>
6.0608463287

> <CNN_VS>
0.9895398021

> <CNNaffinity_variance>
0.2369514704

$$$$
[H]N=C(OC([H])([H])[H])c1nc2c([H])c([H])c3nc([H])nc(N([H])c4c([H])c([H])c(C#N)c([H])c4[H])c3c2s1


 28 31  0  0  0  0  0  0  0  0999 V2000
  -84.5916   30.6762    0.5716 C   0  0  0  0  0  0  0  0  0  0  0  0
  -84.3629   29.5247    1.1746 N   0  0  0  0  0  0  0  0  0  0  0  0
  -85.3419   28.6681    1.3181 C   0  0  0  0  0  0  0  0  0  0  0  0
  -85.2392   27.4002    1.9318 C   0  0  0  0  0  0  0  0  0  0  0  0
  -86.3380   26.6056    2.0047 C   0  0  0  0  0  0  0  0  0  0  0  0
  -87.5760   26.9281    1.5240 C   0  0  0  0  0  0  0  0  0  0  0  0
  -88.6561   26.1591    1.5781 N   0  0  0  0  0  0  0  0  0  0  0  0
  -89.8417   26.5408    1.0730 C   0  0  0  0  0  0  0  0  0  0  0  0
  -89.9127   27.7421    0.5010 N   0  0  0  0  0  0  0  0  0  0  0  0
  -88.8702   28.6168    0.3885 C   0  0  0  0  0  0  0  0  0  0  0  0
  -87.6824   28.1831    0.9164 C   0  0  0  0  0  0  0  0  0  0  0  0
  -86.5702   29.0135    0.8297 C   0  0  0  0  0  0  0  0  0  0  0  0
  -86.2378   30.5607    0.1887 S   0  0  0  0  0  0  0  0  0  0  0  0
  -83.6446   31.7854    0.3018 C   0  0  0  0  0  0  0  0  0  0  0  0
  -82.7506   32.1140    1.1294 N   0  0  0  0  0  0  0  0  0  0  0  0
  -82.6431   31.6137    2.0420 H   0  0  0  0  0  0  0  0  0  0  0  0
  -84.5483   33.6450   -0.9615 C   0  0  0  0  0  0  0  0  0  0  0  0
  -83.7542   32.4724   -0.8952 O   0  0  0  0  0  0  0  0  0  0  0  0
  -89.1018   29.8825   -0.1705 N   0  0  0  0  0  0  0  0  0  0  0  0
  -88.6703   30.7312    0.2083 H   0  0  0  0  0  0  0  0  0  0  0  0
  -89.9977   30.0317   -1.3037 C   0  0  0  0  0  0  0  0  0  0  0  0
  -89.4208   30.3454   -2.5305 C   0  0  0  0  0  0  0  0  0  0  0  0
  -90.1652   30.4746   -3.6832 C   0  0  0  0  0  0  0  0  0  0  0  0
  -91.5301   30.2910   -3.6429 C   0  0  0  0  0  0  0  0  0  0  0  0
  -92.1012   29.9806   -2.4317 C   0  0  0  0  0  0  0  0  0  0  0  0
  -91.3444   29.8474   -1.2535 C   0  0  0  0  0  0  0  0  0  0  0  0
  -92.3378   30.4213   -4.8424 C   0  0  0  0  0  0  0  0  0  0  0  0
  -92.9841   30.5049   -5.7967 N   0  0  0  0  0  0  0  0  0  0  0  0
 17 18  1  0  0  0
 18 14  1  0  0  0
 14 15  2  0  0  0
 14  1  1  0  0  0
  1  2  2  0  0  0
  2  3  1  0  0  0
  3  4  2  0  0  0
  4  5  1  0  0  0
  5  6  2  0  0  0
  6  7  1  0  0  0
  7  8  2  0  0  0
  8  9  1  0  0  0
  9 10  2  0  0  0
 10 19  1  0  0  0
 19 21  1  0  0  0
 21 22  2  0  0  0
 22 23  1  0  0  0
 23 24  2  0  0  0
 24 25  1  0  0  0
 25 26  2  0  0  0
 24 27  1  0  0  0
 27 28  3  0  0  0
 10 11  1  0  0  0
 11 12  2  0  0  0
 12 13  1  0  0  0
 13  1  1  0  0  0
 12  3  1  0  0  0
 11  6  1  0  0  0
 26 21  1  0  0  0
 15 16  1  0  0  0
 19 20  1  0  0  0
M  END
> <minimizedAffinity>
-6.61881

> <CNNscore>
0.1609933376

> <CNNaffinity>
6.2608423233

> <CNN_VS>
1.0079538822

> <CNNaffinity_variance>
0.2262575626

$$$$
[H]c1nc(N([H])C([H])([H])c2c([H])nc([H])c([H])c2[H])nc(-c2c([H])c([H])c3c(c2[H])OC([H])([H])O3)c1[H]


 24 27  0  0  0  0  0  0  0  0999 V2000
  -84.5456   32.9840   -0.9454 C   0  0  0  0  0  0  0  0  0  0  0  0
  -83.2900   33.3595   -0.6392 N   0  0  0  0  0  0  0  0  0  0  0  0
  -82.4847   32.6499    0.1686 C   0  0  0  0  0  0  0  0  0  0  0  0
  -82.9775   31.4869    0.7019 C   0  0  0  0  0  0  0  0  0  0  0  0
  -84.2482   31.0692    0.4163 C   0  0  0  0  0  0  0  0  0  0  0  0
  -84.9942   31.8405   -0.4054 N   0  0  0  0  0  0  0  0  0  0  0  0
  -84.8286   29.8207    0.9663 C   0  0  0  0  0  0  0  0  0  0  0  0
  -84.0617   29.0082    1.7889 C   0  0  0  0  0  0  0  0  0  0  0  0
  -84.5785   27.8413    2.3132 C   0  0  0  0  0  0  0  0  0  0  0  0
  -85.8736   27.4426    2.0380 C   0  0  0  0  0  0  0  0  0  0  0  0
  -86.6394   26.3351    2.4239 O   0  0  0  0  0  0  0  0  0  0  0  0
  -87.7179   26.2298    1.4970 C   0  0  0  0  0  0  0  0  0  0  0  0
  -87.8746   27.6067    1.1223 O   0  0  0  0  0  0  0  0  0  0  0  0
  -86.6486   28.2362    1.2241 C   0  0  0  0  0  0  0  0  0  0  0  0
  -86.1117   29.4131    0.7016 C   0  0  0  0  0  0  0  0  0  0  0  0
  -85.3561   33.7727   -1.8065 N   0  0  0  0  0  0  0  0  0  0  0  0
  -84.8805   34.3307   -2.5493 H   0  0  0  0  0  0  0  0  0  0  0  0
  -86.7841   33.7953   -1.6520 C   0  0  0  0  0  0  0  0  0  0  0  0
  -87.3812   33.0160   -2.7658 C   0  0  0  0  0  0  0  0  0  0  0  0
  -87.6399   31.6523   -2.6620 C   0  0  0  0  0  0  0  0  0  0  0  0
  -88.1907   30.9248   -3.6846 C   0  0  0  0  0  0  0  0  0  0  0  0
  -88.4892   31.5988   -4.8488 C   0  0  0  0  0  0  0  0  0  0  0  0
  -88.2473   32.9137   -4.9686 N   0  0  0  0  0  0  0  0  0  0  0  0
  -87.7104   33.6085   -3.9638 C   0  0  0  0  0  0  0  0  0  0  0  0
 18 16  1  0  0  0
 16  1  1  0  0  0
  1  2  2  0  0  0
  2  3  1  0  0  0
  3  4  2  0  0  0
  4  5  1  0  0  0
  5  6  2  0  0  0
  5  7  1  0  0  0
  7  8  2  0  0  0
  8  9  1  0  0  0
  9 10  2  0  0  0
 10 11  1  0  0  0
 11 12  1  0  0  0
 12 13  1  0  0  0
 13 14  1  0  0  0
 14 15  2  0  0  0
 18 19  1  0  0  0
 19 20  2  0  0  0
 20 21  1  0  0  0
 21 22  2  0  0  0
 22 23  1  0  0  0
 23 24  2  0  0  0
  6  1  1  0  0  0
 15  7  1  0  0  0
 24 19  1  0  0  0
 14 10  1  0  0  0
 16 17  1  0  0  0
M  END
> <minimizedAffinity>
-7.99704

> <CNNscore>
0.9260520339

> <CNNaffinity>
6.5982751846

> <CNN_VS>
6.1103463173

> <CNNaffinity_variance>
0.0902162939

$$$$
[H]c1nc(N([H])C([H])([H])c2c([H])nc([H])c([H])c2[H])nc(-c2c([H])c([H])c3c(c2[H])OC([H])([H])O3)c1[H]


 24 27  0  0  0  0  0  0  0  0999 V2000
  -85.7887   27.2916    1.8364 C   0  0  0  0  0  0  0  0  0  0  0  0
  -84.5949   27.2207    2.4537 N   0  0  0  0  0  0  0  0  0  0  0  0
  -83.6918   28.2149    2.4285 C   0  0  0  0  0  0  0  0  0  0  0  0
  -84.0135   29.3537    1.7361 C   0  0  0  0  0  0  0  0  0  0  0  0
  -85.2161   29.4666    1.0946 C   0  0  0  0  0  0  0  0  0  0  0  0
  -86.0692   28.4210    1.1684 N   0  0  0  0  0  0  0  0  0  0  0  0
  -85.6125   30.6752    0.3328 C   0  0  0  0  0  0  0  0  0  0  0  0
  -84.8440   31.8272    0.4192 C   0  0  0  0  0  0  0  0  0  0  0  0
  -85.1916   32.9649   -0.2796 C   0  0  0  0  0  0  0  0  0  0  0  0
  -86.3136   32.9965   -1.0872 C   0  0  0  0  0  0  0  0  0  0  0  0
  -86.8903   33.9885   -1.8904 O   0  0  0  0  0  0  0  0  0  0  0  0
  -88.2433   33.6029   -2.1232 C   0  0  0  0  0  0  0  0  0  0  0  0
  -88.1244   32.1745   -2.0434 O   0  0  0  0  0  0  0  0  0  0  0  0
  -87.0874   31.8631   -1.1848 C   0  0  0  0  0  0  0  0  0  0  0  0
  -86.7229   30.7206   -0.4720 C   0  0  0  0  0  0  0  0  0  0  0  0
  -86.7085   26.2094    1.8949 N   0  0  0  0  0  0  0  0  0  0  0  0
  -86.3443   25.2739    2.1806 H   0  0  0  0  0  0  0  0  0  0  0  0
  -88.0937   26.4060    1.5693 C   0  0  0  0  0  0  0  0  0  0  0  0
  -88.8554   26.5142    2.8392 C   0  0  0  0  0  0  0  0  0  0  0  0
  -89.3048   27.7354    3.3331 C   0  0  0  0  0  0  0  0  0  0  0  0
  -90.0085   27.8450    4.5041 C   0  0  0  0  0  0  0  0  0  0  0  0
  -90.2654   26.6818    5.1969 C   0  0  0  0  0  0  0  0  0  0  0  0
  -89.8405   25.4944    4.7372 N   0  0  0  0  0  0  0  0  0  0  0  0
  -89.1563   25.4039    3.5951 C   0  0  0  0  0  0  0  0  0  0  0  0
 18 16  1  0  0  0
 16  1  1  0  0  0
  1  2  2  0  0  0
  2  3  1  0  0  0
  3  4  2  0  0  0
  4  5  1  0  0  0
  5  6  2  0  0  0
  5  7  1  0  0  0
  7  8  2  0  0  0
  8  9  1  0  0  0
  9 10  2  0  0  0
 10 11  1  0  0  0
 11 12  1  0  0  0
 12 13  1  0  0  0
 13 14  1  0  0  0
 14 15  2  0  0  0
 18 19  1  0  0  0
 19 20  2  0  0  0
 20 21  1  0  0  0
 21 22  2  0  0  0
 22 23  1  0  0  0
 23 24  2  0  0  0
  6  1  1  0  0  0
 15  7  1  0  0  0
 24 19  1  0  0  0
 14 10  1  0  0  0
 16 17  1  0  0  0
M  END
> <minimizedAffinity>
-8.48910

> <CNNscore>
0.6612609029

> <CNNaffinity>
6.3718757629

> <CNN_VS>
4.2134723663

> <CNNaffinity_variance>
0.1715278476

$$$$
[H]c1nc(N([H])C([H])([H])c2c([H])nc([H])c([H])c2[H])nc(-c2c([H])c([H])c3c(c2[H])OC([H])([H])O3)c1[H]


 24 27  0  0  0  0  0  0  0  0999 V2000
  -85.6240   31.7840    0.2596 C   0  0  0  0  0  0  0  0  0  0  0  0
  -84.3646   32.2554    0.2065 N   0  0  0  0  0  0  0  0  0  0  0  0
  -83.9607   33.1808   -0.6795 C   0  0  0  0  0  0  0  0  0  0  0  0
  -84.8865   33.6615   -1.5692 C   0  0  0  0  0  0  0  0  0  0  0  0
  -86.1770   33.2090   -1.5494 C   0  0  0  0  0  0  0  0  0  0  0  0
  -86.5029   32.2770   -0.6264 N   0  0  0  0  0  0  0  0  0  0  0  0
  -87.2159   33.6956   -2.4886 C   0  0  0  0  0  0  0  0  0  0  0  0
  -88.5460   33.3619   -2.2781 C   0  0  0  0  0  0  0  0  0  0  0  0
  -89.5315   33.8021   -3.1376 C   0  0  0  0  0  0  0  0  0  0  0  0
  -89.2290   34.5880   -4.2342 C   0  0  0  0  0  0  0  0  0  0  0  0
  -90.0071   35.1622   -5.2475 O   0  0  0  0  0  0  0  0  0  0  0  0
  -89.1255   35.4768   -6.3233 C   0  0  0  0  0  0  0  0  0  0  0  0
  -87.9053   35.7044   -5.6021 O   0  0  0  0  0  0  0  0  0  0  0  0
  -87.9150   34.9288   -4.4584 C   0  0  0  0  0  0  0  0  0  0  0  0
  -86.9299   34.4759   -3.5804 C   0  0  0  0  0  0  0  0  0  0  0  0
  -85.9990   30.8037    1.2183 N   0  0  0  0  0  0  0  0  0  0  0  0
  -86.2556   31.1301    2.1758 H   0  0  0  0  0  0  0  0  0  0  0  0
  -86.0212   29.4098    0.8715 C   0  0  0  0  0  0  0  0  0  0  0  0
  -84.8673   28.7510    1.5339 C   0  0  0  0  0  0  0  0  0  0  0  0
  -83.6079   29.3411    1.5900 C   0  0  0  0  0  0  0  0  0  0  0  0
  -82.5371   28.7406    2.1991 C   0  0  0  0  0  0  0  0  0  0  0  0
  -82.7476   27.5040    2.7696 C   0  0  0  0  0  0  0  0  0  0  0  0
  -83.9546   26.9184    2.7262 N   0  0  0  0  0  0  0  0  0  0  0  0
  -84.9878   27.5158    2.1292 C   0  0  0  0  0  0  0  0  0  0  0  0
 18 16  1  0  0  0
 16  1  1  0  0  0
  1  2  2  0  0  0
  2  3  1  0  0  0
  3  4  2  0  0  0
  4  5  1  0  0  0
  5  6  2  0  0  0
  5  7  1  0  0  0
  7  8  2  0  0  0
  8  9  1  0  0  0
  9 10  2  0  0  0
 10 11  1  0  0  0
 11 12  1  0  0  0
 12 13  1  0  0  0
 13 14  1  0  0  0
 14 15  2  0  0  0
 18 19  1  0  0  0
 19 20  2  0  0  0
 20 21  1  0  0  0
 21 22  2  0  0  0
 22 23  1  0  0  0
 23 24  2  0  0  0
  6  1  1  0  0  0
 15  7  1  0  0  0
 24 19  1  0  0  0
 14 10  1  0  0  0
 16 17  1  0  0  0
M  END
> <minimizedAffinity>
-7.67556

> <CNNscore>
0.4120475054

> <CNNaffinity>
6.0342397690

> <CNN_VS>
2.4863934517

> <CNNaffinity_variance>
0.1721345037

$$$$
[H]c1nc(N([H])C([H])([H])c2c([H])nc([H])c([H])c2[H])nc(-c2c([H])c([H])c3c(c2[H])OC([H])([H])O3)c1[H]


 24 27  0  0  0  0  0  0  0  0999 V2000
  -87.7191   32.9453   -1.6401 C   0  0  0  0  0  0  0  0  0  0  0  0
  -88.9140   32.3271   -1.6058 N   0  0  0  0  0  0  0  0  0  0  0  0
  -89.1253   31.1664   -0.9635 C   0  0  0  0  0  0  0  0  0  0  0  0
  -88.0631   30.5923   -0.3140 C   0  0  0  0  0  0  0  0  0  0  0  0
  -86.8318   31.1875   -0.3242 C   0  0  0  0  0  0  0  0  0  0  0  0
  -86.7025   32.3544   -0.9936 N   0  0  0  0  0  0  0  0  0  0  0  0
  -85.6515   30.6088    0.3616 C   0  0  0  0  0  0  0  0  0  0  0  0
  -84.3976   31.1700    0.1671 C   0  0  0  0  0  0  0  0  0  0  0  0
  -83.2837   30.6500    0.7937 C   0  0  0  0  0  0  0  0  0  0  0  0
  -83.3780   29.5559    1.6339 C   0  0  0  0  0  0  0  0  0  0  0  0
  -82.4376   28.8369    2.3826 O   0  0  0  0  0  0  0  0  0  0  0  0
  -83.0243   27.5735    2.6874 C   0  0  0  0  0  0  0  0  0  0  0  0
  -84.4148   27.9299    2.7065 O   0  0  0  0  0  0  0  0  0  0  0  0
  -84.6137   28.9865    1.8384 C   0  0  0  0  0  0  0  0  0  0  0  0
  -85.7305   29.5237    1.1977 C   0  0  0  0  0  0  0  0  0  0  0  0
  -87.5499   34.1736   -2.3353 N   0  0  0  0  0  0  0  0  0  0  0  0
  -87.4245   35.0417   -1.7696 H   0  0  0  0  0  0  0  0  0  0  0  0
  -87.5527   34.2097   -3.7714 C   0  0  0  0  0  0  0  0  0  0  0  0
  -87.6534   35.6284   -4.1972 C   0  0  0  0  0  0  0  0  0  0  0  0
  -88.0968   36.6309   -3.3394 C   0  0  0  0  0  0  0  0  0  0  0  0
  -88.1931   37.9429   -3.7234 C   0  0  0  0  0  0  0  0  0  0  0  0
  -87.8289   38.2501   -5.0165 C   0  0  0  0  0  0  0  0  0  0  0  0
  -87.3988   37.2977   -5.8590 N   0  0  0  0  0  0  0  0  0  0  0  0
  -87.3105   36.0243   -5.4701 C   0  0  0  0  0  0  0  0  0  0  0  0
 18 16  1  0  0  0
 16  1  1  0  0  0
  1  2  2  0  0  0
  2  3  1  0  0  0
  3  4  2  0  0  0
  4  5  1  0  0  0
  5  6  2  0  0  0
  5  7  1  0  0  0
  7  8  2  0  0  0
  8  9  1  0  0  0
  9 10  2  0  0  0
 10 11  1  0  0  0
 11 12  1  0  0  0
 12 13  1  0  0  0
 13 14  1  0  0  0
 14 15  2  0  0  0
 18 19  1  0  0  0
 19 20  2  0  0  0
 20 21  1  0  0  0
 21 22  2  0  0  0
 22 23  1  0  0  0
 23 24  2  0  0  0
  6  1  1  0  0  0
 15  7  1  0  0  0
 24 19  1  0  0  0
 14 10  1  0  0  0
 16 17  1  0  0  0
M  END
> <minimizedAffinity>
-7.60027

> <CNNscore>
0.3668260276

> <CNNaffinity>
5.8093757629

> <CNN_VS>
2.1310303211

> <CNNaffinity_variance>
0.2321563959

$$$$
[H]c1nc(N([H])C([H])([H])c2c([H])nc([H])c([H])c2[H])nc(-c2c([H])c([H])c3c(c2[H])OC([H])([H])O3)c1[H]


 24 27  0  0  0  0  0  0  0  0999 V2000
  -84.3144   31.7654    0.0856 C   0  0  0  0  0  0  0  0  0  0  0  0
  -83.1701   31.6475    0.7842 N   0  0  0  0  0  0  0  0  0  0  0  0
  -82.8536   30.5568    1.5017 C   0  0  0  0  0  0  0  0  0  0  0  0
  -83.7487   29.5184    1.5154 C   0  0  0  0  0  0  0  0  0  0  0  0
  -84.9233   29.5974    0.8192 C   0  0  0  0  0  0  0  0  0  0  0  0
  -85.1665   30.7295    0.1222 N   0  0  0  0  0  0  0  0  0  0  0  0
  -85.9242   28.5038    0.8010 C   0  0  0  0  0  0  0  0  0  0  0  0
  -85.9649   27.5893    1.8437 C   0  0  0  0  0  0  0  0  0  0  0  0
  -86.8866   26.5627    1.8502 C   0  0  0  0  0  0  0  0  0  0  0  0
  -87.7983   26.4101    0.8218 C   0  0  0  0  0  0  0  0  0  0  0  0
  -88.8200   25.4845    0.5744 O   0  0  0  0  0  0  0  0  0  0  0  0
  -89.1189   25.5548   -0.8182 C   0  0  0  0  0  0  0  0  0  0  0  0
  -88.7751   26.9219   -1.0896 O   0  0  0  0  0  0  0  0  0  0  0  0
  -87.7725   27.3079   -0.2204 C   0  0  0  0  0  0  0  0  0  0  0  0
  -86.8344   28.3406   -0.2126 C   0  0  0  0  0  0  0  0  0  0  0  0
  -84.6003   32.9428   -0.6578 N   0  0  0  0  0  0  0  0  0  0  0  0
  -83.9251   33.2269   -1.4012 H   0  0  0  0  0  0  0  0  0  0  0  0
  -85.7835   33.7113   -0.3876 C   0  0  0  0  0  0  0  0  0  0  0  0
  -86.8130   33.3419   -1.3916 C   0  0  0  0  0  0  0  0  0  0  0  0
  -88.0706   32.8706   -1.0259 C   0  0  0  0  0  0  0  0  0  0  0  0
  -89.0271   32.5272   -1.9453 C   0  0  0  0  0  0  0  0  0  0  0  0
  -88.7005   32.6654   -3.2769 C   0  0  0  0  0  0  0  0  0  0  0  0
  -87.4932   33.1181   -3.6499 N   0  0  0  0  0  0  0  0  0  0  0  0
  -86.5721   33.4484   -2.7426 C   0  0  0  0  0  0  0  0  0  0  0  0
 18 16  1  0  0  0
 16  1  1  0  0  0
  1  2  2  0  0  0
  2  3  1  0  0  0
  3  4  2  0  0  0
  4  5  1  0  0  0
  5  6  2  0  0  0
  5  7  1  0  0  0
  7  8  2  0  0  0
  8  9  1  0  0  0
  9 10  2  0  0  0
 10 11  1  0  0  0
 11 12  1  0  0  0
 12 13  1  0  0  0
 13 14  1  0  0  0
 14 15  2  0  0  0
 18 19  1  0  0  0
 19 20  2  0  0  0
 20 21  1  0  0  0
 21 22  2  0  0  0
 22 23  1  0  0  0
 23 24  2  0  0  0
  6  1  1  0  0  0
 15  7  1  0  0  0
 24 19  1  0  0  0
 14 10  1  0  0  0
 16 17  1  0  0  0
M  END
> <minimizedAffinity>
-7.76867

> <CNNscore>
0.2676412165

> <CNNaffinity>
6.1278915405

> <CNN_VS>
1.6400763988

> <CNNaffinity_variance>
0.1469512284

$$$$
[H]c1nc(N([H])C([H])([H])c2c([H])nc([H])c([H])c2[H])nc(-c2c([H])c([H])c3c(c2[H])OC([H])([H])O3)c1[H]


 24 27  0  0  0  0  0  0  0  0999 V2000
  -89.8419   31.1056   -2.0545 C   0  0  0  0  0  0  0  0  0  0  0  0
  -90.1892   32.2111   -2.7391 N   0  0  0  0  0  0  0  0  0  0  0  0
  -89.3992   33.2926   -2.8424 C   0  0  0  0  0  0  0  0  0  0  0  0
  -88.1807   33.2569   -2.2151 C   0  0  0  0  0  0  0  0  0  0  0  0
  -87.7891   32.1530   -1.5089 C   0  0  0  0  0  0  0  0  0  0  0  0
  -88.6424   31.1063   -1.4533 N   0  0  0  0  0  0  0  0  0  0  0  0
  -86.4831   32.0634   -0.8128 C   0  0  0  0  0  0  0  0  0  0  0  0
  -85.5128   33.0285   -1.0410 C   0  0  0  0  0  0  0  0  0  0  0  0
  -84.2895   32.9676   -0.4058 C   0  0  0  0  0  0  0  0  0  0  0  0
  -83.9892   31.9464    0.4769 C   0  0  0  0  0  0  0  0  0  0  0  0
  -82.8572   31.6425    1.2436 O   0  0  0  0  0  0  0  0  0  0  0  0
  -82.9534   30.2658    1.6027 C   0  0  0  0  0  0  0  0  0  0  0  0
  -84.3793   30.1007    1.6216 O   0  0  0  0  0  0  0  0  0  0  0  0
  -84.9396   30.9806    0.7153 C   0  0  0  0  0  0  0  0  0  0  0  0
  -86.1718   31.0560    0.0652 C   0  0  0  0  0  0  0  0  0  0  0  0
  -90.7166   29.9877   -1.9767 N   0  0  0  0  0  0  0  0  0  0  0  0
  -91.7418   30.1629   -2.0633 H   0  0  0  0  0  0  0  0  0  0  0  0
  -90.1970   28.6623   -1.7849 C   0  0  0  0  0  0  0  0  0  0  0  0
  -90.2100   28.3677   -0.3298 C   0  0  0  0  0  0  0  0  0  0  0  0
  -91.1105   28.9732    0.5419 C   0  0  0  0  0  0  0  0  0  0  0  0
  -91.1299   28.7076    1.8863 C   0  0  0  0  0  0  0  0  0  0  0  0
  -90.2090   27.8003    2.3634 C   0  0  0  0  0  0  0  0  0  0  0  0
  -89.3322   27.2057    1.5390 N   0  0  0  0  0  0  0  0  0  0  0  0
  -89.3257   27.4748    0.2320 C   0  0  0  0  0  0  0  0  0  0  0  0
 18 16  1  0  0  0
 16  1  1  0  0  0
  1  2  2  0  0  0
  2  3  1  0  0  0
  3  4  2  0  0  0
  4  5  1  0  0  0
  5  6  2  0  0  0
  5  7  1  0  0  0
  7  8  2  0  0  0
  8  9  1  0  0  0
  9 10  2  0  0  0
 10 11  1  0  0  0
 11 12  1  0  0  0
 12 13  1  0  0  0
 13 14  1  0  0  0
 14 15  2  0  0  0
 18 19  1  0  0  0
 19 20  2  0  0  0
 20 21  1  0  0  0
 21 22  2  0  0  0
 22 23  1  0  0  0
 23 24  2  0  0  0
  6  1  1  0  0  0
 15  7  1  0  0  0
 24 19  1  0  0  0
 14 10  1  0  0  0
 16 17  1  0  0  0
M  END
> <minimizedAffinity>
-6.94044

> <CNNscore>
0.2515486479

> <CNNaffinity>
5.8381042480

> <CNN_VS>
1.4685672522

> <CNNaffinity_variance>
0.0922620296

$$$$
[H]c1nc(N([H])C([H])([H])c2c([H])nc([H])c([H])c2[H])nc(-c2c([H])c([H])c3c(c2[H])OC([H])([H])O3)c1[H]


 24 27  0  0  0  0  0  0  0  0999 V2000
  -85.7371   32.0371   -0.4044 C   0  0  0  0  0  0  0  0  0  0  0  0
  -86.1439   33.1342   -1.0695 N   0  0  0  0  0  0  0  0  0  0  0  0
  -87.4061   33.3137   -1.4928 C   0  0  0  0  0  0  0  0  0  0  0  0
  -88.3164   32.3231   -1.2285 C   0  0  0  0  0  0  0  0  0  0  0  0
  -87.9443   31.1921   -0.5555 C   0  0  0  0  0  0  0  0  0  0  0  0
  -86.6550   31.0885   -0.1636 N   0  0  0  0  0  0  0  0  0  0  0  0
  -88.8887   30.0922   -0.2446 C   0  0  0  0  0  0  0  0  0  0  0  0
  -90.2457   30.2622   -0.4784 C   0  0  0  0  0  0  0  0  0  0  0  0
  -91.1448   29.2541   -0.1975 C   0  0  0  0  0  0  0  0  0  0  0  0
  -90.7264   28.0441    0.3249 C   0  0  0  0  0  0  0  0  0  0  0  0
  -91.4013   26.8743    0.6964 O   0  0  0  0  0  0  0  0  0  0  0  0
  -90.5335   26.1497    1.5655 C   0  0  0  0  0  0  0  0  0  0  0  0
  -89.2549   26.5812    1.0757 O   0  0  0  0  0  0  0  0  0  0  0  0
  -89.3842   27.8580    0.5631 C   0  0  0  0  0  0  0  0  0  0  0  0
  -88.4874   28.8868    0.2739 C   0  0  0  0  0  0  0  0  0  0  0  0
  -84.3881   31.8975    0.0215 N   0  0  0  0  0  0  0  0  0  0  0  0
  -83.6550   31.7736   -0.7111 H   0  0  0  0  0  0  0  0  0  0  0  0
  -84.0534   31.9272    1.4181 C   0  0  0  0  0  0  0  0  0  0  0  0
  -83.8672   30.5278    1.8779 C   0  0  0  0  0  0  0  0  0  0  0  0
  -84.8893   29.8043    2.4856 C   0  0  0  0  0  0  0  0  0  0  0  0
  -84.7268   28.5124    2.9132 C   0  0  0  0  0  0  0  0  0  0  0  0
  -83.4909   27.9346    2.7196 C   0  0  0  0  0  0  0  0  0  0  0  0
  -82.4924   28.6156    2.1356 N   0  0  0  0  0  0  0  0  0  0  0  0
  -82.6661   29.8732    1.7245 C   0  0  0  0  0  0  0  0  0  0  0  0
 18 16  1  0  0  0
 16  1  1  0  0  0
  1  2  2  0  0  0
  2  3  1  0  0  0
  3  4  2  0  0  0
  4  5  1  0  0  0
  5  6  2  0  0  0
  5  7  1  0  0  0
  7  8  2  0  0  0
  8  9  1  0  0  0
  9 10  2  0  0  0
 10 11  1  0  0  0
 11 12  1  0  0  0
 12 13  1  0  0  0
 13 14  1  0  0  0
 14 15  2  0  0  0
 18 19  1  0  0  0
 19 20  2  0  0  0
 20 21  1  0  0  0
 21 22  2  0  0  0
 22 23  1  0  0  0
 23 24  2  0  0  0
  6  1  1  0  0  0
 15  7  1  0  0  0
 24 19  1  0  0  0
 14 10  1  0  0  0
 16 17  1  0  0  0
M  END
> <minimizedAffinity>
-7.83348

> <CNNscore>
0.2369205803

> <CNNaffinity>
6.0953111649

> <CNN_VS>
1.4441046715

> <CNNaffinity_variance>
0.1404785514

$$$$
[H]c1nc(N([H])C([H])([H])c2c([H])nc([H])c([H])c2[H])nc(-c2c([H])c([H])c3c(c2[H])OC([H])([H])O3)c1[H]


 24 27  0  0  0  0  0  0  0  0999 V2000
  -90.5971   29.5854   -0.5437 C   0  0  0  0  0  0  0  0  0  0  0  0
  -90.9536   29.9705   -1.7830 N   0  0  0  0  0  0  0  0  0  0  0  0
  -90.1423   30.6591   -2.6028 C   0  0  0  0  0  0  0  0  0  0  0  0
  -88.8911   30.9800   -2.1432 C   0  0  0  0  0  0  0  0  0  0  0  0
  -88.4891   30.6078   -0.8900 C   0  0  0  0  0  0  0  0  0  0  0  0
  -89.3653   29.9169   -0.1274 N   0  0  0  0  0  0  0  0  0  0  0  0
  -87.1481   30.9293   -0.3455 C   0  0  0  0  0  0  0  0  0  0  0  0
  -86.6187   32.1995   -0.5227 C   0  0  0  0  0  0  0  0  0  0  0  0
  -85.3730   32.5236   -0.0258 C   0  0  0  0  0  0  0  0  0  0  0  0
  -84.6120   31.5975    0.6635 C   0  0  0  0  0  0  0  0  0  0  0  0
  -83.3472   31.6500    1.2630 O   0  0  0  0  0  0  0  0  0  0  0  0
  -82.9048   30.3038    1.4232 C   0  0  0  0  0  0  0  0  0  0  0  0
  -84.1653   29.6297    1.5566 O   0  0  0  0  0  0  0  0  0  0  0  0
  -85.1213   30.3329    0.8487 C   0  0  0  0  0  0  0  0  0  0  0  0
  -86.3823   30.0204    0.3401 C   0  0  0  0  0  0  0  0  0  0  0  0
  -91.4952   28.8576    0.2836 N   0  0  0  0  0  0  0  0  0  0  0  0
  -92.3459   29.3510    0.6332 H   0  0  0  0  0  0  0  0  0  0  0  0
  -91.2324   27.4866    0.6226 C   0  0  0  0  0  0  0  0  0  0  0  0
  -90.7954   27.4375    2.0406 C   0  0  0  0  0  0  0  0  0  0  0  0
  -90.0765   26.3641    2.5587 C   0  0  0  0  0  0  0  0  0  0  0  0
  -89.6689   26.3099    3.8661 C   0  0  0  0  0  0  0  0  0  0  0  0
  -89.9993   27.3758    4.6745 C   0  0  0  0  0  0  0  0  0  0  0  0
  -90.6920   28.4203    4.1939 N   0  0  0  0  0  0  0  0  0  0  0  0
  -91.0820   28.4584    2.9183 C   0  0  0  0  0  0  0  0  0  0  0  0
 18 16  1  0  0  0
 16  1  1  0  0  0
  1  2  2  0  0  0
  2  3  1  0  0  0
  3  4  2  0  0  0
  4  5  1  0  0  0
  5  6  2  0  0  0
  5  7  1  0  0  0
  7  8  2  0  0  0
  8  9  1  0  0  0
  9 10  2  0  0  0
 10 11  1  0  0  0
 11 12  1  0  0  0
 12 13  1  0  0  0
 13 14  1  0  0  0
 14 15  2  0  0  0
 18 19  1  0  0  0
 19 20  2  0  0  0
 20 21  1  0  0  0
 21 22  2  0  0  0
 22 23  1  0  0  0
 23 24  2  0  0  0
  6  1  1  0  0  0
 15  7  1  0  0  0
 24 19  1  0  0  0
 14 10  1  0  0  0
 16 17  1  0  0  0
M  END
> <minimizedAffinity>
-7.59072

> <CNNscore>
0.2299897671

> <CNNaffinity>
5.7790036201

> <CNN_VS>
1.3291116953

> <CNNaffinity_variance>
0.0923610404

$$$$
[H]c1nc(N([H])C([H])([H])c2c([H])nc([H])c([H])c2[H])nc(-c2c([H])c([H])c3c(c2[H])OC([H])([H])O3)c1[H]


 24 27  0  0  0  0  0  0  0  0999 V2000
  -88.3317   32.4272   -1.2284 C   0  0  0  0  0  0  0  0  0  0  0  0
  -87.9425   33.5586   -1.8446 N   0  0  0  0  0  0  0  0  0  0  0  0
  -86.6759   34.0058   -1.8332 C   0  0  0  0  0  0  0  0  0  0  0  0
  -85.7418   33.2644   -1.1568 C   0  0  0  0  0  0  0  0  0  0  0  0
  -86.0953   32.1084   -0.5170 C   0  0  0  0  0  0  0  0  0  0  0  0
  -87.3907   31.7274   -0.5763 N   0  0  0  0  0  0  0  0  0  0  0  0
  -85.1250   31.2707    0.2278 C   0  0  0  0  0  0  0  0  0  0  0  0
  -83.7646   31.5099    0.0965 C   0  0  0  0  0  0  0  0  0  0  0  0
  -82.8415   30.7443    0.7787 C   0  0  0  0  0  0  0  0  0  0  0  0
  -83.2384   29.7161    1.6136 C   0  0  0  0  0  0  0  0  0  0  0  0
  -82.5375   28.8008    2.4092 O   0  0  0  0  0  0  0  0  0  0  0  0
  -83.4266   27.7205    2.6847 C   0  0  0  0  0  0  0  0  0  0  0  0
  -84.6888   28.4024    2.6335 O   0  0  0  0  0  0  0  0  0  0  0  0
  -84.5836   29.4646    1.7558 C   0  0  0  0  0  0  0  0  0  0  0  0
  -85.5047   30.2474    1.0593 C   0  0  0  0  0  0  0  0  0  0  0  0
  -89.6864   31.9988   -1.2717 N   0  0  0  0  0  0  0  0  0  0  0  0
  -90.4311   32.7227   -1.1677 H   0  0  0  0  0  0  0  0  0  0  0  0
  -90.0112   30.6113   -1.4533 C   0  0  0  0  0  0  0  0  0  0  0  0
  -90.8525   30.4897   -2.6705 C   0  0  0  0  0  0  0  0  0  0  0  0
  -91.6240   29.3605   -2.9295 C   0  0  0  0  0  0  0  0  0  0  0  0
  -92.4035   29.2393   -4.0502 C   0  0  0  0  0  0  0  0  0  0  0  0
  -92.4024   30.2944   -4.9366 C   0  0  0  0  0  0  0  0  0  0  0  0
  -91.6652   31.3920   -4.7049 N   0  0  0  0  0  0  0  0  0  0  0  0
  -90.9110   31.4951   -3.6089 C   0  0  0  0  0  0  0  0  0  0  0  0
 18 16  1  0  0  0
 16  1  1  0  0  0
  1  2  2  0  0  0
  2  3  1  0  0  0
  3  4  2  0  0  0
  4  5  1  0  0  0
  5  6  2  0  0  0
  5  7  1  0  0  0
  7  8  2  0  0  0
  8  9  1  0  0  0
  9 10  2  0  0  0
 10 11  1  0  0  0
 11 12  1  0  0  0
 12 13  1  0  0  0
 13 14  1  0  0  0
 14 15  2  0  0  0
 18 19  1  0  0  0
 19 20  2  0  0  0
 20 21  1  0  0  0
 21 22  2  0  0  0
 22 23  1  0  0  0
 23 24  2  0  0  0
  6  1  1  0  0  0
 15  7  1  0  0  0
 24 19  1  0  0  0
 14 10  1  0  0  0
 16 17  1  0  0  0
M  END
> <minimizedAffinity>
-7.50167

> <CNNscore>
0.2244153619

> <CNNaffinity>
5.5855150223

> <CNN_VS>
1.2534754276

> <CNNaffinity_variance>
0.2235514224

$$$$
[H]c1oc(-c2nc(N([H])C(=O)c3nc(-c4c([H])c([H])c5c(c4[H])C([H])([H])C([H])([H])O5)sc3[H])n([H])n2)c([H])c1[H]


 29 33  0  0  0  0  0  0  0  0999 V2000
  -86.5843   34.4027   -2.0316 O   0  0  0  0  0  0  0  0  0  0  0  0
  -87.4610   33.6779   -2.5114 C   0  0  0  0  0  0  0  0  0  0  0  0
  -88.0413   33.9398   -3.7973 N   0  0  0  0  0  0  0  0  0  0  0  0
  -88.7768   33.3396   -4.2103 H   0  0  0  0  0  0  0  0  0  0  0  0
  -87.5801   35.0667   -4.5186 C   0  0  0  0  0  0  0  0  0  0  0  0
  -87.9816   35.4816   -5.7443 N   0  0  0  0  0  0  0  0  0  0  0  0
  -87.3188   36.5932   -6.1066 C   0  0  0  0  0  0  0  0  0  0  0  0
  -86.5011   36.8668   -5.0959 N   0  0  0  0  0  0  0  0  0  0  0  0
  -86.6386   35.9697   -4.1357 N   0  0  0  0  0  0  0  0  0  0  0  0
  -86.1175   35.9360   -3.2152 H   0  0  0  0  0  0  0  0  0  0  0  0
  -87.5079   37.3063   -7.3711 C   0  0  0  0  0  0  0  0  0  0  0  0
  -88.7374   37.5814   -7.9594 C   0  0  0  0  0  0  0  0  0  0  0  0
  -88.5037   38.2662   -9.1377 C   0  0  0  0  0  0  0  0  0  0  0  0
  -87.1304   38.3785   -9.2150 C   0  0  0  0  0  0  0  0  0  0  0  0
  -86.6025   37.8067   -8.1683 O   0  0  0  0  0  0  0  0  0  0  0  0
  -87.9150   32.5002   -1.7124 C   0  0  0  0  0  0  0  0  0  0  0  0
  -89.2483   32.1846   -1.5851 C   0  0  0  0  0  0  0  0  0  0  0  0
  -89.1854   30.7938   -0.5986 S   0  0  0  0  0  0  0  0  0  0  0  0
  -87.4677   30.6913   -0.4032 C   0  0  0  0  0  0  0  0  0  0  0  0
  -87.0671   31.7304   -1.1081 N   0  0  0  0  0  0  0  0  0  0  0  0
  -86.6884   29.7118    0.3443 C   0  0  0  0  0  0  0  0  0  0  0  0
  -87.2432   28.4933    0.6240 C   0  0  0  0  0  0  0  0  0  0  0  0
  -86.5563   27.5167    1.3307 C   0  0  0  0  0  0  0  0  0  0  0  0
  -85.2727   27.8156    1.7516 C   0  0  0  0  0  0  0  0  0  0  0  0
  -84.4008   27.0082    2.4656 O   0  0  0  0  0  0  0  0  0  0  0  0
  -83.2622   27.7540    2.8099 C   0  0  0  0  0  0  0  0  0  0  0  0
  -83.3364   29.0544    2.0526 C   0  0  0  0  0  0  0  0  0  0  0  0
  -84.6882   29.0401    1.4821 C   0  0  0  0  0  0  0  0  0  0  0  0
  -85.4247   29.9994    0.7615 C   0  0  0  0  0  0  0  0  0  0  0  0
  1  2  2  0  0  0
  2  3  1  0  0  0
  3  5  1  0  0  0
  5  6  2  0  0  0
  6  7  1  0  0  0
  7  8  2  0  0  0
  8  9  1  0  0  0
  7 11  1  0  0  0
 11 12  2  0  0  0
 12 13  1  0  0  0
 13 14  2  0  0  0
 14 15  1  0  0  0
  2 16  1  0  0  0
 16 17  2  0  0  0
 17 18  1  0  0  0
 18 19  1  0  0  0
 19 20  2  0  0  0
 19 21  1  0  0  0
 21 22  2  0  0  0
 22 23  1  0  0  0
 23 24  2  0  0  0
 24 25  1  0  0  0
 25 26  1  0  0  0
 26 27  1  0  0  0
 27 28  1  0  0  0
 28 29  2  0  0  0
  9  5  1  0  0  0
 15 11  1  0  0  0
 20 16  1  0  0  0
 29 21  1  0  0  0
 28 24  1  0  0  0
  3  4  1  0  0  0
  9 10  1  0  0  0
M  END
> <minimizedAffinity>
-8.70021

> <CNNscore>
0.1119303778

> <CNNaffinity>
5.7897911072

> <CNN_VS>
0.6480535269

> <CNNaffinity_variance>
0.0752108023

$$$$
[H]c1oc(-c2nc(N([H])C(=O)c3nc(-c4c([H])c([H])c5c(c4[H])C([H])([H])C([H])([H])O5)sc3[H])n([H])n2)c([H])c1[H]


 29 33  0  0  0  0  0  0  0  0999 V2000
  -87.2725   32.6155   -3.8884 O   0  0  0  0  0  0  0  0  0  0  0  0
  -86.8422   33.3794   -3.0193 C   0  0  0  0  0  0  0  0  0  0  0  0
  -86.8463   34.8038   -3.1924 N   0  0  0  0  0  0  0  0  0  0  0  0
  -86.4885   35.4546   -2.4711 H   0  0  0  0  0  0  0  0  0  0  0  0
  -87.3632   35.3257   -4.4020 C   0  0  0  0  0  0  0  0  0  0  0  0
  -86.8249   36.2983   -5.1767 N   0  0  0  0  0  0  0  0  0  0  0  0
  -87.5999   36.5293   -6.2501 C   0  0  0  0  0  0  0  0  0  0  0  0
  -88.6254   35.6923   -6.1371 N   0  0  0  0  0  0  0  0  0  0  0  0
  -88.5068   34.9631   -5.0417 N   0  0  0  0  0  0  0  0  0  0  0  0
  -89.1734   34.2169   -4.6972 H   0  0  0  0  0  0  0  0  0  0  0  0
  -87.3137   37.5164   -7.2928 C   0  0  0  0  0  0  0  0  0  0  0  0
  -88.2364   37.9974   -8.2152 C   0  0  0  0  0  0  0  0  0  0  0  0
  -87.5906   38.9093   -9.0297 C   0  0  0  0  0  0  0  0  0  0  0  0
  -86.2924   38.9431   -8.5630 C   0  0  0  0  0  0  0  0  0  0  0  0
  -86.1858   38.1190   -7.5577 O   0  0  0  0  0  0  0  0  0  0  0  0
  -86.3069   32.7811   -1.7595 C   0  0  0  0  0  0  0  0  0  0  0  0
  -85.3323   33.4097   -1.0189 C   0  0  0  0  0  0  0  0  0  0  0  0
  -85.1110   32.3132    0.2696 S   0  0  0  0  0  0  0  0  0  0  0  0
  -86.2699   31.1171   -0.2052 C   0  0  0  0  0  0  0  0  0  0  0  0
  -86.7422   31.6449   -1.3167 N   0  0  0  0  0  0  0  0  0  0  0  0
  -86.6182   29.8662    0.4578 C   0  0  0  0  0  0  0  0  0  0  0  0
  -85.7097   29.2824    1.2970 C   0  0  0  0  0  0  0  0  0  0  0  0
  -85.9777   28.0929    1.9589 C   0  0  0  0  0  0  0  0  0  0  0  0
  -87.2108   27.5042    1.7422 C   0  0  0  0  0  0  0  0  0  0  0  0
  -87.7001   26.3268    2.2865 O   0  0  0  0  0  0  0  0  0  0  0  0
  -88.9323   26.0210    1.6869 C   0  0  0  0  0  0  0  0  0  0  0  0
  -89.3427   27.2227    0.8759 C   0  0  0  0  0  0  0  0  0  0  0  0
  -88.1477   28.0737    0.8985 C   0  0  0  0  0  0  0  0  0  0  0  0
  -87.8300   29.2816    0.2490 C   0  0  0  0  0  0  0  0  0  0  0  0
  1  2  2  0  0  0
  2  3  1  0  0  0
  3  5  1  0  0  0
  5  6  2  0  0  0
  6  7  1  0  0  0
  7  8  2  0  0  0
  8  9  1  0  0  0
  7 11  1  0  0  0
 11 12  2  0  0  0
 12 13  1  0  0  0
 13 14  2  0  0  0
 14 15  1  0  0  0
  2 16  1  0  0  0
 16 17  2  0  0  0
 17 18  1  0  0  0
 18 19  1  0  0  0
 19 20  2  0  0  0
 19 21  1  0  0  0
 21 22  2  0  0  0
 22 23  1  0  0  0
 23 24  2  0  0  0
 24 25  1  0  0  0
 25 26  1  0  0  0
 26 27  1  0  0  0
 27 28  1  0  0  0
 28 29  2  0  0  0
  9  5  1  0  0  0
 15 11  1  0  0  0
 20 16  1  0  0  0
 29 21  1  0  0  0
 28 24  1  0  0  0
  3  4  1  0  0  0
  9 10  1  0  0  0
M  END
> <minimizedAffinity>
-7.68414

> <CNNscore>
0.1002481580

> <CNNaffinity>
5.6844778061

> <CNN_VS>
0.5698584318

> <CNNaffinity_variance>
0.0992356539

$$$$
[H]c1oc(-c2nc(N([H])C(=O)c3nc(-c4c([H])c([H])c5c(c4[H])C([H])([H])C([H])([H])O5)sc3[H])n([H])n2)c([H])c1[H]


 29 33  0  0  0  0  0  0  0  0999 V2000
  -90.8502   26.7494    0.6561 O   0  0  0  0  0  0  0  0  0  0  0  0
  -90.0456   27.5804    1.0876 C   0  0  0  0  0  0  0  0  0  0  0  0
  -89.3668   27.3997    2.3388 N   0  0  0  0  0  0  0  0  0  0  0  0
  -88.6901   28.0890    2.7112 H   0  0  0  0  0  0  0  0  0  0  0  0
  -89.6431   26.2278    3.0827 C   0  0  0  0  0  0  0  0  0  0  0  0
  -88.7493   25.3617    3.6183 N   0  0  0  0  0  0  0  0  0  0  0  0
  -89.3839   24.3639    4.2568 C   0  0  0  0  0  0  0  0  0  0  0  0
  -90.6805   24.6160    4.1141 N   0  0  0  0  0  0  0  0  0  0  0  0
  -90.8607   25.7237    3.4167 N   0  0  0  0  0  0  0  0  0  0  0  0
  -91.7844   26.1656    3.1495 H   0  0  0  0  0  0  0  0  0  0  0  0
  -88.7208   23.2565    4.9478 C   0  0  0  0  0  0  0  0  0  0  0  0
  -88.8666   21.9110    4.6282 C   0  0  0  0  0  0  0  0  0  0  0  0
  -88.0857   21.1773    5.5022 C   0  0  0  0  0  0  0  0  0  0  0  0
  -87.4943   22.1168    6.3220 C   0  0  0  0  0  0  0  0  0  0  0  0
  -87.8954   23.3035    5.9586 O   0  0  0  0  0  0  0  0  0  0  0  0
  -89.7869   28.8011    0.2665 C   0  0  0  0  0  0  0  0  0  0  0  0
  -90.7309   29.3011   -0.6010 C   0  0  0  0  0  0  0  0  0  0  0  0
  -89.9246   30.6574   -1.2507 S   0  0  0  0  0  0  0  0  0  0  0  0
  -88.4327   30.5130   -0.3831 C   0  0  0  0  0  0  0  0  0  0  0  0
  -88.6609   29.4359    0.3414 N   0  0  0  0  0  0  0  0  0  0  0  0
  -87.2503   31.3633   -0.4480 C   0  0  0  0  0  0  0  0  0  0  0  0
  -87.3681   32.6298   -0.9507 C   0  0  0  0  0  0  0  0  0  0  0  0
  -86.2831   33.4899   -1.0402 C   0  0  0  0  0  0  0  0  0  0  0  0
  -85.0581   33.0222   -0.5991 C   0  0  0  0  0  0  0  0  0  0  0  0
  -83.8442   33.6916   -0.5889 O   0  0  0  0  0  0  0  0  0  0  0  0
  -82.8319   32.8009   -0.1974 C   0  0  0  0  0  0  0  0  0  0  0  0
  -83.5080   31.5465    0.2922 C   0  0  0  0  0  0  0  0  0  0  0  0
  -84.9116   31.7457   -0.0863 C   0  0  0  0  0  0  0  0  0  0  0  0
  -86.0418   30.9093   -0.0155 C   0  0  0  0  0  0  0  0  0  0  0  0
  1  2  2  0  0  0
  2  3  1  0  0  0
  3  5  1  0  0  0
  5  6  2  0  0  0
  6  7  1  0  0  0
  7  8  2  0  0  0
  8  9  1  0  0  0
  7 11  1  0  0  0
 11 12  2  0  0  0
 12 13  1  0  0  0
 13 14  2  0  0  0
 14 15  1  0  0  0
  2 16  1  0  0  0
 16 17  2  0  0  0
 17 18  1  0  0  0
 18 19  1  0  0  0
 19 20  2  0  0  0
 19 21  1  0  0  0
 21 22  2  0  0  0
 22 23  1  0  0  0
 23 24  2  0  0  0
 24 25  1  0  0  0
 25 26  1  0  0  0
 26 27  1  0  0  0
 27 28  1  0  0  0
 28 29  2  0  0  0
  9  5  1  0  0  0
 15 11  1  0  0  0
 20 16  1  0  0  0
 29 21  1  0  0  0
 28 24  1  0  0  0
  3  4  1  0  0  0
  9 10  1  0  0  0
M  END
> <minimizedAffinity>
-8.35053

> <CNNscore>
0.0936343521

> <CNNaffinity>
5.8777937889

> <CNN_VS>
0.5503634214

> <CNNaffinity_variance>
0.1745583564

$$$$
[H]c1oc(-c2nc(N([H])C(=O)c3nc(-c4c([H])c([H])c5c(c4[H])C([H])([H])C([H])([H])O5)sc3[H])n([H])n2)c([H])c1[H]


 29 33  0  0  0  0  0  0  0  0999 V2000
  -90.1227   31.5882   -4.3465 O   0  0  0  0  0  0  0  0  0  0  0  0
  -90.2644   31.6883   -3.1242 C   0  0  0  0  0  0  0  0  0  0  0  0
  -89.6275   32.7296   -2.3699 N   0  0  0  0  0  0  0  0  0  0  0  0
  -89.7387   32.8242   -1.3450 H   0  0  0  0  0  0  0  0  0  0  0  0
  -88.8183   33.6574   -3.0680 C   0  0  0  0  0  0  0  0  0  0  0  0
  -88.7858   35.0030   -2.9130 N   0  0  0  0  0  0  0  0  0  0  0  0
  -87.8910   35.5529   -3.7515 C   0  0  0  0  0  0  0  0  0  0  0  0
  -87.3666   34.5381   -4.4300 N   0  0  0  0  0  0  0  0  0  0  0  0
  -87.9042   33.3960   -4.0398 N   0  0  0  0  0  0  0  0  0  0  0  0
  -87.6798   32.4282   -4.4047 H   0  0  0  0  0  0  0  0  0  0  0  0
  -87.6023   36.9851   -3.8464 C   0  0  0  0  0  0  0  0  0  0  0  0
  -88.3499   37.9940   -3.2492 C   0  0  0  0  0  0  0  0  0  0  0  0
  -87.7643   39.2054   -3.5680 C   0  0  0  0  0  0  0  0  0  0  0  0
  -86.6769   38.8772   -4.3517 C   0  0  0  0  0  0  0  0  0  0  0  0
  -86.6290   37.5803   -4.4818 O   0  0  0  0  0  0  0  0  0  0  0  0
  -91.1285   30.6854   -2.4320 C   0  0  0  0  0  0  0  0  0  0  0  0
  -92.4201   30.4417   -2.8391 C   0  0  0  0  0  0  0  0  0  0  0  0
  -92.9164   29.2449   -1.7287 S   0  0  0  0  0  0  0  0  0  0  0  0
  -91.4542   29.1213   -0.8091 C   0  0  0  0  0  0  0  0  0  0  0  0
  -90.6918   30.0062   -1.4198 N   0  0  0  0  0  0  0  0  0  0  0  0
  -91.1607   28.2633    0.3325 C   0  0  0  0  0  0  0  0  0  0  0  0
  -91.0183   26.9176    0.1344 C   0  0  0  0  0  0  0  0  0  0  0  0
  -90.7388   26.0457    1.1768 C   0  0  0  0  0  0  0  0  0  0  0  0
  -90.6060   26.5855    2.4437 C   0  0  0  0  0  0  0  0  0  0  0  0
  -90.3305   25.9202    3.6284 O   0  0  0  0  0  0  0  0  0  0  0  0
  -90.4294   26.8255    4.6970 C   0  0  0  0  0  0  0  0  0  0  0  0
  -90.5502   28.2045    4.1022 C   0  0  0  0  0  0  0  0  0  0  0  0
  -90.7452   27.9429    2.6716 C   0  0  0  0  0  0  0  0  0  0  0  0
  -91.0287   28.7880    1.5819 C   0  0  0  0  0  0  0  0  0  0  0  0
  1  2  2  0  0  0
  2  3  1  0  0  0
  3  5  1  0  0  0
  5  6  2  0  0  0
  6  7  1  0  0  0
  7  8  2  0  0  0
  8  9  1  0  0  0
  7 11  1  0  0  0
 11 12  2  0  0  0
 12 13  1  0  0  0
 13 14  2  0  0  0
 14 15  1  0  0  0
  2 16  1  0  0  0
 16 17  2  0  0  0
 17 18  1  0  0  0
 18 19  1  0  0  0
 19 20  2  0  0  0
 19 21  1  0  0  0
 21 22  2  0  0  0
 22 23  1  0  0  0
 23 24  2  0  0  0
 24 25  1  0  0  0
 25 26  1  0  0  0
 26 27  1  0  0  0
 27 28  1  0  0  0
 28 29  2  0  0  0
  9  5  1  0  0  0
 15 11  1  0  0  0
 20 16  1  0  0  0
 29 21  1  0  0  0
 28 24  1  0  0  0
  3  4  1  0  0  0
  9 10  1  0  0  0
M  END
> <minimizedAffinity>
-6.92442

> <CNNscore>
0.0897197574

> <CNNaffinity>
5.4140424728

> <CNN_VS>
0.4857465923

> <CNNaffinity_variance>
0.1287528574

$$$$
[H]c1oc(-c2nc(N([H])C(=O)c3nc(-c4c([H])c([H])c5c(c4[H])C([H])([H])C([H])([H])O5)sc3[H])n([H])n2)c([H])c1[H]


 29 33  0  0  0  0  0  0  0  0999 V2000
  -89.2670   34.5896   -2.6460 O   0  0  0  0  0  0  0  0  0  0  0  0
  -88.4888   33.6670   -2.9055 C   0  0  0  0  0  0  0  0  0  0  0  0
  -87.7095   33.6486   -4.1102 N   0  0  0  0  0  0  0  0  0  0  0  0
  -87.0537   32.8808   -4.3389 H   0  0  0  0  0  0  0  0  0  0  0  0
  -87.8532   34.7295   -5.0123 C   0  0  0  0  0  0  0  0  0  0  0  0
  -88.8312   34.9108   -5.9324 N   0  0  0  0  0  0  0  0  0  0  0  0
  -88.6364   36.0558   -6.6084 C   0  0  0  0  0  0  0  0  0  0  0  0
  -87.5287   36.5860   -6.1014 N   0  0  0  0  0  0  0  0  0  0  0  0
  -87.0425   35.8126   -5.1469 N   0  0  0  0  0  0  0  0  0  0  0  0
  -86.1722   35.9831   -4.5695 H   0  0  0  0  0  0  0  0  0  0  0  0
  -89.5060   36.5575   -7.6741 C   0  0  0  0  0  0  0  0  0  0  0  0
  -90.5914   35.8736   -8.2106 C   0  0  0  0  0  0  0  0  0  0  0  0
  -91.1571   36.6703   -9.1889 C   0  0  0  0  0  0  0  0  0  0  0  0
  -90.3844   37.8136   -9.2046 C   0  0  0  0  0  0  0  0  0  0  0  0
  -89.4431   37.6967   -8.3093 O   0  0  0  0  0  0  0  0  0  0  0  0
  -88.3715   32.5484   -1.9223 C   0  0  0  0  0  0  0  0  0  0  0  0
  -89.4660   31.8097   -1.5351 C   0  0  0  0  0  0  0  0  0  0  0  0
  -88.7709   30.7057   -0.4352 S   0  0  0  0  0  0  0  0  0  0  0  0
  -87.1279   31.2449   -0.5292 C   0  0  0  0  0  0  0  0  0  0  0  0
  -87.2313   32.2319   -1.3967 N   0  0  0  0  0  0  0  0  0  0  0  0
  -85.9554   30.7337    0.1703 C   0  0  0  0  0  0  0  0  0  0  0  0
  -84.7996   31.4649    0.1546 C   0  0  0  0  0  0  0  0  0  0  0  0
  -83.6486   31.0360    0.7997 C   0  0  0  0  0  0  0  0  0  0  0  0
  -83.7041   29.8273    1.4706 C   0  0  0  0  0  0  0  0  0  0  0  0
  -82.6922   29.2000    2.1807 O   0  0  0  0  0  0  0  0  0  0  0  0
  -83.1303   27.9260    2.5760 C   0  0  0  0  0  0  0  0  0  0  0  0
  -84.6067   27.8530    2.2843 C   0  0  0  0  0  0  0  0  0  0  0  0
  -84.8603   29.0683    1.5021 C   0  0  0  0  0  0  0  0  0  0  0  0
  -86.0032   29.5450    0.8325 C   0  0  0  0  0  0  0  0  0  0  0  0
  1  2  2  0  0  0
  2  3  1  0  0  0
  3  5  1  0  0  0
  5  6  2  0  0  0
  6  7  1  0  0  0
  7  8  2  0  0  0
  8  9  1  0  0  0
  7 11  1  0  0  0
 11 12  2  0  0  0
 12 13  1  0  0  0
 13 14  2  0  0  0
 14 15  1  0  0  0
  2 16  1  0  0  0
 16 17  2  0  0  0
 17 18  1  0  0  0
 18 19  1  0  0  0
 19 20  2  0  0  0
 19 21  1  0  0  0
 21 22  2  0  0  0
 22 23  1  0  0  0
 23 24  2  0  0  0
 24 25  1  0  0  0
 25 26  1  0  0  0
 26 27  1  0  0  0
 27 28  1  0  0  0
 28 29  2  0  0  0
  9  5  1  0  0  0
 15 11  1  0  0  0
 20 16  1  0  0  0
 29 21  1  0  0  0
 28 24  1  0  0  0
  3  4  1  0  0  0
  9 10  1  0  0  0
M  END
> <minimizedAffinity>
-8.07973

> <CNNscore>
0.0755156130

> <CNNaffinity>
5.5690183640

> <CNN_VS>
0.4205478430

> <CNNaffinity_variance>
0.1157402396

$$$$
[H]c1oc(-c2nc(N([H])C(=O)c3nc(-c4c([H])c([H])c5c(c4[H])C([H])([H])C([H])([H])O5)sc3[H])n([H])n2)c([H])c1[H]


 29 33  0  0  0  0  0  0  0  0999 V2000
  -89.0760   26.6988    1.7355 O   0  0  0  0  0  0  0  0  0  0  0  0
  -88.0648   26.3032    1.1481 C   0  0  0  0  0  0  0  0  0  0  0  0
  -88.1057   25.2082    0.2218 N   0  0  0  0  0  0  0  0  0  0  0  0
  -87.2648   24.8674   -0.2769 H   0  0  0  0  0  0  0  0  0  0  0  0
  -89.3518   24.5784   -0.0096 C   0  0  0  0  0  0  0  0  0  0  0  0
  -90.1305   24.6730   -1.1143 N   0  0  0  0  0  0  0  0  0  0  0  0
  -91.2433   23.9331   -0.9717 C   0  0  0  0  0  0  0  0  0  0  0  0
  -91.1508   23.3770    0.2313 N   0  0  0  0  0  0  0  0  0  0  0  0
  -90.0302   23.7472    0.8253 N   0  0  0  0  0  0  0  0  0  0  0  0
  -89.6934   23.4604    1.7867 H   0  0  0  0  0  0  0  0  0  0  0  0
  -92.3011   23.8094   -1.9763 C   0  0  0  0  0  0  0  0  0  0  0  0
  -93.5967   23.3711   -1.7252 C   0  0  0  0  0  0  0  0  0  0  0  0
  -94.2939   23.3925   -2.9191 C   0  0  0  0  0  0  0  0  0  0  0  0
  -93.3840   23.8468   -3.8519 C   0  0  0  0  0  0  0  0  0  0  0  0
  -92.2470   24.0730   -3.2541 O   0  0  0  0  0  0  0  0  0  0  0  0
  -86.7727   26.9999    1.4252 C   0  0  0  0  0  0  0  0  0  0  0  0
  -85.8080   26.4389    2.2302 C   0  0  0  0  0  0  0  0  0  0  0  0
  -84.5879   27.6312    2.1962 S   0  0  0  0  0  0  0  0  0  0  0  0
  -85.3723   28.7762    1.1604 C   0  0  0  0  0  0  0  0  0  0  0  0
  -86.5123   28.1616    0.9159 N   0  0  0  0  0  0  0  0  0  0  0  0
  -84.8882   30.0695    0.6931 C   0  0  0  0  0  0  0  0  0  0  0  0
  -83.5519   30.3492    0.7753 C   0  0  0  0  0  0  0  0  0  0  0  0
  -83.0258   31.5600    0.3486 C   0  0  0  0  0  0  0  0  0  0  0  0
  -83.9062   32.4922   -0.1711 C   0  0  0  0  0  0  0  0  0  0  0  0
  -83.6177   33.7584   -0.6562 O   0  0  0  0  0  0  0  0  0  0  0  0
  -84.8195   34.4229   -0.9485 C   0  0  0  0  0  0  0  0  0  0  0  0
  -85.9258   33.4046   -0.8520 C   0  0  0  0  0  0  0  0  0  0  0  0
  -85.2622   32.2347   -0.2654 C   0  0  0  0  0  0  0  0  0  0  0  0
  -85.7491   30.9914    0.1806 C   0  0  0  0  0  0  0  0  0  0  0  0
  1  2  2  0  0  0
  2  3  1  0  0  0
  3  5  1  0  0  0
  5  6  2  0  0  0
  6  7  1  0  0  0
  7  8  2  0  0  0
  8  9  1  0  0  0
  7 11  1  0  0  0
 11 12  2  0  0  0
 12 13  1  0  0  0
 13 14  2  0  0  0
 14 15  1  0  0  0
  2 16  1  0  0  0
 16 17  2  0  0  0
 17 18  1  0  0  0
 18 19  1  0  0  0
 19 20  2  0  0  0
 19 21  1  0  0  0
 21 22  2  0  0  0
 22 23  1  0  0  0
 23 24  2  0  0  0
 24 25  1  0  0  0
 25 26  1  0  0  0
 26 27  1  0  0  0
 27 28  1  0  0  0
 28 29  2  0  0  0
  9  5  1  0  0  0
 15 11  1  0  0  0
 20 16  1  0  0  0
 29 21  1  0  0  0
 28 24  1  0  0  0
  3  4  1  0  0  0
  9 10  1  0  0  0
M  END
> <minimizedAffinity>
-7.17616

> <CNNscore>
0.0744310319

> <CNNaffinity>
5.7527737617

> <CNN_VS>
0.4281848967

> <CNNaffinity_variance>
0.2311078012

$$$$
[H]c1oc(-c2nc(N([H])C(=O)c3nc(-c4c([H])c([H])c5c(c4[H])C([H])([H])C([H])([H])O5)sc3[H])n([H])n2)c([H])c1[H]


 29 33  0  0  0  0  0  0  0  0999 V2000
  -89.8379   34.2149   -3.2162 O   0  0  0  0  0  0  0  0  0  0  0  0
  -88.7596   33.6165   -3.1606 C   0  0  0  0  0  0  0  0  0  0  0  0
  -87.7052   33.8650   -4.1016 N   0  0  0  0  0  0  0  0  0  0  0  0
  -86.7967   33.3698   -4.0654 H   0  0  0  0  0  0  0  0  0  0  0  0
  -87.9300   34.8280   -5.1139 C   0  0  0  0  0  0  0  0  0  0  0  0
  -87.0557   35.7511   -5.5821 N   0  0  0  0  0  0  0  0  0  0  0  0
  -87.6256   36.4943   -6.5460 C   0  0  0  0  0  0  0  0  0  0  0  0
  -88.8623   36.0260   -6.6739 N   0  0  0  0  0  0  0  0  0  0  0  0
  -89.0680   35.0308   -5.8296 N   0  0  0  0  0  0  0  0  0  0  0  0
  -89.9573   34.4697   -5.7099 H   0  0  0  0  0  0  0  0  0  0  0  0
  -86.9623   37.5822   -7.2670 C   0  0  0  0  0  0  0  0  0  0  0  0
  -87.4887   38.2529   -8.3655 C   0  0  0  0  0  0  0  0  0  0  0  0
  -86.5708   39.2075   -8.7633 C   0  0  0  0  0  0  0  0  0  0  0  0
  -85.5175   39.0744   -7.8818 C   0  0  0  0  0  0  0  0  0  0  0  0
  -85.7949   38.1203   -7.0367 O   0  0  0  0  0  0  0  0  0  0  0  0
  -88.5695   32.6092   -2.0739 C   0  0  0  0  0  0  0  0  0  0  0  0
  -89.6318   31.9228   -1.5318 C   0  0  0  0  0  0  0  0  0  0  0  0
  -88.8571   30.9391   -0.3725 S   0  0  0  0  0  0  0  0  0  0  0  0
  -87.2261   31.4554   -0.6420 C   0  0  0  0  0  0  0  0  0  0  0  0
  -87.3938   32.3442   -1.6007 N   0  0  0  0  0  0  0  0  0  0  0  0
  -86.0053   31.0153    0.0222 C   0  0  0  0  0  0  0  0  0  0  0  0
  -84.8881   31.8010   -0.0497 C   0  0  0  0  0  0  0  0  0  0  0  0
  -83.6947   31.4410    0.5595 C   0  0  0  0  0  0  0  0  0  0  0  0
  -83.6664   30.2445    1.2534 C   0  0  0  0  0  0  0  0  0  0  0  0
  -82.5996   29.6809    1.9362 O   0  0  0  0  0  0  0  0  0  0  0  0
  -82.9601   28.3952    2.3702 C   0  0  0  0  0  0  0  0  0  0  0  0
  -84.4407   28.2452    2.1353 C   0  0  0  0  0  0  0  0  0  0  0  0
  -84.7820   29.4312    1.3417 C   0  0  0  0  0  0  0  0  0  0  0  0
  -85.9706   29.8389    0.7069 C   0  0  0  0  0  0  0  0  0  0  0  0
  1  2  2  0  0  0
  2  3  1  0  0  0
  3  5  1  0  0  0
  5  6  2  0  0  0
  6  7  1  0  0  0
  7  8  2  0  0  0
  8  9  1  0  0  0
  7 11  1  0  0  0
 11 12  2  0  0  0
 12 13  1  0  0  0
 13 14  2  0  0  0
 14 15  1  0  0  0
  2 16  1  0  0  0
 16 17  2  0  0  0
 17 18  1  0  0  0
 18 19  1  0  0  0
 19 20  2  0  0  0
 19 21  1  0  0  0
 21 22  2  0  0  0
 22 23  1  0  0  0
 23 24  2  0  0  0
 24 25  1  0  0  0
 25 26  1  0  0  0
 26 27  1  0  0  0
 27 28  1  0  0  0
 28 29  2  0  0  0
  9  5  1  0  0  0
 15 11  1  0  0  0
 20 16  1  0  0  0
 29 21  1  0  0  0
 28 24  1  0  0  0
  3  4  1  0  0  0
  9 10  1  0  0  0
M  END
> <minimizedAffinity>
-8.50982

> <CNNscore>
0.0725621954

> <CNNaffinity>
5.5983095169

> <CNN_VS>
0.4062256217

> <CNNaffinity_variance>
0.1777471453

$$$$
[H]c1oc(-c2nc(N([H])C(=O)c3nc(-c4c([H])c([H])c5c(c4[H])C([H])([H])C([H])([H])O5)sc3[H])n([H])n2)c([H])c1[H]


 29 33  0  0  0  0  0  0  0  0999 V2000
  -90.7564   29.4182   -2.3343 O   0  0  0  0  0  0  0  0  0  0  0  0
  -90.8984   30.4590   -2.9829 C   0  0  0  0  0  0  0  0  0  0  0  0
  -92.0240   30.6653   -3.8486 N   0  0  0  0  0  0  0  0  0  0  0  0
  -92.1542   31.5333   -4.3974 H   0  0  0  0  0  0  0  0  0  0  0  0
  -92.9867   29.6325   -3.9459 C   0  0  0  0  0  0  0  0  0  0  0  0
  -92.9723   28.5688   -4.7850 N   0  0  0  0  0  0  0  0  0  0  0  0
  -94.0562   27.7987   -4.5889 C   0  0  0  0  0  0  0  0  0  0  0  0
  -94.7456   28.3921   -3.6205 N   0  0  0  0  0  0  0  0  0  0  0  0
  -94.1274   29.4890   -3.2202 N   0  0  0  0  0  0  0  0  0  0  0  0
  -94.4439   30.1598   -2.4653 H   0  0  0  0  0  0  0  0  0  0  0  0
  -94.3549   26.5698   -5.3265 C   0  0  0  0  0  0  0  0  0  0  0  0
  -93.7337   26.1722   -6.5053 C   0  0  0  0  0  0  0  0  0  0  0  0
  -94.2850   24.9647   -6.8925 C   0  0  0  0  0  0  0  0  0  0  0  0
  -95.2254   24.6785   -5.9240 C   0  0  0  0  0  0  0  0  0  0  0  0
  -95.2255   25.6390   -5.0416 O   0  0  0  0  0  0  0  0  0  0  0  0
  -89.8558   31.5201   -2.8468 C   0  0  0  0  0  0  0  0  0  0  0  0
  -89.9694   32.7308   -3.4909 C   0  0  0  0  0  0  0  0  0  0  0  0
  -88.5439   33.5261   -2.9938 S   0  0  0  0  0  0  0  0  0  0  0  0
  -87.8833   32.2751   -1.9949 C   0  0  0  0  0  0  0  0  0  0  0  0
  -88.8032   31.3388   -2.1149 N   0  0  0  0  0  0  0  0  0  0  0  0
  -86.6410   32.2733   -1.2319 C   0  0  0  0  0  0  0  0  0  0  0  0
  -85.7694   33.3173   -1.3770 C   0  0  0  0  0  0  0  0  0  0  0  0
  -84.5708   33.3774   -0.6809 C   0  0  0  0  0  0  0  0  0  0  0  0
  -84.2772   32.3336    0.1785 C   0  0  0  0  0  0  0  0  0  0  0  0
  -83.1518   32.1746    0.9722 O   0  0  0  0  0  0  0  0  0  0  0  0
  -83.1897   30.9065    1.5736 C   0  0  0  0  0  0  0  0  0  0  0  0
  -84.5568   30.3302    1.3111 C   0  0  0  0  0  0  0  0  0  0  0  0
  -85.1412   31.2659    0.3436 C   0  0  0  0  0  0  0  0  0  0  0  0
  -86.3460   31.2493   -0.3845 C   0  0  0  0  0  0  0  0  0  0  0  0
  1  2  2  0  0  0
  2  3  1  0  0  0
  3  5  1  0  0  0
  5  6  2  0  0  0
  6  7  1  0  0  0
  7  8  2  0  0  0
  8  9  1  0  0  0
  7 11  1  0  0  0
 11 12  2  0  0  0
 12 13  1  0  0  0
 13 14  2  0  0  0
 14 15  1  0  0  0
  2 16  1  0  0  0
 16 17  2  0  0  0
 17 18  1  0  0  0
 18 19  1  0  0  0
 19 20  2  0  0  0
 19 21  1  0  0  0
 21 22  2  0  0  0
 22 23  1  0  0  0
 23 24  2  0  0  0
 24 25  1  0  0  0
 25 26  1  0  0  0
 26 27  1  0  0  0
 27 28  1  0  0  0
 28 29  2  0  0  0
  9  5  1  0  0  0
 15 11  1  0  0  0
 20 16  1  0  0  0
 29 21  1  0  0  0
 28 24  1  0  0  0
  3  4  1  0  0  0
  9 10  1  0  0  0
M  END
> <minimizedAffinity>
-6.88109

> <CNNscore>
0.0602872595

> <CNNaffinity>
5.3967118263

> <CNN_VS>
0.3253529668

> <CNNaffinity_variance>
0.2109228671

$$$$
[H]c1oc(-c2nc(N([H])C(=O)c3nc(-c4c([H])c([H])c5c(c4[H])C([H])([H])C([H])([H])O5)sc3[H])n([H])n2)c([H])c1[H]


 29 33  0  0  0  0  0  0  0  0999 V2000
  -91.8690   29.1437   -0.9675 O   0  0  0  0  0  0  0  0  0  0  0  0
  -90.6465   29.0684   -1.1216 C   0  0  0  0  0  0  0  0  0  0  0  0
  -89.9708   27.8062   -1.2177 N   0  0  0  0  0  0  0  0  0  0  0  0
  -88.9464   27.7301   -1.3470 H   0  0  0  0  0  0  0  0  0  0  0  0
  -90.7482   26.6269   -1.1307 C   0  0  0  0  0  0  0  0  0  0  0  0
  -91.4514   26.0282   -2.1221 N   0  0  0  0  0  0  0  0  0  0  0  0
  -92.0666   24.9247   -1.6640 C   0  0  0  0  0  0  0  0  0  0  0  0
  -91.7405   24.8414   -0.3787 N   0  0  0  0  0  0  0  0  0  0  0  0
  -90.9540   25.8464   -0.0366 N   0  0  0  0  0  0  0  0  0  0  0  0
  -90.5404   26.0356    0.9189 H   0  0  0  0  0  0  0  0  0  0  0  0
  -92.9095   24.0400   -2.4704 C   0  0  0  0  0  0  0  0  0  0  0  0
  -92.5380   22.7823   -2.9328 C   0  0  0  0  0  0  0  0  0  0  0  0
  -93.5975   22.2617   -3.6528 C   0  0  0  0  0  0  0  0  0  0  0  0
  -94.5753   23.2340   -3.5961 C   0  0  0  0  0  0  0  0  0  0  0  0
  -94.1260   24.2415   -2.9003 O   0  0  0  0  0  0  0  0  0  0  0  0
  -89.8689   30.3410   -1.2080 C   0  0  0  0  0  0  0  0  0  0  0  0
  -90.4476   31.5131   -1.6377 C   0  0  0  0  0  0  0  0  0  0  0  0
  -89.1402   32.6051   -1.5387 S   0  0  0  0  0  0  0  0  0  0  0  0
  -87.9310   31.5106   -0.9564 C   0  0  0  0  0  0  0  0  0  0  0  0
  -88.6171   30.3877   -0.8802 N   0  0  0  0  0  0  0  0  0  0  0  0
  -86.5328   31.7755   -0.6400 C   0  0  0  0  0  0  0  0  0  0  0  0
  -85.9507   32.9221   -1.1059 C   0  0  0  0  0  0  0  0  0  0  0  0
  -84.6251   33.2346   -0.8412 C   0  0  0  0  0  0  0  0  0  0  0  0
  -83.8965   32.3382   -0.0798 C   0  0  0  0  0  0  0  0  0  0  0  0
  -82.5697   32.4335    0.3106 O   0  0  0  0  0  0  0  0  0  0  0  0
  -82.1912   31.2401    0.9460 C   0  0  0  0  0  0  0  0  0  0  0  0
  -83.4464   30.4367    1.1678 C   0  0  0  0  0  0  0  0  0  0  0  0
  -84.4610   31.1713    0.4037 C   0  0  0  0  0  0  0  0  0  0  0  0
  -85.8101   30.8976    0.1088 C   0  0  0  0  0  0  0  0  0  0  0  0
  1  2  2  0  0  0
  2  3  1  0  0  0
  3  5  1  0  0  0
  5  6  2  0  0  0
  6  7  1  0  0  0
  7  8  2  0  0  0
  8  9  1  0  0  0
  7 11  1  0  0  0
 11 12  2  0  0  0
 12 13  1  0  0  0
 13 14  2  0  0  0
 14 15  1  0  0  0
  2 16  1  0  0  0
 16 17  2  0  0  0
 17 18  1  0  0  0
 18 19  1  0  0  0
 19 20  2  0  0  0
 19 21  1  0  0  0
 21 22  2  0  0  0
 22 23  1  0  0  0
 23 24  2  0  0  0
 24 25  1  0  0  0
 25 26  1  0  0  0
 26 27  1  0  0  0
 27 28  1  0  0  0
 28 29  2  0  0  0
  9  5  1  0  0  0
 15 11  1  0  0  0
 20 16  1  0  0  0
 29 21  1  0  0  0
 28 24  1  0  0  0
  3  4  1  0  0  0
  9 10  1  0  0  0
M  END
> <minimizedAffinity>
-6.93576

> <CNNscore>
0.0588280037

> <CNNaffinity>
5.6428976059

> <CNN_VS>
0.3319604099

> <CNNaffinity_variance>
0.2244754285

$$$$
[H]c1sc(-c2c([H])c([H])c3c(c2[H])C([H])([H])C([H])([H])O3)nc1C(=O)N([H])c1nc(SC([H])([H])C([H])([H])c2c([H])c([H])c([H])c([H])c2[H])nn1[H]


 33 37  0  0  0  0  0  0  0  0999 V2000
  -82.3160   28.8158    2.2820 O   0  0  0  0  0  0  0  0  0  0  0  0
  -83.1935   29.5744    1.6478 C   0  0  0  0  0  0  0  0  0  0  0  0
  -82.7684   30.8030    1.3253 N   0  0  0  0  0  0  0  0  0  0  0  0
  -81.7358   31.0356    1.6572 H   0  0  0  0  0  0  0  0  0  0  0  0
  -83.2822   31.8431    0.5352 C   0  0  0  0  0  0  0  0  0  0  0  0
  -84.6065   31.9867    0.1989 N   0  0  0  0  0  0  0  0  0  0  0  0
  -84.8122   33.0937   -0.4977 C   0  0  0  0  0  0  0  0  0  0  0  0
  -83.6263   33.6831   -0.6222 N   0  0  0  0  0  0  0  0  0  0  0  0
  -82.7080   32.9202    0.0062 N   0  0  0  0  0  0  0  0  0  0  0  0
  -81.7262   33.2432    0.0315 H   0  0  0  0  0  0  0  0  0  0  0  0
  -86.3917   33.6955   -1.1597 S   0  0  0  0  0  0  0  0  0  0  0  0
  -86.4576   33.4985   -2.9392 C   0  0  0  0  0  0  0  0  0  0  0  0
  -87.8886   33.7544   -3.4010 C   0  0  0  0  0  0  0  0  0  0  0  0
  -87.9441   35.0499   -4.0906 C   0  0  0  0  0  0  0  0  0  0  0  0
  -87.9243   35.1619   -5.4510 C   0  0  0  0  0  0  0  0  0  0  0  0
  -87.9822   36.4122   -6.0495 C   0  0  0  0  0  0  0  0  0  0  0  0
  -88.0602   37.5595   -5.2967 C   0  0  0  0  0  0  0  0  0  0  0  0
  -88.0803   37.4502   -3.9317 C   0  0  0  0  0  0  0  0  0  0  0  0
  -88.0233   36.2165   -3.3339 C   0  0  0  0  0  0  0  0  0  0  0  0
  -84.4674   28.8459    1.4521 C   0  0  0  0  0  0  0  0  0  0  0  0
  -84.8426   27.8202    2.2873 C   0  0  0  0  0  0  0  0  0  0  0  0
  -86.3590   27.3749    1.6565 S   0  0  0  0  0  0  0  0  0  0  0  0
  -86.4365   28.5101    0.3692 C   0  0  0  0  0  0  0  0  0  0  0  0
  -85.3005   29.1587    0.5007 N   0  0  0  0  0  0  0  0  0  0  0  0
  -87.5072   28.6995   -0.6260 C   0  0  0  0  0  0  0  0  0  0  0  0
  -87.8401   27.6885   -1.4858 C   0  0  0  0  0  0  0  0  0  0  0  0
  -88.8610   27.8590   -2.4334 C   0  0  0  0  0  0  0  0  0  0  0  0
  -89.5442   29.0599   -2.5063 C   0  0  0  0  0  0  0  0  0  0  0  0
  -90.5855   29.5127   -3.3281 O   0  0  0  0  0  0  0  0  0  0  0  0
  -91.1929   30.6549   -2.7526 C   0  0  0  0  0  0  0  0  0  0  0  0
  -90.0833   31.2625   -1.9126 C   0  0  0  0  0  0  0  0  0  0  0  0
  -89.2058   30.0671   -1.6430 C   0  0  0  0  0  0  0  0  0  0  0  0
  -88.1898   29.8841   -0.7070 C   0  0  0  0  0  0  0  0  0  0  0  0
  1  2  2  0  0  0
  2  3  1  0  0  0
  3  5  1  0  0  0
  5  6  2  0  0  0
  6  7  1  0  0  0
  7 11  1  0  0  0
 11 12  1  0  0  0
 12 13  1  0  0  0
 13 14  1  0  0  0
 14 15  2  0  0  0
 15 16  1  0  0  0
 16 17  2  0  0  0
 17 18  1  0  0  0
 18 19  2  0  0  0
  7  8  2  0  0  0
  8  9  1  0  0  0
  2 20  1  0  0  0
 20 21  2  0  0  0
 21 22  1  0  0  0
 22 23  1  0  0  0
 23 24  2  0  0  0
 23 25  1  0  0  0
 25 26  2  0  0  0
 26 27  1  0  0  0
 27 28  2  0  0  0
 28 29  1  0  0  0
 29 30  1  0  0  0
 30 31  1  0  0  0
 31 32  1  0  0  0
 32 33  2  0  0  0
  9  5  1  0  0  0
 24 20  1  0  0  0
 33 25  1  0  0  0
 19 14  1  0  0  0
 32 28  1  0  0  0
  3  4  1  0  0  0
  9 10  1  0  0  0
M  END
> <minimizedAffinity>
-8.75360

> <CNNscore>
0.9624657631

> <CNNaffinity>
7.7002258301

> <CNN_VS>
7.4112038612

> <CNNaffinity_variance>
0.1084538102

$$$$
[H]c1sc(-c2c([H])c([H])c3c(c2[H])C([H])([H])C([H])([H])O3)nc1C(=O)N([H])c1nc(SC([H])([H])C([H])([H])c2c([H])c([H])c([H])c([H])c2[H])nn1[H]


 33 37  0  0  0  0  0  0  0  0999 V2000
  -83.5762   27.2330    3.1502 O   0  0  0  0  0  0  0  0  0  0  0  0
  -84.4618   27.5909    2.2363 C   0  0  0  0  0  0  0  0  0  0  0  0
  -85.4155   26.6885    1.9715 N   0  0  0  0  0  0  0  0  0  0  0  0
  -85.3234   25.7400    2.5395 H   0  0  0  0  0  0  0  0  0  0  0  0
  -86.6052   26.7080    1.2270 C   0  0  0  0  0  0  0  0  0  0  0  0
  -87.4566   27.7830    1.1442 N   0  0  0  0  0  0  0  0  0  0  0  0
  -88.4636   27.5412    0.3193 C   0  0  0  0  0  0  0  0  0  0  0  0
  -88.2794   26.3081   -0.1444 N   0  0  0  0  0  0  0  0  0  0  0  0
  -87.1531   25.8131    0.4092 N   0  0  0  0  0  0  0  0  0  0  0  0
  -86.8411   24.8652    0.1390 H   0  0  0  0  0  0  0  0  0  0  0  0
  -89.8307   28.6593   -0.1001 S   0  0  0  0  0  0  0  0  0  0  0  0
  -91.2884   28.2819    0.8708 C   0  0  0  0  0  0  0  0  0  0  0  0
  -91.1169   28.8932    2.2576 C   0  0  0  0  0  0  0  0  0  0  0  0
  -90.7221   27.8379    3.1998 C   0  0  0  0  0  0  0  0  0  0  0  0
  -90.3280   28.1026    4.4797 C   0  0  0  0  0  0  0  0  0  0  0  0
  -89.9685   27.0655    5.3282 C   0  0  0  0  0  0  0  0  0  0  0  0
  -89.9991   25.7575    4.9073 C   0  0  0  0  0  0  0  0  0  0  0  0
  -90.3941   25.4889    3.6237 C   0  0  0  0  0  0  0  0  0  0  0  0
  -90.7509   26.5103    2.7798 C   0  0  0  0  0  0  0  0  0  0  0  0
  -84.1595   28.9451    1.7196 C   0  0  0  0  0  0  0  0  0  0  0  0
  -82.9240   29.5213    1.8977 C   0  0  0  0  0  0  0  0  0  0  0  0
  -83.1011   31.0135    1.0991 S   0  0  0  0  0  0  0  0  0  0  0  0
  -84.7294   30.8283    0.5834 C   0  0  0  0  0  0  0  0  0  0  0  0
  -85.0369   29.6392    1.0523 N   0  0  0  0  0  0  0  0  0  0  0  0
  -85.5623   31.7697   -0.1866 C   0  0  0  0  0  0  0  0  0  0  0  0
  -84.9995   32.8671   -0.7791 C   0  0  0  0  0  0  0  0  0  0  0  0
  -85.7845   33.7661   -1.5174 C   0  0  0  0  0  0  0  0  0  0  0  0
  -87.1440   33.5482   -1.6529 C   0  0  0  0  0  0  0  0  0  0  0  0
  -88.1586   34.2542   -2.3139 O   0  0  0  0  0  0  0  0  0  0  0  0
  -89.2913   33.4225   -2.4874 C   0  0  0  0  0  0  0  0  0  0  0  0
  -89.1794   32.4269   -1.3462 C   0  0  0  0  0  0  0  0  0  0  0  0
  -87.7004   32.4482   -1.0572 C   0  0  0  0  0  0  0  0  0  0  0  0
  -86.9090   31.5638   -0.3269 C   0  0  0  0  0  0  0  0  0  0  0  0
  1  2  2  0  0  0
  2  3  1  0  0  0
  3  5  1  0  0  0
  5  6  2  0  0  0
  6  7  1  0  0  0
  7 11  1  0  0  0
 11 12  1  0  0  0
 12 13  1  0  0  0
 13 14  1  0  0  0
 14 15  2  0  0  0
 15 16  1  0  0  0
 16 17  2  0  0  0
 17 18  1  0  0  0
 18 19  2  0  0  0
  7  8  2  0  0  0
  8  9  1  0  0  0
  2 20  1  0  0  0
 20 21  2  0  0  0
 21 22  1  0  0  0
 22 23  1  0  0  0
 23 24  2  0  0  0
 23 25  1  0  0  0
 25 26  2  0  0  0
 26 27  1  0  0  0
 27 28  2  0  0  0
 28 29  1  0  0  0
 29 30  1  0  0  0
 30 31  1  0  0  0
 31 32  1  0  0  0
 32 33  2  0  0  0
  9  5  1  0  0  0
 24 20  1  0  0  0
 33 25  1  0  0  0
 19 14  1  0  0  0
 32 28  1  0  0  0
  3  4  1  0  0  0
  9 10  1  0  0  0
M  END
> <minimizedAffinity>
-9.56524

> <CNNscore>
0.8551381826

> <CNNaffinity>
7.5415678024

> <CNN_VS>
6.4490823746

> <CNNaffinity_variance>
0.1119815931

$$$$
[H]c1sc(-c2c([H])c([H])c3c(c2[H])C([H])([H])C([H])([H])O3)nc1C(=O)N([H])c1nc(SC([H])([H])C([H])([H])c2c([H])c([H])c([H])c([H])c2[H])nn1[H]


 33 37  0  0  0  0  0  0  0  0999 V2000
  -83.4674   33.3885   -0.6172 O   0  0  0  0  0  0  0  0  0  0  0  0
  -84.6824   32.8764   -0.5206 C   0  0  0  0  0  0  0  0  0  0  0  0
  -85.6612   33.6027   -1.0761 N   0  0  0  0  0  0  0  0  0  0  0  0
  -85.3266   34.5596   -1.5265 H   0  0  0  0  0  0  0  0  0  0  0  0
  -87.0196   33.3751   -1.3459 C   0  0  0  0  0  0  0  0  0  0  0  0
  -87.6378   33.6645   -2.5382 N   0  0  0  0  0  0  0  0  0  0  0  0
  -88.9056   33.2832   -2.5318 C   0  0  0  0  0  0  0  0  0  0  0  0
  -89.1271   32.7411   -1.3375 N   0  0  0  0  0  0  0  0  0  0  0  0
  -87.9811   32.8004   -0.6282 N   0  0  0  0  0  0  0  0  0  0  0  0
  -87.9639   32.3975    0.3238 H   0  0  0  0  0  0  0  0  0  0  0  0
  -90.1117   33.4624   -3.8766 S   0  0  0  0  0  0  0  0  0  0  0  0
  -89.2888   33.7525   -5.4413 C   0  0  0  0  0  0  0  0  0  0  0  0
  -89.6624   35.1474   -5.9324 C   0  0  0  0  0  0  0  0  0  0  0  0
  -88.8174   36.1366   -5.2508 C   0  0  0  0  0  0  0  0  0  0  0  0
  -87.4574   36.1499   -5.3685 C   0  0  0  0  0  0  0  0  0  0  0  0
  -86.7084   37.1102   -4.7040 C   0  0  0  0  0  0  0  0  0  0  0  0
  -87.3093   38.0638   -3.9175 C   0  0  0  0  0  0  0  0  0  0  0  0
  -88.6735   38.0529   -3.7974 C   0  0  0  0  0  0  0  0  0  0  0  0
  -89.4197   37.1057   -4.4523 C   0  0  0  0  0  0  0  0  0  0  0  0
  -84.6482   31.5863    0.2051 C   0  0  0  0  0  0  0  0  0  0  0  0
  -83.5842   31.2412    1.0046 C   0  0  0  0  0  0  0  0  0  0  0  0
  -84.0627   29.7248    1.6106 S   0  0  0  0  0  0  0  0  0  0  0  0
  -85.5831   29.6086    0.8191 C   0  0  0  0  0  0  0  0  0  0  0  0
  -85.6315   30.7343    0.1417 N   0  0  0  0  0  0  0  0  0  0  0  0
  -86.5735   28.5190    0.8866 C   0  0  0  0  0  0  0  0  0  0  0  0
  -86.8026   27.7231   -0.2025 C   0  0  0  0  0  0  0  0  0  0  0  0
  -87.7407   26.6809   -0.1455 C   0  0  0  0  0  0  0  0  0  0  0  0
  -88.4467   26.4482    1.0214 C   0  0  0  0  0  0  0  0  0  0  0  0
  -89.4229   25.5046    1.3696 O   0  0  0  0  0  0  0  0  0  0  0  0
  -89.5403   25.4287    2.7785 C   0  0  0  0  0  0  0  0  0  0  0  0
  -89.0913   26.8017    3.2471 C   0  0  0  0  0  0  0  0  0  0  0  0
  -88.2124   27.2485    2.1072 C   0  0  0  0  0  0  0  0  0  0  0  0
  -87.2780   28.2799    2.0365 C   0  0  0  0  0  0  0  0  0  0  0  0
  1  2  2  0  0  0
  2  3  1  0  0  0
  3  5  1  0  0  0
  5  6  2  0  0  0
  6  7  1  0  0  0
  7 11  1  0  0  0
 11 12  1  0  0  0
 12 13  1  0  0  0
 13 14  1  0  0  0
 14 15  2  0  0  0
 15 16  1  0  0  0
 16 17  2  0  0  0
 17 18  1  0  0  0
 18 19  2  0  0  0
  7  8  2  0  0  0
  8  9  1  0  0  0
  2 20  1  0  0  0
 20 21  2  0  0  0
 21 22  1  0  0  0
 22 23  1  0  0  0
 23 24  2  0  0  0
 23 25  1  0  0  0
 25 26  2  0  0  0
 26 27  1  0  0  0
 27 28  2  0  0  0
 28 29  1  0  0  0
 29 30  1  0  0  0
 30 31  1  0  0  0
 31 32  1  0  0  0
 32 33  2  0  0  0
  9  5  1  0  0  0
 24 20  1  0  0  0
 33 25  1  0  0  0
 19 14  1  0  0  0
 32 28  1  0  0  0
  3  4  1  0  0  0
  9 10  1  0  0  0
M  END
> <minimizedAffinity>
-7.58815

> <CNNscore>
0.5381874442

> <CNNaffinity>
7.0136032104

> <CNN_VS>
3.7746331692

> <CNNaffinity_variance>
0.1431382895

$$$$
[H]c1sc(-c2c([H])c([H])c3c(c2[H])C([H])([H])C([H])([H])O3)nc1C(=O)N([H])c1nc(SC([H])([H])C([H])([H])c2c([H])c([H])c([H])c([H])c2[H])nn1[H]


 33 37  0  0  0  0  0  0  0  0999 V2000
  -82.6610   32.4846    0.9059 O   0  0  0  0  0  0  0  0  0  0  0  0
  -83.8574   32.2851    0.3801 C   0  0  0  0  0  0  0  0  0  0  0  0
  -84.2424   33.1824   -0.5368 N   0  0  0  0  0  0  0  0  0  0  0  0
  -83.5123   33.9975   -0.7194 H   0  0  0  0  0  0  0  0  0  0  0  0
  -85.3160   33.2667   -1.4370 C   0  0  0  0  0  0  0  0  0  0  0  0
  -86.6407   33.2763   -1.0731 N   0  0  0  0  0  0  0  0  0  0  0  0
  -87.4308   33.4310   -2.1242 C   0  0  0  0  0  0  0  0  0  0  0  0
  -86.6309   33.5247   -3.1829 N   0  0  0  0  0  0  0  0  0  0  0  0
  -85.3545   33.4252   -2.7573 N   0  0  0  0  0  0  0  0  0  0  0  0
  -84.5915   33.5031   -3.4506 H   0  0  0  0  0  0  0  0  0  0  0  0
  -89.2448   33.4993   -2.1324 S   0  0  0  0  0  0  0  0  0  0  0  0
  -89.9347   32.1059   -3.0224 C   0  0  0  0  0  0  0  0  0  0  0  0
  -89.1478   30.8547   -2.6462 C   0  0  0  0  0  0  0  0  0  0  0  0
  -89.9045   30.0983   -1.6401 C   0  0  0  0  0  0  0  0  0  0  0  0
  -89.7711   30.3177   -0.2993 C   0  0  0  0  0  0  0  0  0  0  0  0
  -90.5140   29.5750    0.6070 C   0  0  0  0  0  0  0  0  0  0  0  0
  -91.3949   28.6087    0.1836 C   0  0  0  0  0  0  0  0  0  0  0  0
  -91.5307   28.3863   -1.1609 C   0  0  0  0  0  0  0  0  0  0  0  0
  -90.7988   29.1176   -2.0621 C   0  0  0  0  0  0  0  0  0  0  0  0
  -84.4884   31.0790    0.9626 C   0  0  0  0  0  0  0  0  0  0  0  0
  -84.2934   30.7323    2.2787 C   0  0  0  0  0  0  0  0  0  0  0  0
  -85.2479   29.3318    2.4302 S   0  0  0  0  0  0  0  0  0  0  0  0
  -85.8420   29.2597    0.8198 C   0  0  0  0  0  0  0  0  0  0  0  0
  -85.2753   30.3090    0.2664 N   0  0  0  0  0  0  0  0  0  0  0  0
  -86.7530   28.2684    0.2197 C   0  0  0  0  0  0  0  0  0  0  0  0
  -86.8297   28.1321   -1.1396 C   0  0  0  0  0  0  0  0  0  0  0  0
  -87.6913   27.1880   -1.7189 C   0  0  0  0  0  0  0  0  0  0  0  0
  -88.4759   26.3813   -0.9141 C   0  0  0  0  0  0  0  0  0  0  0  0
  -89.4075   25.3733   -1.1985 O   0  0  0  0  0  0  0  0  0  0  0  0
  -89.6394   24.5899   -0.0421 C   0  0  0  0  0  0  0  0  0  0  0  0
  -89.3328   25.5426    1.1001 C   0  0  0  0  0  0  0  0  0  0  0  0
  -88.3941   26.5231    0.4452 C   0  0  0  0  0  0  0  0  0  0  0  0
  -87.5343   27.4649    1.0070 C   0  0  0  0  0  0  0  0  0  0  0  0
  1  2  2  0  0  0
  2  3  1  0  0  0
  3  5  1  0  0  0
  5  6  2  0  0  0
  6  7  1  0  0  0
  7 11  1  0  0  0
 11 12  1  0  0  0
 12 13  1  0  0  0
 13 14  1  0  0  0
 14 15  2  0  0  0
 15 16  1  0  0  0
 16 17  2  0  0  0
 17 18  1  0  0  0
 18 19  2  0  0  0
  7  8  2  0  0  0
  8  9  1  0  0  0
  2 20  1  0  0  0
 20 21  2  0  0  0
 21 22  1  0  0  0
 22 23  1  0  0  0
 23 24  2  0  0  0
 23 25  1  0  0  0
 25 26  2  0  0  0
 26 27  1  0  0  0
 27 28  2  0  0  0
 28 29  1  0  0  0
 29 30  1  0  0  0
 30 31  1  0  0  0
 31 32  1  0  0  0
 32 33  2  0  0  0
  9  5  1  0  0  0
 24 20  1  0  0  0
 33 25  1  0  0  0
 19 14  1  0  0  0
 32 28  1  0  0  0
  3  4  1  0  0  0
  9 10  1  0  0  0
M  END
> <minimizedAffinity>
-7.38151

> <CNNscore>
0.5074889064

> <CNNaffinity>
7.1192674637

> <CNN_VS>
3.6129493713

> <CNNaffinity_variance>
0.2579433322

$$$$
[H]c1sc(-c2c([H])c([H])c3c(c2[H])C([H])([H])C([H])([H])O3)nc1C(=O)N([H])c1nc(SC([H])([H])C([H])([H])c2c([H])c([H])c([H])c([H])c2[H])nn1[H]


 33 37  0  0  0  0  0  0  0  0999 V2000
  -84.1358   28.6361    2.8987 O   0  0  0  0  0  0  0  0  0  0  0  0
  -84.9565   28.6542    1.8625 C   0  0  0  0  0  0  0  0  0  0  0  0
  -85.6578   27.5310    1.6613 N   0  0  0  0  0  0  0  0  0  0  0  0
  -85.4388   26.7155    2.3808 H   0  0  0  0  0  0  0  0  0  0  0  0
  -86.7230   27.1769    0.8187 C   0  0  0  0  0  0  0  0  0  0  0  0
  -87.4686   26.0298    0.9431 N   0  0  0  0  0  0  0  0  0  0  0  0
  -88.4483   25.9898    0.0534 C   0  0  0  0  0  0  0  0  0  0  0  0
  -88.3526   27.1091   -0.6589 N   0  0  0  0  0  0  0  0  0  0  0  0
  -87.3074   27.8206   -0.1883 N   0  0  0  0  0  0  0  0  0  0  0  0
  -87.1001   28.7401   -0.6131 H   0  0  0  0  0  0  0  0  0  0  0  0
  -89.6800   24.6740   -0.1635 S   0  0  0  0  0  0  0  0  0  0  0  0
  -91.0447   24.8788    0.9791 C   0  0  0  0  0  0  0  0  0  0  0  0
  -90.5705   24.4838    2.3739 C   0  0  0  0  0  0  0  0  0  0  0  0
  -90.4358   25.6948    3.1939 C   0  0  0  0  0  0  0  0  0  0  0  0
  -90.6475   26.9485    2.6969 C   0  0  0  0  0  0  0  0  0  0  0  0
  -90.5089   28.0579    3.5184 C   0  0  0  0  0  0  0  0  0  0  0  0
  -90.1584   27.9257    4.8408 C   0  0  0  0  0  0  0  0  0  0  0  0
  -89.9452   26.6692    5.3422 C   0  0  0  0  0  0  0  0  0  0  0  0
  -90.0808   25.5682    4.5346 C   0  0  0  0  0  0  0  0  0  0  0  0
  -84.8852   29.9576    1.1638 C   0  0  0  0  0  0  0  0  0  0  0  0
  -83.7183   30.6833    1.1168 C   0  0  0  0  0  0  0  0  0  0  0  0
  -84.1688   32.0348    0.1862 S   0  0  0  0  0  0  0  0  0  0  0  0
  -85.8098   31.6095   -0.0928 C   0  0  0  0  0  0  0  0  0  0  0  0
  -85.9122   30.4623    0.5412 N   0  0  0  0  0  0  0  0  0  0  0  0
  -86.8353   32.3499   -0.8498 C   0  0  0  0  0  0  0  0  0  0  0  0
  -88.1622   32.0612   -0.6829 C   0  0  0  0  0  0  0  0  0  0  0  0
  -89.1451   32.7640   -1.3965 C   0  0  0  0  0  0  0  0  0  0  0  0
  -88.7773   33.7622   -2.2811 C   0  0  0  0  0  0  0  0  0  0  0  0
  -89.5161   34.6148   -3.1130 O   0  0  0  0  0  0  0  0  0  0  0  0
  -88.7145   35.7101   -3.5160 C   0  0  0  0  0  0  0  0  0  0  0  0
  -87.3006   35.1601   -3.4472 C   0  0  0  0  0  0  0  0  0  0  0  0
  -87.4478   34.0457   -2.4432 C   0  0  0  0  0  0  0  0  0  0  0  0
  -86.4823   33.3396   -1.7282 C   0  0  0  0  0  0  0  0  0  0  0  0
  1  2  2  0  0  0
  2  3  1  0  0  0
  3  5  1  0  0  0
  5  6  2  0  0  0
  6  7  1  0  0  0
  7 11  1  0  0  0
 11 12  1  0  0  0
 12 13  1  0  0  0
 13 14  1  0  0  0
 14 15  2  0  0  0
 15 16  1  0  0  0
 16 17  2  0  0  0
 17 18  1  0  0  0
 18 19  2  0  0  0
  7  8  2  0  0  0
  8  9  1  0  0  0
  2 20  1  0  0  0
 20 21  2  0  0  0
 21 22  1  0  0  0
 22 23  1  0  0  0
 23 24  2  0  0  0
 23 25  1  0  0  0
 25 26  2  0  0  0
 26 27  1  0  0  0
 27 28  2  0  0  0
 28 29  1  0  0  0
 29 30  1  0  0  0
 30 31  1  0  0  0
 31 32  1  0  0  0
 32 33  2  0  0  0
  9  5  1  0  0  0
 24 20  1  0  0  0
 33 25  1  0  0  0
 19 14  1  0  0  0
 32 28  1  0  0  0
  3  4  1  0  0  0
  9 10  1  0  0  0
M  END
> <minimizedAffinity>
-8.84707

> <CNNscore>
0.4242982268

> <CNNaffinity>
7.1119971275

> <CNN_VS>
3.0176076889

> <CNNaffinity_variance>
0.1227905601

$$$$
[H]c1sc(-c2c([H])c([H])c3c(c2[H])C([H])([H])C([H])([H])O3)nc1C(=O)N([H])c1nc(SC([H])([H])C([H])([H])c2c([H])c([H])c([H])c([H])c2[H])nn1[H]


 33 37  0  0  0  0  0  0  0  0999 V2000
  -83.0502   33.6785   -0.5144 O   0  0  0  0  0  0  0  0  0  0  0  0
  -84.2130   33.0521   -0.5697 C   0  0  0  0  0  0  0  0  0  0  0  0
  -85.1721   33.6750   -1.2669 N   0  0  0  0  0  0  0  0  0  0  0  0
  -84.8719   34.6558   -1.6896 H   0  0  0  0  0  0  0  0  0  0  0  0
  -86.4540   33.3145   -1.7107 C   0  0  0  0  0  0  0  0  0  0  0  0
  -86.7871   33.0741   -3.0217 N   0  0  0  0  0  0  0  0  0  0  0  0
  -88.0483   32.6885   -3.1382 C   0  0  0  0  0  0  0  0  0  0  0  0
  -88.5499   32.6725   -1.9063 N   0  0  0  0  0  0  0  0  0  0  0  0
  -87.5785   33.0514   -1.0503 N   0  0  0  0  0  0  0  0  0  0  0  0
  -87.7875   33.0715   -0.0380 H   0  0  0  0  0  0  0  0  0  0  0  0
  -88.9295   32.2669   -4.6683 S   0  0  0  0  0  0  0  0  0  0  0  0
  -90.5316   31.5502   -4.3086 C   0  0  0  0  0  0  0  0  0  0  0  0
  -90.3217   30.2948   -3.4682 C   0  0  0  0  0  0  0  0  0  0  0  0
  -91.5136   29.4433   -3.5744 C   0  0  0  0  0  0  0  0  0  0  0  0
  -91.5457   28.1595   -3.1115 C   0  0  0  0  0  0  0  0  0  0  0  0
  -92.7008   27.4011   -3.2357 C   0  0  0  0  0  0  0  0  0  0  0  0
  -93.8318   27.9167   -3.8221 C   0  0  0  0  0  0  0  0  0  0  0  0
  -93.8026   29.2044   -4.2875 C   0  0  0  0  0  0  0  0  0  0  0  0
  -92.6632   29.9594   -4.1675 C   0  0  0  0  0  0  0  0  0  0  0  0
  -84.1552   31.7781    0.1824 C   0  0  0  0  0  0  0  0  0  0  0  0
  -83.1464   31.5206    1.0804 C   0  0  0  0  0  0  0  0  0  0  0  0
  -83.5714   29.9828    1.6723 S   0  0  0  0  0  0  0  0  0  0  0  0
  -85.0023   29.7479    0.7509 C   0  0  0  0  0  0  0  0  0  0  0  0
  -85.0673   30.8576    0.0490 N   0  0  0  0  0  0  0  0  0  0  0  0
  -85.9168   28.5918    0.7522 C   0  0  0  0  0  0  0  0  0  0  0  0
  -85.9396   27.7281    1.8131 C   0  0  0  0  0  0  0  0  0  0  0  0
  -86.8100   26.6274    1.8242 C   0  0  0  0  0  0  0  0  0  0  0  0
  -87.6585   26.4052    0.7543 C   0  0  0  0  0  0  0  0  0  0  0  0
  -88.6147   25.4152    0.4891 O   0  0  0  0  0  0  0  0  0  0  0  0
  -89.4834   25.8469   -0.5423 C   0  0  0  0  0  0  0  0  0  0  0  0
  -88.6356   26.8269   -1.3342 C   0  0  0  0  0  0  0  0  0  0  0  0
  -87.6303   27.2734   -0.3040 C   0  0  0  0  0  0  0  0  0  0  0  0
  -86.7607   28.3622   -0.3018 C   0  0  0  0  0  0  0  0  0  0  0  0
  1  2  2  0  0  0
  2  3  1  0  0  0
  3  5  1  0  0  0
  5  6  2  0  0  0
  6  7  1  0  0  0
  7 11  1  0  0  0
 11 12  1  0  0  0
 12 13  1  0  0  0
 13 14  1  0  0  0
 14 15  2  0  0  0
 15 16  1  0  0  0
 16 17  2  0  0  0
 17 18  1  0  0  0
 18 19  2  0  0  0
  7  8  2  0  0  0
  8  9  1  0  0  0
  2 20  1  0  0  0
 20 21  2  0  0  0
 21 22  1  0  0  0
 22 23  1  0  0  0
 23 24  2  0  0  0
 23 25  1  0  0  0
 25 26  2  0  0  0
 26 27  1  0  0  0
 27 28  2  0  0  0
 28 29  1  0  0  0
 29 30  1  0  0  0
 30 31  1  0  0  0
 31 32  1  0  0  0
 32 33  2  0  0  0
  9  5  1  0  0  0
 24 20  1  0  0  0
 33 25  1  0  0  0
 19 14  1  0  0  0
 32 28  1  0  0  0
  3  4  1  0  0  0
  9 10  1  0  0  0
M  END
> <minimizedAffinity>
-7.69664

> <CNNscore>
0.3794290125

> <CNNaffinity>
6.8718042374

> <CNN_VS>
2.6073617935

> <CNNaffinity_variance>
0.2823952734

$$$$
[H]c1sc(-c2c([H])c([H])c3c(c2[H])C([H])([H])C([H])([H])O3)nc1C(=O)N([H])c1nc(SC([H])([H])C([H])([H])c2c([H])c([H])c([H])c([H])c2[H])nn1[H]


 33 37  0  0  0  0  0  0  0  0999 V2000
  -87.5016   34.8918   -2.7698 O   0  0  0  0  0  0  0  0  0  0  0  0
  -86.8451   33.8203   -2.3592 C   0  0  0  0  0  0  0  0  0  0  0  0
  -85.7287   34.0599   -1.6589 N   0  0  0  0  0  0  0  0  0  0  0  0
  -85.4840   35.1348   -1.5348 H   0  0  0  0  0  0  0  0  0  0  0  0
  -84.8459   33.2607   -0.9160 C   0  0  0  0  0  0  0  0  0  0  0  0
  -85.2320   32.3476    0.0351 N   0  0  0  0  0  0  0  0  0  0  0  0
  -84.1927   31.6907    0.5262 C   0  0  0  0  0  0  0  0  0  0  0  0
  -83.1196   32.1671   -0.0991 N   0  0  0  0  0  0  0  0  0  0  0  0
  -83.5247   33.1149   -0.9695 N   0  0  0  0  0  0  0  0  0  0  0  0
  -82.8177   33.5786   -1.5645 H   0  0  0  0  0  0  0  0  0  0  0  0
  -84.2145   30.3987    1.8012 S   0  0  0  0  0  0  0  0  0  0  0  0
  -85.8312   29.6348    1.9121 C   0  0  0  0  0  0  0  0  0  0  0  0
  -86.1441   28.9696    0.5756 C   0  0  0  0  0  0  0  0  0  0  0  0
  -87.0257   27.8184    0.8092 C   0  0  0  0  0  0  0  0  0  0  0  0
  -87.2765   26.8765   -0.1466 C   0  0  0  0  0  0  0  0  0  0  0  0
  -88.1161   25.8072    0.1302 C   0  0  0  0  0  0  0  0  0  0  0  0
  -88.7116   25.6692    1.3612 C   0  0  0  0  0  0  0  0  0  0  0  0
  -88.4619   26.6126    2.3220 C   0  0  0  0  0  0  0  0  0  0  0  0
  -87.6325   27.6724    2.0543 C   0  0  0  0  0  0  0  0  0  0  0  0
  -87.5360   32.5861   -2.7968 C   0  0  0  0  0  0  0  0  0  0  0  0
  -87.4877   32.1622   -4.1038 C   0  0  0  0  0  0  0  0  0  0  0  0
  -88.3870   30.7186   -4.0505 S   0  0  0  0  0  0  0  0  0  0  0  0
  -88.7765   30.7294   -2.3772 C   0  0  0  0  0  0  0  0  0  0  0  0
  -88.1959   31.8337   -1.9629 N   0  0  0  0  0  0  0  0  0  0  0  0
  -89.5640   29.7471   -1.6105 C   0  0  0  0  0  0  0  0  0  0  0  0
  -89.9217   30.0056   -0.3154 C   0  0  0  0  0  0  0  0  0  0  0  0
  -90.6748   29.0778    0.4203 C   0  0  0  0  0  0  0  0  0  0  0  0
  -91.0647   27.8851   -0.1627 C   0  0  0  0  0  0  0  0  0  0  0  0
  -91.8037   26.7924    0.3111 O   0  0  0  0  0  0  0  0  0  0  0  0
  -92.2625   26.0115   -0.7772 C   0  0  0  0  0  0  0  0  0  0  0  0
  -91.2410   26.2856   -1.8670 C   0  0  0  0  0  0  0  0  0  0  0  0
  -90.7032   27.6331   -1.4589 C   0  0  0  0  0  0  0  0  0  0  0  0
  -89.9550   28.5634   -2.1776 C   0  0  0  0  0  0  0  0  0  0  0  0
  1  2  2  0  0  0
  2  3  1  0  0  0
  3  5  1  0  0  0
  5  6  2  0  0  0
  6  7  1  0  0  0
  7 11  1  0  0  0
 11 12  1  0  0  0
 12 13  1  0  0  0
 13 14  1  0  0  0
 14 15  2  0  0  0
 15 16  1  0  0  0
 16 17  2  0  0  0
 17 18  1  0  0  0
 18 19  2  0  0  0
  7  8  2  0  0  0
  8  9  1  0  0  0
  2 20  1  0  0  0
 20 21  2  0  0  0
 21 22  1  0  0  0
 22 23  1  0  0  0
 23 24  2  0  0  0
 23 25  1  0  0  0
 25 26  2  0  0  0
 26 27  1  0  0  0
 27 28  2  0  0  0
 28 29  1  0  0  0
 29 30  1  0  0  0
 30 31  1  0  0  0
 31 32  1  0  0  0
 32 33  2  0  0  0
  9  5  1  0  0  0
 24 20  1  0  0  0
 33 25  1  0  0  0
 19 14  1  0  0  0
 32 28  1  0  0  0
  3  4  1  0  0  0
  9 10  1  0  0  0
M  END
> <minimizedAffinity>
-7.39481

> <CNNscore>
0.3484677374

> <CNNaffinity>
6.8563690186

> <CNN_VS>
2.3892233372

> <CNNaffinity_variance>
0.3423607349

$$$$
[H]c1sc(-c2c([H])c([H])c3c(c2[H])C([H])([H])C([H])([H])O3)nc1C(=O)N([H])c1nc(SC([H])([H])C([H])([H])c2c([H])c([H])c([H])c([H])c2[H])nn1[H]


 33 37  0  0  0  0  0  0  0  0999 V2000
  -82.2266   31.7640    0.3061 O   0  0  0  0  0  0  0  0  0  0  0  0
  -83.5428   31.6600    0.2397 C   0  0  0  0  0  0  0  0  0  0  0  0
  -84.1728   32.6754   -0.3653 N   0  0  0  0  0  0  0  0  0  0  0  0
  -83.5055   33.4908   -0.7126 H   0  0  0  0  0  0  0  0  0  0  0  0
  -85.4916   32.8978   -0.7911 C   0  0  0  0  0  0  0  0  0  0  0  0
  -85.8388   33.5736   -1.9358 N   0  0  0  0  0  0  0  0  0  0  0  0
  -87.1499   33.5728   -2.1201 C   0  0  0  0  0  0  0  0  0  0  0  0
  -87.6707   32.8969   -1.0997 N   0  0  0  0  0  0  0  0  0  0  0  0
  -86.6605   32.4921   -0.3023 N   0  0  0  0  0  0  0  0  0  0  0  0
  -86.8829   31.9260    0.5337 H   0  0  0  0  0  0  0  0  0  0  0  0
  -88.0659   34.3407   -3.4863 S   0  0  0  0  0  0  0  0  0  0  0  0
  -88.9417   33.1061   -4.4448 C   0  0  0  0  0  0  0  0  0  0  0  0
  -88.0270   31.8996   -4.6297 C   0  0  0  0  0  0  0  0  0  0  0  0
  -88.5600   30.7722   -3.8539 C   0  0  0  0  0  0  0  0  0  0  0  0
  -87.7593   29.8169   -3.2972 C   0  0  0  0  0  0  0  0  0  0  0  0
  -88.3172   28.7745   -2.5712 C   0  0  0  0  0  0  0  0  0  0  0  0
  -89.6768   28.6769   -2.3948 C   0  0  0  0  0  0  0  0  0  0  0  0
  -90.4826   29.6338   -2.9522 C   0  0  0  0  0  0  0  0  0  0  0  0
  -89.9367   30.6671   -3.6713 C   0  0  0  0  0  0  0  0  0  0  0  0
  -83.9993   30.4036    0.8764 C   0  0  0  0  0  0  0  0  0  0  0  0
  -83.2580   29.7854    1.8556 C   0  0  0  0  0  0  0  0  0  0  0  0
  -84.2298   28.4471    2.2558 S   0  0  0  0  0  0  0  0  0  0  0  0
  -85.5216   28.7413    1.1619 C   0  0  0  0  0  0  0  0  0  0  0  0
  -85.1314   29.8426    0.5593 N   0  0  0  0  0  0  0  0  0  0  0  0
  -86.7498   27.9525    0.9567 C   0  0  0  0  0  0  0  0  0  0  0  0
  -86.6750   26.6470    0.5540 C   0  0  0  0  0  0  0  0  0  0  0  0
  -87.8392   25.8877    0.3603 C   0  0  0  0  0  0  0  0  0  0  0  0
  -89.0813   26.4575    0.5767 C   0  0  0  0  0  0  0  0  0  0  0  0
  -90.3872   25.9600    0.4685 O   0  0  0  0  0  0  0  0  0  0  0  0
  -91.2838   26.8003    1.1718 C   0  0  0  0  0  0  0  0  0  0  0  0
  -90.5946   28.1534    1.1494 C   0  0  0  0  0  0  0  0  0  0  0  0
  -89.1485   27.7643    0.9794 C   0  0  0  0  0  0  0  0  0  0  0  0
  -87.9844   28.5066    1.1677 C   0  0  0  0  0  0  0  0  0  0  0  0
  1  2  2  0  0  0
  2  3  1  0  0  0
  3  5  1  0  0  0
  5  6  2  0  0  0
  6  7  1  0  0  0
  7 11  1  0  0  0
 11 12  1  0  0  0
 12 13  1  0  0  0
 13 14  1  0  0  0
 14 15  2  0  0  0
 15 16  1  0  0  0
 16 17  2  0  0  0
 17 18  1  0  0  0
 18 19  2  0  0  0
  7  8  2  0  0  0
  8  9  1  0  0  0
  2 20  1  0  0  0
 20 21  2  0  0  0
 21 22  1  0  0  0
 22 23  1  0  0  0
 23 24  2  0  0  0
 23 25  1  0  0  0
 25 26  2  0  0  0
 26 27  1  0  0  0
 27 28  2  0  0  0
 28 29  1  0  0  0
 29 30  1  0  0  0
 30 31  1  0  0  0
 31 32  1  0  0  0
 32 33  2  0  0  0
  9  5  1  0  0  0
 24 20  1  0  0  0
 33 25  1  0  0  0
 19 14  1  0  0  0
 32 28  1  0  0  0
  3  4  1  0  0  0
  9 10  1  0  0  0
M  END
> <minimizedAffinity>
-7.96398

> <CNNscore>
0.3439495265

> <CNNaffinity>
7.0469598770

> <CNN_VS>
2.4237985611

> <CNNaffinity_variance>
0.2518814206

$$$$
[H]c1sc(-c2c([H])c([H])c3c(c2[H])C([H])([H])C([H])([H])O3)nc1C(=O)N([H])c1nc(SC([H])([H])C([H])([H])c2c([H])c([H])c([H])c([H])c2[H])nn1[H]


 33 37  0  0  0  0  0  0  0  0999 V2000
  -84.4277   26.4585    2.5354 O   0  0  0  0  0  0  0  0  0  0  0  0
  -84.9201   27.6414    2.2098 C   0  0  0  0  0  0  0  0  0  0  0  0
  -84.1417   28.6915    2.5021 N   0  0  0  0  0  0  0  0  0  0  0  0
  -83.1882   28.4324    3.0065 H   0  0  0  0  0  0  0  0  0  0  0  0
  -84.1862   30.0608    2.1975 C   0  0  0  0  0  0  0  0  0  0  0  0
  -83.5912   30.6363    1.1010 N   0  0  0  0  0  0  0  0  0  0  0  0
  -83.8533   31.9323    1.0318 C   0  0  0  0  0  0  0  0  0  0  0  0
  -84.6216   32.2150    2.0803 N   0  0  0  0  0  0  0  0  0  0  0  0
  -84.8181   31.0773    2.7783 N   0  0  0  0  0  0  0  0  0  0  0  0
  -85.4189   31.1071    3.6192 H   0  0  0  0  0  0  0  0  0  0  0  0
  -83.2811   33.1010   -0.2338 S   0  0  0  0  0  0  0  0  0  0  0  0
  -84.5079   33.3000   -1.5242 C   0  0  0  0  0  0  0  0  0  0  0  0
  -85.7712   32.5527   -1.1092 C   0  0  0  0  0  0  0  0  0  0  0  0
  -86.9337   33.1917   -1.7395 C   0  0  0  0  0  0  0  0  0  0  0  0
  -86.8179   34.0772   -2.7720 C   0  0  0  0  0  0  0  0  0  0  0  0
  -87.9513   34.6489   -3.3320 C   0  0  0  0  0  0  0  0  0  0  0  0
  -89.2077   34.3423   -2.8669 C   0  0  0  0  0  0  0  0  0  0  0  0
  -89.3270   33.4543   -1.8311 C   0  0  0  0  0  0  0  0  0  0  0  0
  -88.2098   32.8855   -1.2733 C   0  0  0  0  0  0  0  0  0  0  0  0
  -86.2547   27.4966    1.5854 C   0  0  0  0  0  0  0  0  0  0  0  0
  -87.1839   26.6101    2.0765 C   0  0  0  0  0  0  0  0  0  0  0  0
  -88.5127   26.8690    1.0456 S   0  0  0  0  0  0  0  0  0  0  0  0
  -87.8209   28.0847    0.0479 C   0  0  0  0  0  0  0  0  0  0  0  0
  -86.6189   28.2178    0.5635 N   0  0  0  0  0  0  0  0  0  0  0  0
  -88.4276   28.7912   -1.0947 C   0  0  0  0  0  0  0  0  0  0  0  0
  -89.7832   28.9644   -1.1609 C   0  0  0  0  0  0  0  0  0  0  0  0
  -90.3687   29.6394   -2.2431 C   0  0  0  0  0  0  0  0  0  0  0  0
  -89.5736   30.1389   -3.2593 C   0  0  0  0  0  0  0  0  0  0  0  0
  -89.8657   30.8398   -4.4374 O   0  0  0  0  0  0  0  0  0  0  0  0
  -88.6942   31.4630   -4.9315 C   0  0  0  0  0  0  0  0  0  0  0  0
  -87.5737   30.5889   -4.3961 C   0  0  0  0  0  0  0  0  0  0  0  0
  -88.2180   29.9618   -3.1865 C   0  0  0  0  0  0  0  0  0  0  0  0
  -87.6501   29.2894   -2.1061 C   0  0  0  0  0  0  0  0  0  0  0  0
  1  2  2  0  0  0
  2  3  1  0  0  0
  3  5  1  0  0  0
  5  6  2  0  0  0
  6  7  1  0  0  0
  7 11  1  0  0  0
 11 12  1  0  0  0
 12 13  1  0  0  0
 13 14  1  0  0  0
 14 15  2  0  0  0
 15 16  1  0  0  0
 16 17  2  0  0  0
 17 18  1  0  0  0
 18 19  2  0  0  0
  7  8  2  0  0  0
  8  9  1  0  0  0
  2 20  1  0  0  0
 20 21  2  0  0  0
 21 22  1  0  0  0
 22 23  1  0  0  0
 23 24  2  0  0  0
 23 25  1  0  0  0
 25 26  2  0  0  0
 26 27  1  0  0  0
 27 28  2  0  0  0
 28 29  1  0  0  0
 29 30  1  0  0  0
 30 31  1  0  0  0
 31 32  1  0  0  0
 32 33  2  0  0  0
  9  5  1  0  0  0
 24 20  1  0  0  0
 33 25  1  0  0  0
 19 14  1  0  0  0
 32 28  1  0  0  0
  3  4  1  0  0  0
  9 10  1  0  0  0
M  END
> <minimizedAffinity>
-8.03402

> <CNNscore>
0.2843858600

> <CNNaffinity>
7.0402045250

> <CNN_VS>
2.0021345615

> <CNNaffinity_variance>
0.2734546959

$$$$
[H]Cl.[H]c1nc(N([H])C([H])(c2c([H])c([H])c([H])c([H])c2[H])C([H])([H])N([H])[H])nc(-c2nn([H])c3nc(N([H])C([H])([H])C([H])([H])N4C([H])([H])C([H])([H])OC([H])([H])C4([H])[H])nc([H])c23)c1[H]


 39 43  0  0  0  0  0  0  0  0999 V2000
  -83.6647   30.7690    0.7744 C   0  0  0  0  0  0  0  0  0  0  0  0
  -82.4376   31.3782    0.7738 N   0  0  0  0  0  0  0  0  0  0  0  0
  -82.4839   32.4892    0.1012 N   0  0  0  0  0  0  0  0  0  0  0  0
  -83.7345   32.6517   -0.3633 C   0  0  0  0  0  0  0  0  0  0  0  0
  -84.3674   33.5886   -1.1111 N   0  0  0  0  0  0  0  0  0  0  0  0
  -85.6626   33.4856   -1.4379 C   0  0  0  0  0  0  0  0  0  0  0  0
  -86.3979   32.4376   -1.0345 N   0  0  0  0  0  0  0  0  0  0  0  0
  -85.8130   31.4637   -0.2789 C   0  0  0  0  0  0  0  0  0  0  0  0
  -84.4911   31.5627    0.0594 C   0  0  0  0  0  0  0  0  0  0  0  0
  -81.6915   33.1569   -0.0615 H   0  0  0  0  0  0  0  0  0  0  0  0
  -85.3715   27.6800    1.9693 C   0  0  0  0  0  0  0  0  0  0  0  0
  -84.3286   27.0973    2.6472 N   0  0  0  0  0  0  0  0  0  0  0  0
  -83.1310   27.6636    2.7335 C   0  0  0  0  0  0  0  0  0  0  0  0
  -82.8695   28.8707    2.1451 C   0  0  0  0  0  0  0  0  0  0  0  0
  -83.9116   29.4883    1.4468 C   0  0  0  0  0  0  0  0  0  0  0  0
  -85.0834   28.8666    1.4008 N   0  0  0  0  0  0  0  0  0  0  0  0
  -86.6124   27.0162    1.8996 N   0  0  0  0  0  0  0  0  0  0  0  0
  -87.1570   26.8889    2.7765 H   0  0  0  0  0  0  0  0  0  0  0  0
  -87.1492   26.5144    0.6829 C   0  0  0  0  0  0  0  0  0  0  0  0
  -87.6451   27.6116   -0.2088 C   0  0  0  0  0  0  0  0  0  0  0  0
  -87.1901   27.8085   -1.4950 C   0  0  0  0  0  0  0  0  0  0  0  0
  -87.6877   28.8716   -2.2482 C   0  0  0  0  0  0  0  0  0  0  0  0
  -88.6267   29.7296   -1.7303 C   0  0  0  0  0  0  0  0  0  0  0  0
  -89.0880   29.5354   -0.4359 C   0  0  0  0  0  0  0  0  0  0  0  0
  -88.5804   28.4766    0.2895 C   0  0  0  0  0  0  0  0  0  0  0  0
  -88.5468   24.6215   -0.0418 N   0  0  0  0  0  0  0  0  0  0  0  0
  -88.3924   25.6553    0.9333 C   0  0  0  0  0  0  0  0  0  0  0  0
  -89.0929   24.8725   -0.8753 H   0  0  0  0  0  0  0  0  0  0  0  0
  -88.8370   23.7196    0.3991 H   0  0  0  0  0  0  0  0  0  0  0  0
  -86.2269   34.5443   -2.2330 N   0  0  0  0  0  0  0  0  0  0  0  0
  -85.7474   35.4675   -2.3196 H   0  0  0  0  0  0  0  0  0  0  0  0
  -87.4678   34.3664   -2.9334 C   0  0  0  0  0  0  0  0  0  0  0  0
  -87.4134   34.7892   -4.3509 C   0  0  0  0  0  0  0  0  0  0  0  0
  -87.6573   36.1144   -4.6978 N   0  0  0  0  0  0  0  0  0  0  0  0
  -87.0579   36.7633   -5.7798 C   0  0  0  0  0  0  0  0  0  0  0  0
  -86.0906   37.8586   -5.3867 C   0  0  0  0  0  0  0  0  0  0  0  0
  -86.4525   38.5094   -4.2338 O   0  0  0  0  0  0  0  0  0  0  0  0
  -87.7836   38.3940   -3.8979 C   0  0  0  0  0  0  0  0  0  0  0  0
  -88.2274   36.9642   -3.7032 C   0  0  0  0  0  0  0  0  0  0  0  0
 26 27  1  0  0  0
 27 19  1  0  0  0
 19 17  1  0  0  0
 17 11  1  0  0  0
 11 12  2  0  0  0
 12 13  1  0  0  0
 13 14  2  0  0  0
 14 15  1  0  0  0
 15 16  2  0  0  0
 15  1  1  0  0  0
  1  2  2  0  0  0
  2  3  1  0  0  0
  3  4  1  0  0  0
  4  5  2  0  0  0
  5  6  1  0  0  0
  6 30  1  0  0  0
 30 32  1  0  0  0
 32 33  1  0  0  0
 33 34  1  0  0  0
 34 35  1  0  0  0
 35 36  1  0  0  0
 36 37  1  0  0  0
 37 38  1  0  0  0
 38 39  1  0  0  0
  6  7  2  0  0  0
  7  8  1  0  0  0
  8  9  2  0  0  0
 19 20  1  0  0  0
 20 21  2  0  0  0
 21 22  1  0  0  0
 22 23  2  0  0  0
 23 24  1  0  0  0
 24 25  2  0  0  0
 16 11  1  0  0  0
  9  1  1  0  0  0
 25 20  1  0  0  0
  9  4  1  0  0  0
 39 34  1  0  0  0
 26 28  1  0  0  0
 26 29  1  0  0  0
 17 18  1  0  0  0
  3 10  1  0  0  0
 30 31  1  0  0  0
M  END
> <minimizedAffinity>
-9.23209

> <CNNscore>
0.9915559292

> <CNNaffinity>
8.0427989960

> <CNN_VS>
7.9748849869

> <CNNaffinity_variance>
0.1684804857

$$$$
[H]Cl.[H]c1nc(N([H])C([H])(c2c([H])c([H])c([H])c([H])c2[H])C([H])([H])N([H])[H])nc(-c2nn([H])c3nc(N([H])C([H])([H])C([H])([H])N4C([H])([H])C([H])([H])OC([H])([H])C4([H])[H])nc([H])c23)c1[H]


 39 43  0  0  0  0  0  0  0  0999 V2000
  -83.9722   30.7835    0.7674 C   0  0  0  0  0  0  0  0  0  0  0  0
  -82.8306   31.5396    0.7236 N   0  0  0  0  0  0  0  0  0  0  0  0
  -83.0370   32.6332    0.0527 N   0  0  0  0  0  0  0  0  0  0  0  0
  -84.3135   32.6379   -0.3679 C   0  0  0  0  0  0  0  0  0  0  0  0
  -85.0829   33.4860   -1.0933 N   0  0  0  0  0  0  0  0  0  0  0  0
  -86.3660   33.2224   -1.3745 C   0  0  0  0  0  0  0  0  0  0  0  0
  -86.9518   32.0936   -0.9452 N   0  0  0  0  0  0  0  0  0  0  0  0
  -86.2251   31.2029   -0.2102 C   0  0  0  0  0  0  0  0  0  0  0  0
  -84.9146   31.4659    0.0815 C   0  0  0  0  0  0  0  0  0  0  0  0
  -82.3393   33.3928   -0.1380 H   0  0  0  0  0  0  0  0  0  0  0  0
  -85.2399   27.5105    2.0177 C   0  0  0  0  0  0  0  0  0  0  0  0
  -84.1119   27.0669    2.6638 N   0  0  0  0  0  0  0  0  0  0  0  0
  -82.9930   27.7796    2.7126 C   0  0  0  0  0  0  0  0  0  0  0  0
  -82.9033   29.0071    2.1150 C   0  0  0  0  0  0  0  0  0  0  0  0
  -84.0355   29.4853    1.4485 C   0  0  0  0  0  0  0  0  0  0  0  0
  -85.1207   28.7211    1.4393 N   0  0  0  0  0  0  0  0  0  0  0  0
  -86.3891   26.6957    1.9870 N   0  0  0  0  0  0  0  0  0  0  0  0
  -86.2794   25.6764    2.1625 H   0  0  0  0  0  0  0  0  0  0  0  0
  -87.6889   27.2084    1.7265 C   0  0  0  0  0  0  0  0  0  0  0  0
  -88.6384   26.9348    2.8527 C   0  0  0  0  0  0  0  0  0  0  0  0
  -88.9794   25.6650    3.2667 C   0  0  0  0  0  0  0  0  0  0  0  0
  -89.8922   25.5002    4.3081 C   0  0  0  0  0  0  0  0  0  0  0  0
  -90.4602   26.5840    4.9317 C   0  0  0  0  0  0  0  0  0  0  0  0
  -90.1201   27.8644    4.5185 C   0  0  0  0  0  0  0  0  0  0  0  0
  -89.2147   28.0018    3.4859 C   0  0  0  0  0  0  0  0  0  0  0  0
  -87.5751   25.3860    0.0750 N   0  0  0  0  0  0  0  0  0  0  0  0
  -88.3341   26.5104    0.5252 C   0  0  0  0  0  0  0  0  0  0  0  0
  -86.8610   25.5858   -0.6365 H   0  0  0  0  0  0  0  0  0  0  0  0
  -88.1927   24.5766   -0.1603 H   0  0  0  0  0  0  0  0  0  0  0  0
  -87.0840   34.1996   -2.1497 N   0  0  0  0  0  0  0  0  0  0  0  0
  -86.6346   35.0979   -2.4342 H   0  0  0  0  0  0  0  0  0  0  0  0
  -88.4420   33.9722   -2.5575 C   0  0  0  0  0  0  0  0  0  0  0  0
  -88.6607   34.1466   -4.0110 C   0  0  0  0  0  0  0  0  0  0  0  0
  -88.6215   35.4161   -4.5791 N   0  0  0  0  0  0  0  0  0  0  0  0
  -87.6584   35.8313   -5.5018 C   0  0  0  0  0  0  0  0  0  0  0  0
  -86.7113   36.8877   -4.9755 C   0  0  0  0  0  0  0  0  0  0  0  0
  -87.3013   37.7417   -4.0776 O   0  0  0  0  0  0  0  0  0  0  0  0
  -88.6762   37.7960   -4.1484 C   0  0  0  0  0  0  0  0  0  0  0  0
  -89.3381   36.4587   -3.9188 C   0  0  0  0  0  0  0  0  0  0  0  0
 26 27  1  0  0  0
 27 19  1  0  0  0
 19 17  1  0  0  0
 17 11  1  0  0  0
 11 12  2  0  0  0
 12 13  1  0  0  0
 13 14  2  0  0  0
 14 15  1  0  0  0
 15 16  2  0  0  0
 15  1  1  0  0  0
  1  2  2  0  0  0
  2  3  1  0  0  0
  3  4  1  0  0  0
  4  5  2  0  0  0
  5  6  1  0  0  0
  6 30  1  0  0  0
 30 32  1  0  0  0
 32 33  1  0  0  0
 33 34  1  0  0  0
 34 35  1  0  0  0
 35 36  1  0  0  0
 36 37  1  0  0  0
 37 38  1  0  0  0
 38 39  1  0  0  0
  6  7  2  0  0  0
  7  8  1  0  0  0
  8  9  2  0  0  0
 19 20  1  0  0  0
 20 21  2  0  0  0
 21 22  1  0  0  0
 22 23  2  0  0  0
 23 24  1  0  0  0
 24 25  2  0  0  0
 16 11  1  0  0  0
  9  1  1  0  0  0
 25 20  1  0  0  0
  9  4  1  0  0  0
 39 34  1  0  0  0
 26 28  1  0  0  0
 26 29  1  0  0  0
 17 18  1  0  0  0
  3 10  1  0  0  0
 30 31  1  0  0  0
M  END
> <minimizedAffinity>
-9.49564

> <CNNscore>
0.9871776700

> <CNNaffinity>
8.0351428986

> <CNN_VS>
7.9321136475

> <CNNaffinity_variance>
0.0417779349

$$$$
[H]Cl.[H]c1nc(N([H])C([H])(c2c([H])c([H])c([H])c([H])c2[H])C([H])([H])N([H])[H])nc(-c2nn([H])c3nc(N([H])C([H])([H])C([H])([H])N4C([H])([H])C([H])([H])OC([H])([H])C4([H])[H])nc([H])c23)c1[H]


 39 43  0  0  0  0  0  0  0  0999 V2000
  -83.8994   30.8204    0.7070 C   0  0  0  0  0  0  0  0  0  0  0  0
  -82.7172   31.5115    0.6666 N   0  0  0  0  0  0  0  0  0  0  0  0
  -82.8595   32.6133   -0.0078 N   0  0  0  0  0  0  0  0  0  0  0  0
  -84.1319   32.6880   -0.4341 C   0  0  0  0  0  0  0  0  0  0  0  0
  -84.8496   33.5758   -1.1649 N   0  0  0  0  0  0  0  0  0  0  0  0
  -86.1442   33.3834   -1.4513 C   0  0  0  0  0  0  0  0  0  0  0  0
  -86.7938   32.2900   -1.0221 N   0  0  0  0  0  0  0  0  0  0  0  0
  -86.1212   31.3621   -0.2817 C   0  0  0  0  0  0  0  0  0  0  0  0
  -84.7993   31.5524    0.0153 C   0  0  0  0  0  0  0  0  0  0  0  0
  -82.1197   33.3323   -0.1970 H   0  0  0  0  0  0  0  0  0  0  0  0
  -85.3416   27.6105    1.9316 C   0  0  0  0  0  0  0  0  0  0  0  0
  -84.2530   27.1226    2.6124 N   0  0  0  0  0  0  0  0  0  0  0  0
  -83.1066   27.7874    2.6916 C   0  0  0  0  0  0  0  0  0  0  0  0
  -82.9472   29.0069    2.0923 C   0  0  0  0  0  0  0  0  0  0  0  0
  -84.0380   29.5295    1.3908 C   0  0  0  0  0  0  0  0  0  0  0  0
  -85.1539   28.8120    1.3524 N   0  0  0  0  0  0  0  0  0  0  0  0
  -86.5230   26.8450    1.8699 N   0  0  0  0  0  0  0  0  0  0  0  0
  -86.6329   26.0483    2.5294 H   0  0  0  0  0  0  0  0  0  0  0  0
  -87.5681   27.1163    0.9455 C   0  0  0  0  0  0  0  0  0  0  0  0
  -88.8158   27.5873    1.6283 C   0  0  0  0  0  0  0  0  0  0  0  0
  -89.8173   28.2821    0.9846 C   0  0  0  0  0  0  0  0  0  0  0  0
  -90.9350   28.7060    1.7028 C   0  0  0  0  0  0  0  0  0  0  0  0
  -91.0573   28.4429    3.0452 C   0  0  0  0  0  0  0  0  0  0  0  0
  -90.0518   27.7437    3.6977 C   0  0  0  0  0  0  0  0  0  0  0  0
  -88.9555   27.3349    2.9655 C   0  0  0  0  0  0  0  0  0  0  0  0
  -87.8891   25.9657   -1.2072 N   0  0  0  0  0  0  0  0  0  0  0  0
  -88.0087   25.8458    0.2121 C   0  0  0  0  0  0  0  0  0  0  0  0
  -88.7154   26.3335   -1.6950 H   0  0  0  0  0  0  0  0  0  0  0  0
  -87.4980   25.0954   -1.6334 H   0  0  0  0  0  0  0  0  0  0  0  0
  -86.8031   34.3971   -2.2320 N   0  0  0  0  0  0  0  0  0  0  0  0
  -86.3089   35.2762   -2.5013 H   0  0  0  0  0  0  0  0  0  0  0  0
  -88.1621   34.2335   -2.6664 C   0  0  0  0  0  0  0  0  0  0  0  0
  -88.2840   33.6768   -4.0325 C   0  0  0  0  0  0  0  0  0  0  0  0
  -88.6351   32.3433   -4.2181 N   0  0  0  0  0  0  0  0  0  0  0  0
  -89.8784   31.8064   -3.8759 C   0  0  0  0  0  0  0  0  0  0  0  0
  -89.8337   30.8250   -2.7249 C   0  0  0  0  0  0  0  0  0  0  0  0
  -88.6697   30.0992   -2.6800 O   0  0  0  0  0  0  0  0  0  0  0  0
  -87.9779   30.0413   -3.8700 C   0  0  0  0  0  0  0  0  0  0  0  0
  -87.5792   31.3997   -4.3944 C   0  0  0  0  0  0  0  0  0  0  0  0
 26 27  1  0  0  0
 27 19  1  0  0  0
 19 17  1  0  0  0
 17 11  1  0  0  0
 11 12  2  0  0  0
 12 13  1  0  0  0
 13 14  2  0  0  0
 14 15  1  0  0  0
 15 16  2  0  0  0
 15  1  1  0  0  0
  1  2  2  0  0  0
  2  3  1  0  0  0
  3  4  1  0  0  0
  4  5  2  0  0  0
  5  6  1  0  0  0
  6 30  1  0  0  0
 30 32  1  0  0  0
 32 33  1  0  0  0
 33 34  1  0  0  0
 34 35  1  0  0  0
 35 36  1  0  0  0
 36 37  1  0  0  0
 37 38  1  0  0  0
 38 39  1  0  0  0
  6  7  2  0  0  0
  7  8  1  0  0  0
  8  9  2  0  0  0
 19 20  1  0  0  0
 20 21  2  0  0  0
 21 22  1  0  0  0
 22 23  2  0  0  0
 23 24  1  0  0  0
 24 25  2  0  0  0
 16 11  1  0  0  0
  9  1  1  0  0  0
 25 20  1  0  0  0
  9  4  1  0  0  0
 39 34  1  0  0  0
 26 28  1  0  0  0
 26 29  1  0  0  0
 17 18  1  0  0  0
  3 10  1  0  0  0
 30 31  1  0  0  0
M  END
> <minimizedAffinity>
-9.62414

> <CNNscore>
0.9863649011

> <CNNaffinity>
8.1288890839

> <CNN_VS>
8.0180511475

> <CNNaffinity_variance>
0.0880691409

$$$$
[H]Cl.[H]c1nc(N([H])C([H])(c2c([H])c([H])c([H])c([H])c2[H])C([H])([H])N([H])[H])nc(-c2nn([H])c3nc(N([H])C([H])([H])C([H])([H])N4C([H])([H])C([H])([H])OC([H])([H])C4([H])[H])nc([H])c23)c1[H]


 39 43  0  0  0  0  0  0  0  0999 V2000
  -83.7709   30.8396    0.7636 C   0  0  0  0  0  0  0  0  0  0  0  0
  -82.5718   31.5022    0.7637 N   0  0  0  0  0  0  0  0  0  0  0  0
  -82.6662   32.6097    0.0905 N   0  0  0  0  0  0  0  0  0  0  0  0
  -83.9223   32.7168   -0.3753 C   0  0  0  0  0  0  0  0  0  0  0  0
  -84.5951   33.6246   -1.1242 N   0  0  0  0  0  0  0  0  0  0  0  0
  -85.8843   33.4646   -1.4521 C   0  0  0  0  0  0  0  0  0  0  0  0
  -86.5732   32.3855   -1.0487 N   0  0  0  0  0  0  0  0  0  0  0  0
  -85.9467   31.4387   -0.2920 C   0  0  0  0  0  0  0  0  0  0  0  0
  -84.6307   31.5959    0.0474 C   0  0  0  0  0  0  0  0  0  0  0  0
  -81.9038   33.3114   -0.0719 H   0  0  0  0  0  0  0  0  0  0  0  0
  -85.3561   27.7012    1.9967 C   0  0  0  0  0  0  0  0  0  0  0  0
  -84.2765   27.1428    2.6364 N   0  0  0  0  0  0  0  0  0  0  0  0
  -83.0918   27.7399    2.6864 C   0  0  0  0  0  0  0  0  0  0  0  0
  -82.8815   28.9562    2.0964 C   0  0  0  0  0  0  0  0  0  0  0  0
  -83.9619   29.5496    1.4365 C   0  0  0  0  0  0  0  0  0  0  0  0
  -85.1180   28.8977    1.4257 N   0  0  0  0  0  0  0  0  0  0  0  0
  -86.5809   27.0054    1.9643 N   0  0  0  0  0  0  0  0  0  0  0  0
  -87.0954   26.8647    2.8572 H   0  0  0  0  0  0  0  0  0  0  0  0
  -87.1409   26.4891    0.7642 C   0  0  0  0  0  0  0  0  0  0  0  0
  -87.6666   27.5746   -0.1247 C   0  0  0  0  0  0  0  0  0  0  0  0
  -88.6378   28.4716    0.2655 C   0  0  0  0  0  0  0  0  0  0  0  0
  -89.0889   29.4360   -0.6352 C   0  0  0  0  0  0  0  0  0  0  0  0
  -88.5811   29.5094   -1.9092 C   0  0  0  0  0  0  0  0  0  0  0  0
  -87.6031   28.6087   -2.3067 C   0  0  0  0  0  0  0  0  0  0  0  0
  -87.1732   27.6634   -1.3975 C   0  0  0  0  0  0  0  0  0  0  0  0
  -88.5947   24.6413    0.0338 N   0  0  0  0  0  0  0  0  0  0  0  0
  -88.3705   25.6214    1.0498 C   0  0  0  0  0  0  0  0  0  0  0  0
  -89.1925   24.9377   -0.7478 H   0  0  0  0  0  0  0  0  0  0  0  0
  -88.8612   23.7181    0.4446 H   0  0  0  0  0  0  0  0  0  0  0  0
  -86.4937   34.4970   -2.2483 N   0  0  0  0  0  0  0  0  0  0  0  0
  -86.5825   35.4731   -1.8890 H   0  0  0  0  0  0  0  0  0  0  0  0
  -87.0002   34.2193   -3.5630 C   0  0  0  0  0  0  0  0  0  0  0  0
  -88.4707   34.3498   -3.6708 C   0  0  0  0  0  0  0  0  0  0  0  0
  -89.2389   33.2811   -4.1220 N   0  0  0  0  0  0  0  0  0  0  0  0
  -89.7090   33.1528   -5.4311 C   0  0  0  0  0  0  0  0  0  0  0  0
  -91.2111   33.2789   -5.5648 C   0  0  0  0  0  0  0  0  0  0  0  0
  -91.8920   32.7934   -4.4765 O   0  0  0  0  0  0  0  0  0  0  0  0
  -91.1824   31.9039   -3.6998 C   0  0  0  0  0  0  0  0  0  0  0  0
  -89.9057   32.4858   -3.1426 C   0  0  0  0  0  0  0  0  0  0  0  0
 26 27  1  0  0  0
 27 19  1  0  0  0
 19 17  1  0  0  0
 17 11  1  0  0  0
 11 12  2  0  0  0
 12 13  1  0  0  0
 13 14  2  0  0  0
 14 15  1  0  0  0
 15 16  2  0  0  0
 15  1  1  0  0  0
  1  2  2  0  0  0
  2  3  1  0  0  0
  3  4  1  0  0  0
  4  5  2  0  0  0
  5  6  1  0  0  0
  6 30  1  0  0  0
 30 32  1  0  0  0
 32 33  1  0  0  0
 33 34  1  0  0  0
 34 35  1  0  0  0
 35 36  1  0  0  0
 36 37  1  0  0  0
 37 38  1  0  0  0
 38 39  1  0  0  0
  6  7  2  0  0  0
  7  8  1  0  0  0
  8  9  2  0  0  0
 19 20  1  0  0  0
 20 21  2  0  0  0
 21 22  1  0  0  0
 22 23  2  0  0  0
 23 24  1  0  0  0
 24 25  2  0  0  0
 16 11  1  0  0  0
  9  1  1  0  0  0
 25 20  1  0  0  0
  9  4  1  0  0  0
 39 34  1  0  0  0
 26 28  1  0  0  0
 26 29  1  0  0  0
 17 18  1  0  0  0
  3 10  1  0  0  0
 30 31  1  0  0  0
M  END
> <minimizedAffinity>
-8.98337

> <CNNscore>
0.9802024961

> <CNNaffinity>
8.0645771027

> <CNN_VS>
7.9049186707

> <CNNaffinity_variance>
0.1271191388

$$$$
[H]Cl.[H]c1nc(N([H])C([H])(c2c([H])c([H])c([H])c([H])c2[H])C([H])([H])N([H])[H])nc(-c2nn([H])c3nc(N([H])C([H])([H])C([H])([H])N4C([H])([H])C([H])([H])OC([H])([H])C4([H])[H])nc([H])c23)c1[H]


 39 43  0  0  0  0  0  0  0  0999 V2000
  -84.9540   31.8410   -0.0989 C   0  0  0  0  0  0  0  0  0  0  0  0
  -83.9185   32.6368   -0.5127 N   0  0  0  0  0  0  0  0  0  0  0  0
  -84.3544   33.5741   -1.3003 N   0  0  0  0  0  0  0  0  0  0  0  0
  -85.6840   33.4311   -1.4340 C   0  0  0  0  0  0  0  0  0  0  0  0
  -86.6573   34.0867   -2.1125 N   0  0  0  0  0  0  0  0  0  0  0  0
  -87.9410   33.7059   -2.0651 C   0  0  0  0  0  0  0  0  0  0  0  0
  -88.3230   32.6461   -1.3353 N   0  0  0  0  0  0  0  0  0  0  0  0
  -87.3856   31.9482   -0.6313 C   0  0  0  0  0  0  0  0  0  0  0  0
  -86.0730   32.3318   -0.6743 C   0  0  0  0  0  0  0  0  0  0  0  0
  -83.7816   34.3220   -1.7615 H   0  0  0  0  0  0  0  0  0  0  0  0
  -85.6480   28.8149    1.9613 C   0  0  0  0  0  0  0  0  0  0  0  0
  -84.3718   28.5379    2.3871 N   0  0  0  0  0  0  0  0  0  0  0  0
  -83.3295   29.2855    2.0450 C   0  0  0  0  0  0  0  0  0  0  0  0
  -83.4729   30.3831    1.2411 C   0  0  0  0  0  0  0  0  0  0  0  0
  -84.7605   30.6902    0.7908 C   0  0  0  0  0  0  0  0  0  0  0  0
  -85.7571   29.9006    1.1715 N   0  0  0  0  0  0  0  0  0  0  0  0
  -86.7077   27.9694    2.3453 N   0  0  0  0  0  0  0  0  0  0  0  0
  -87.0802   28.0491    3.3131 H   0  0  0  0  0  0  0  0  0  0  0  0
  -87.2871   27.0142    1.4665 C   0  0  0  0  0  0  0  0  0  0  0  0
  -87.9414   27.6609    0.2840 C   0  0  0  0  0  0  0  0  0  0  0  0
  -87.4784   27.5266   -1.0074 C   0  0  0  0  0  0  0  0  0  0  0  0
  -88.1337   28.1849   -2.0477 C   0  0  0  0  0  0  0  0  0  0  0  0
  -89.2366   28.9675   -1.8087 C   0  0  0  0  0  0  0  0  0  0  0  0
  -89.7067   29.1057   -0.5104 C   0  0  0  0  0  0  0  0  0  0  0  0
  -89.0412   28.4447    0.5021 C   0  0  0  0  0  0  0  0  0  0  0  0
  -88.8687   25.1296    1.3760 N   0  0  0  0  0  0  0  0  0  0  0  0
  -88.4286   26.2510    2.1453 C   0  0  0  0  0  0  0  0  0  0  0  0
  -89.6198   25.3190    0.7008 H   0  0  0  0  0  0  0  0  0  0  0  0
  -89.0429   24.2952    1.9805 H   0  0  0  0  0  0  0  0  0  0  0  0
  -88.8860   34.4817   -2.8244 N   0  0  0  0  0  0  0  0  0  0  0  0
  -89.8678   34.1538   -2.9592 H   0  0  0  0  0  0  0  0  0  0  0  0
  -88.5101   35.7322   -3.4221 C   0  0  0  0  0  0  0  0  0  0  0  0
  -88.4673   35.6923   -4.9011 C   0  0  0  0  0  0  0  0  0  0  0  0
  -88.1573   36.8391   -5.6254 N   0  0  0  0  0  0  0  0  0  0  0  0
  -88.9863   37.9603   -5.7084 C   0  0  0  0  0  0  0  0  0  0  0  0
  -89.5769   38.1936   -7.0819 C   0  0  0  0  0  0  0  0  0  0  0  0
  -88.7430   37.8053   -8.1005 O   0  0  0  0  0  0  0  0  0  0  0  0
  -87.4126   37.7120   -7.7551 C   0  0  0  0  0  0  0  0  0  0  0  0
  -87.1548   36.7328   -6.6353 C   0  0  0  0  0  0  0  0  0  0  0  0
 26 27  1  0  0  0
 27 19  1  0  0  0
 19 17  1  0  0  0
 17 11  1  0  0  0
 11 12  2  0  0  0
 12 13  1  0  0  0
 13 14  2  0  0  0
 14 15  1  0  0  0
 15 16  2  0  0  0
 15  1  1  0  0  0
  1  2  2  0  0  0
  2  3  1  0  0  0
  3  4  1  0  0  0
  4  5  2  0  0  0
  5  6  1  0  0  0
  6 30  1  0  0  0
 30 32  1  0  0  0
 32 33  1  0  0  0
 33 34  1  0  0  0
 34 35  1  0  0  0
 35 36  1  0  0  0
 36 37  1  0  0  0
 37 38  1  0  0  0
 38 39  1  0  0  0
  6  7  2  0  0  0
  7  8  1  0  0  0
  8  9  2  0  0  0
 19 20  1  0  0  0
 20 21  2  0  0  0
 21 22  1  0  0  0
 22 23  2  0  0  0
 23 24  1  0  0  0
 24 25  2  0  0  0
 16 11  1  0  0  0
  9  1  1  0  0  0
 25 20  1  0  0  0
  9  4  1  0  0  0
 39 34  1  0  0  0
 26 28  1  0  0  0
 26 29  1  0  0  0
 17 18  1  0  0  0
  3 10  1  0  0  0
 30 31  1  0  0  0
M  END
> <minimizedAffinity>
-8.01134

> <CNNscore>
0.7920351028

> <CNNaffinity>
7.4304289818

> <CNN_VS>
5.8851604462

> <CNNaffinity_variance>
0.2949090004

$$$$
[H]Cl.[H]c1nc(N([H])C([H])(c2c([H])c([H])c([H])c([H])c2[H])C([H])([H])N([H])[H])nc(-c2nn([H])c3nc(N([H])C([H])([H])C([H])([H])N4C([H])([H])C([H])([H])OC([H])([H])C4([H])[H])nc([H])c23)c1[H]


 39 43  0  0  0  0  0  0  0  0999 V2000
  -84.8598   29.5607    1.0404 C   0  0  0  0  0  0  0  0  0  0  0  0
  -84.2265   29.1285    2.1757 N   0  0  0  0  0  0  0  0  0  0  0  0
  -84.6473   27.9442    2.5062 N   0  0  0  0  0  0  0  0  0  0  0  0
  -85.5674   27.5552    1.6072 C   0  0  0  0  0  0  0  0  0  0  0  0
  -86.3373   26.4527    1.4361 N   0  0  0  0  0  0  0  0  0  0  0  0
  -87.2012   26.3362    0.4186 C   0  0  0  0  0  0  0  0  0  0  0  0
  -87.3434   27.3179   -0.4856 N   0  0  0  0  0  0  0  0  0  0  0  0
  -86.5936   28.4512   -0.3633 C   0  0  0  0  0  0  0  0  0  0  0  0
  -85.7088   28.5768    0.6726 C   0  0  0  0  0  0  0  0  0  0  0  0
  -84.3341   27.3748    3.3295 H   0  0  0  0  0  0  0  0  0  0  0  0
  -85.3850   32.9675   -0.3740 C   0  0  0  0  0  0  0  0  0  0  0  0
  -84.0782   33.3093   -0.6228 N   0  0  0  0  0  0  0  0  0  0  0  0
  -83.0665   32.4898   -0.3633 C   0  0  0  0  0  0  0  0  0  0  0  0
  -83.2745   31.2481    0.1719 C   0  0  0  0  0  0  0  0  0  0  0  0
  -84.5948   30.8719    0.4373 C   0  0  0  0  0  0  0  0  0  0  0  0
  -85.5577   31.7400    0.1529 N   0  0  0  0  0  0  0  0  0  0  0  0
  -86.4107   33.8919   -0.6548 N   0  0  0  0  0  0  0  0  0  0  0  0
  -86.5307   34.7076   -0.0208 H   0  0  0  0  0  0  0  0  0  0  0  0
  -87.2861   33.7556   -1.7664 C   0  0  0  0  0  0  0  0  0  0  0  0
  -88.1456   32.5331   -1.6599 C   0  0  0  0  0  0  0  0  0  0  0  0
  -89.0603   32.3340   -0.6481 C   0  0  0  0  0  0  0  0  0  0  0  0
  -89.8022   31.1537   -0.6106 C   0  0  0  0  0  0  0  0  0  0  0  0
  -89.6380   30.1818   -1.5670 C   0  0  0  0  0  0  0  0  0  0  0  0
  -88.7183   30.3776   -2.5877 C   0  0  0  0  0  0  0  0  0  0  0  0
  -87.9961   31.5537   -2.6032 C   0  0  0  0  0  0  0  0  0  0  0  0
  -86.5915   34.6703   -3.9440 N   0  0  0  0  0  0  0  0  0  0  0  0
  -86.5070   33.5439   -3.0681 C   0  0  0  0  0  0  0  0  0  0  0  0
  -87.3760   34.6615   -4.6077 H   0  0  0  0  0  0  0  0  0  0  0  0
  -85.6676   34.8841   -4.3830 H   0  0  0  0  0  0  0  0  0  0  0  0
  -87.9622   25.1173    0.3378 N   0  0  0  0  0  0  0  0  0  0  0  0
  -87.4891   24.1922    0.2365 H   0  0  0  0  0  0  0  0  0  0  0  0
  -89.3970   25.1326    0.3936 C   0  0  0  0  0  0  0  0  0  0  0  0
  -89.9340   25.5878    1.6957 C   0  0  0  0  0  0  0  0  0  0  0  0
  -89.9002   26.9365    2.0358 N   0  0  0  0  0  0  0  0  0  0  0  0
  -89.4297   27.4240    3.2574 C   0  0  0  0  0  0  0  0  0  0  0  0
  -90.5020   28.0294    4.1370 C   0  0  0  0  0  0  0  0  0  0  0  0
  -91.5016   28.6428    3.4239 O   0  0  0  0  0  0  0  0  0  0  0  0
  -91.1596   28.9994    2.1379 C   0  0  0  0  0  0  0  0  0  0  0  0
  -90.7276   27.8279    1.2894 C   0  0  0  0  0  0  0  0  0  0  0  0
 26 27  1  0  0  0
 27 19  1  0  0  0
 19 17  1  0  0  0
 17 11  1  0  0  0
 11 12  2  0  0  0
 12 13  1  0  0  0
 13 14  2  0  0  0
 14 15  1  0  0  0
 15 16  2  0  0  0
 15  1  1  0  0  0
  1  2  2  0  0  0
  2  3  1  0  0  0
  3  4  1  0  0  0
  4  5  2  0  0  0
  5  6  1  0  0  0
  6 30  1  0  0  0
 30 32  1  0  0  0
 32 33  1  0  0  0
 33 34  1  0  0  0
 34 35  1  0  0  0
 35 36  1  0  0  0
 36 37  1  0  0  0
 37 38  1  0  0  0
 38 39  1  0  0  0
  6  7  2  0  0  0
  7  8  1  0  0  0
  8  9  2  0  0  0
 19 20  1  0  0  0
 20 21  2  0  0  0
 21 22  1  0  0  0
 22 23  2  0  0  0
 23 24  1  0  0  0
 24 25  2  0  0  0
 16 11  1  0  0  0
  9  1  1  0  0  0
 25 20  1  0  0  0
  9  4  1  0  0  0
 39 34  1  0  0  0
 26 28  1  0  0  0
 26 29  1  0  0  0
 17 18  1  0  0  0
  3 10  1  0  0  0
 30 31  1  0  0  0
M  END
> <minimizedAffinity>
-9.27864

> <CNNscore>
0.7657474279

> <CNNaffinity>
7.5274367332

> <CNN_VS>
5.7641153336

> <CNNaffinity_variance>
0.2018718272

$$$$
[H]Cl.[H]c1nc(N([H])C([H])(c2c([H])c([H])c([H])c([H])c2[H])C([H])([H])N([H])[H])nc(-c2nn([H])c3nc(N([H])C([H])([H])C([H])([H])N4C([H])([H])C([H])([H])OC([H])([H])C4([H])[H])nc([H])c23)c1[H]


 39 43  0  0  0  0  0  0  0  0999 V2000
  -84.4368   29.6865    1.1719 C   0  0  0  0  0  0  0  0  0  0  0  0
  -83.4728   29.1453    1.9811 N   0  0  0  0  0  0  0  0  0  0  0  0
  -83.8772   28.0120    2.4719 N   0  0  0  0  0  0  0  0  0  0  0  0
  -85.1144   27.7665    2.0078 C   0  0  0  0  0  0  0  0  0  0  0  0
  -86.0218   26.7726    2.1702 N   0  0  0  0  0  0  0  0  0  0  0  0
  -87.2193   26.7942    1.5698 C   0  0  0  0  0  0  0  0  0  0  0  0
  -87.5766   27.8132    0.7725 N   0  0  0  0  0  0  0  0  0  0  0  0
  -86.7026   28.8417    0.5724 C   0  0  0  0  0  0  0  0  0  0  0  0
  -85.4777   28.8259    1.1815 C   0  0  0  0  0  0  0  0  0  0  0  0
  -83.3436   27.3836    3.1202 H   0  0  0  0  0  0  0  0  0  0  0  0
  -85.2037   32.8937   -0.5626 C   0  0  0  0  0  0  0  0  0  0  0  0
  -83.9260   33.3722   -0.7212 N   0  0  0  0  0  0  0  0  0  0  0  0
  -82.8583   32.7020   -0.3050 C   0  0  0  0  0  0  0  0  0  0  0  0
  -82.9756   31.4861    0.3111 C   0  0  0  0  0  0  0  0  0  0  0  0
  -84.2643   30.9731    0.4878 C   0  0  0  0  0  0  0  0  0  0  0  0
  -85.2869   31.6955    0.0472 N   0  0  0  0  0  0  0  0  0  0  0  0
  -86.2951   33.6645   -1.0099 N   0  0  0  0  0  0  0  0  0  0  0  0
  -86.4145   34.6243   -0.6274 H   0  0  0  0  0  0  0  0  0  0  0  0
  -87.2372   33.1854   -1.9603 C   0  0  0  0  0  0  0  0  0  0  0  0
  -87.8954   34.3013   -2.7129 C   0  0  0  0  0  0  0  0  0  0  0  0
  -87.2401   35.4550   -3.0864 C   0  0  0  0  0  0  0  0  0  0  0  0
  -87.9362   36.4561   -3.7633 C   0  0  0  0  0  0  0  0  0  0  0  0
  -89.2682   36.3132   -4.0662 C   0  0  0  0  0  0  0  0  0  0  0  0
  -89.9323   35.1535   -3.6923 C   0  0  0  0  0  0  0  0  0  0  0  0
  -89.2219   34.1774   -3.0233 C   0  0  0  0  0  0  0  0  0  0  0  0
  -88.3437   31.0478   -1.4425 N   0  0  0  0  0  0  0  0  0  0  0  0
  -88.4040   32.4662   -1.2762 C   0  0  0  0  0  0  0  0  0  0  0  0
  -88.8196   30.6755   -2.2737 H   0  0  0  0  0  0  0  0  0  0  0  0
  -88.5843   30.5480   -0.5570 H   0  0  0  0  0  0  0  0  0  0  0  0
  -88.0981   25.6809    1.8142 N   0  0  0  0  0  0  0  0  0  0  0  0
  -88.0107   25.1054    2.6808 H   0  0  0  0  0  0  0  0  0  0  0  0
  -89.1240   25.3244    0.8747 C   0  0  0  0  0  0  0  0  0  0  0  0
  -90.4898   25.6663    1.3316 C   0  0  0  0  0  0  0  0  0  0  0  0
  -91.1310   26.7993    0.8406 N   0  0  0  0  0  0  0  0  0  0  0  0
  -91.5517   26.9488   -0.4830 C   0  0  0  0  0  0  0  0  0  0  0  0
  -90.7867   27.9969   -1.2615 C   0  0  0  0  0  0  0  0  0  0  0  0
  -90.3758   29.0519   -0.4856 O   0  0  0  0  0  0  0  0  0  0  0  0
  -91.0768   29.2131    0.6895 C   0  0  0  0  0  0  0  0  0  0  0  0
  -91.0109   28.0057    1.5933 C   0  0  0  0  0  0  0  0  0  0  0  0
 26 27  1  0  0  0
 27 19  1  0  0  0
 19 17  1  0  0  0
 17 11  1  0  0  0
 11 12  2  0  0  0
 12 13  1  0  0  0
 13 14  2  0  0  0
 14 15  1  0  0  0
 15 16  2  0  0  0
 15  1  1  0  0  0
  1  2  2  0  0  0
  2  3  1  0  0  0
  3  4  1  0  0  0
  4  5  2  0  0  0
  5  6  1  0  0  0
  6 30  1  0  0  0
 30 32  1  0  0  0
 32 33  1  0  0  0
 33 34  1  0  0  0
 34 35  1  0  0  0
 35 36  1  0  0  0
 36 37  1  0  0  0
 37 38  1  0  0  0
 38 39  1  0  0  0
  6  7  2  0  0  0
  7  8  1  0  0  0
  8  9  2  0  0  0
 19 20  1  0  0  0
 20 21  2  0  0  0
 21 22  1  0  0  0
 22 23  2  0  0  0
 23 24  1  0  0  0
 24 25  2  0  0  0
 16 11  1  0  0  0
  9  1  1  0  0  0
 25 20  1  0  0  0
  9  4  1  0  0  0
 39 34  1  0  0  0
 26 28  1  0  0  0
 26 29  1  0  0  0
 17 18  1  0  0  0
  3 10  1  0  0  0
 30 31  1  0  0  0
M  END
> <minimizedAffinity>
-8.71329

> <CNNscore>
0.7649771571

> <CNNaffinity>
7.5512657166

> <CNN_VS>
5.7765460014

> <CNNaffinity_variance>
0.1543600261

$$$$
[H]Cl.[H]c1nc(N([H])C([H])(c2c([H])c([H])c([H])c([H])c2[H])C([H])([H])N([H])[H])nc(-c2nn([H])c3nc(N([H])C([H])([H])C([H])([H])N4C([H])([H])C([H])([H])OC([H])([H])C4([H])[H])nc([H])c23)c1[H]


 39 43  0  0  0  0  0  0  0  0999 V2000
  -84.7705   29.6742    1.0343 C   0  0  0  0  0  0  0  0  0  0  0  0
  -84.1367   29.2660    2.1781 N   0  0  0  0  0  0  0  0  0  0  0  0
  -84.5719   28.0978    2.5449 N   0  0  0  0  0  0  0  0  0  0  0  0
  -85.5026   27.6960    1.6625 C   0  0  0  0  0  0  0  0  0  0  0  0
  -86.2888   26.6000    1.5275 N   0  0  0  0  0  0  0  0  0  0  0  0
  -87.1601   26.4664    0.5185 C   0  0  0  0  0  0  0  0  0  0  0  0
  -87.2940   27.4237   -0.4129 N   0  0  0  0  0  0  0  0  0  0  0  0
  -86.5278   28.5494   -0.3273 C   0  0  0  0  0  0  0  0  0  0  0  0
  -85.6353   28.6922    0.6997 C   0  0  0  0  0  0  0  0  0  0  0  0
  -84.2619   27.5479    3.3825 H   0  0  0  0  0  0  0  0  0  0  0  0
  -85.2619   32.9337   -0.7027 C   0  0  0  0  0  0  0  0  0  0  0  0
  -83.9588   33.3664   -0.7372 N   0  0  0  0  0  0  0  0  0  0  0  0
  -82.9578   32.6505   -0.2392 C   0  0  0  0  0  0  0  0  0  0  0  0
  -83.1739   31.4307    0.3413 C   0  0  0  0  0  0  0  0  0  0  0  0
  -84.4908   30.9637    0.3921 C   0  0  0  0  0  0  0  0  0  0  0  0
  -85.4428   31.7304   -0.1251 N   0  0  0  0  0  0  0  0  0  0  0  0
  -86.2800   33.7515   -1.2320 N   0  0  0  0  0  0  0  0  0  0  0  0
  -86.2184   34.7791   -1.0837 H   0  0  0  0  0  0  0  0  0  0  0  0
  -87.3852   33.2309   -1.9586 C   0  0  0  0  0  0  0  0  0  0  0  0
  -87.9324   34.2229   -2.9390 C   0  0  0  0  0  0  0  0  0  0  0  0
  -89.2710   34.5382   -3.0330 C   0  0  0  0  0  0  0  0  0  0  0  0
  -89.6986   35.4551   -3.9929 C   0  0  0  0  0  0  0  0  0  0  0  0
  -88.8071   36.0527   -4.8498 C   0  0  0  0  0  0  0  0  0  0  0  0
  -87.4584   35.7386   -4.7591 C   0  0  0  0  0  0  0  0  0  0  0  0
  -87.0598   34.8283   -3.8013 C   0  0  0  0  0  0  0  0  0  0  0  0
  -88.5789   31.5831   -0.5724 N   0  0  0  0  0  0  0  0  0  0  0  0
  -88.5713   32.9355   -1.0353 C   0  0  0  0  0  0  0  0  0  0  0  0
  -89.0862   30.9124   -1.1630 H   0  0  0  0  0  0  0  0  0  0  0  0
  -88.8263   31.5268    0.4413 H   0  0  0  0  0  0  0  0  0  0  0  0
  -87.9384   25.2565    0.4771 N   0  0  0  0  0  0  0  0  0  0  0  0
  -87.5104   24.3322    0.7052 H   0  0  0  0  0  0  0  0  0  0  0  0
  -89.3293   25.2801    0.1205 C   0  0  0  0  0  0  0  0  0  0  0  0
  -90.2387   25.3353    1.2871 C   0  0  0  0  0  0  0  0  0  0  0  0
  -89.9098   26.1069    2.3973 N   0  0  0  0  0  0  0  0  0  0  0  0
  -89.3646   25.5909    3.5753 C   0  0  0  0  0  0  0  0  0  0  0  0
  -90.2900   25.6647    4.7704 C   0  0  0  0  0  0  0  0  0  0  0  0
  -91.1136   26.7625    4.7476 O   0  0  0  0  0  0  0  0  0  0  0  0
  -90.6769   27.7967    3.9491 C   0  0  0  0  0  0  0  0  0  0  0  0
  -90.5027   27.4006    2.5028 C   0  0  0  0  0  0  0  0  0  0  0  0
 26 27  1  0  0  0
 27 19  1  0  0  0
 19 17  1  0  0  0
 17 11  1  0  0  0
 11 12  2  0  0  0
 12 13  1  0  0  0
 13 14  2  0  0  0
 14 15  1  0  0  0
 15 16  2  0  0  0
 15  1  1  0  0  0
  1  2  2  0  0  0
  2  3  1  0  0  0
  3  4  1  0  0  0
  4  5  2  0  0  0
  5  6  1  0  0  0
  6 30  1  0  0  0
 30 32  1  0  0  0
 32 33  1  0  0  0
 33 34  1  0  0  0
 34 35  1  0  0  0
 35 36  1  0  0  0
 36 37  1  0  0  0
 37 38  1  0  0  0
 38 39  1  0  0  0
  6  7  2  0  0  0
  7  8  1  0  0  0
  8  9  2  0  0  0
 19 20  1  0  0  0
 20 21  2  0  0  0
 21 22  1  0  0  0
 22 23  2  0  0  0
 23 24  1  0  0  0
 24 25  2  0  0  0
 16 11  1  0  0  0
  9  1  1  0  0  0
 25 20  1  0  0  0
  9  4  1  0  0  0
 39 34  1  0  0  0
 26 28  1  0  0  0
 26 29  1  0  0  0
 17 18  1  0  0  0
  3 10  1  0  0  0
 30 31  1  0  0  0
M  END
> <minimizedAffinity>
-9.13093

> <CNNscore>
0.7214147449

> <CNNaffinity>
7.4581289291

> <CNN_VS>
5.3804039955

> <CNNaffinity_variance>
0.1941073388

$$$$
[H]Cl.[H]c1nc(N([H])C([H])(c2c([H])c([H])c([H])c([H])c2[H])C([H])([H])N([H])[H])nc(-c2nn([H])c3nc(N([H])C([H])([H])C([H])([H])N4C([H])([H])C([H])([H])OC([H])([H])C4([H])[H])nc([H])c23)c1[H]


 39 43  0  0  0  0  0  0  0  0999 V2000
  -84.2977   30.8100    0.6419 C   0  0  0  0  0  0  0  0  0  0  0  0
  -83.1870   31.5922    0.4645 N   0  0  0  0  0  0  0  0  0  0  0  0
  -83.4909   32.6663   -0.2007 N   0  0  0  0  0  0  0  0  0  0  0  0
  -84.8041   32.6317   -0.4847 C   0  0  0  0  0  0  0  0  0  0  0  0
  -85.6670   33.4458   -1.1405 N   0  0  0  0  0  0  0  0  0  0  0  0
  -86.9652   33.1456   -1.2804 C   0  0  0  0  0  0  0  0  0  0  0  0
  -87.4733   32.0122   -0.7715 N   0  0  0  0  0  0  0  0  0  0  0  0
  -86.6507   31.1547   -0.1009 C   0  0  0  0  0  0  0  0  0  0  0  0
  -85.3242   31.4551    0.0466 C   0  0  0  0  0  0  0  0  0  0  0  0
  -82.8371   33.4383   -0.4774 H   0  0  0  0  0  0  0  0  0  0  0  0
  -85.2929   27.4678    1.9543 C   0  0  0  0  0  0  0  0  0  0  0  0
  -84.1353   27.1338    2.6138 N   0  0  0  0  0  0  0  0  0  0  0  0
  -83.0805   27.9391    2.6523 C   0  0  0  0  0  0  0  0  0  0  0  0
  -83.0909   29.1574    2.0300 C   0  0  0  0  0  0  0  0  0  0  0  0
  -84.2555   29.5251    1.3493 C   0  0  0  0  0  0  0  0  0  0  0  0
  -85.2725   28.6722    1.3515 N   0  0  0  0  0  0  0  0  0  0  0  0
  -86.3692   26.5587    1.9357 N   0  0  0  0  0  0  0  0  0  0  0  0
  -86.2238   25.6093    2.3348 H   0  0  0  0  0  0  0  0  0  0  0  0
  -87.6427   26.8851    1.3952 C   0  0  0  0  0  0  0  0  0  0  0  0
  -88.7397   26.0661    2.0039 C   0  0  0  0  0  0  0  0  0  0  0  0
  -88.8767   25.8698    3.3614 C   0  0  0  0  0  0  0  0  0  0  0  0
  -89.9134   25.0706    3.8423 C   0  0  0  0  0  0  0  0  0  0  0  0
  -90.8046   24.4729    2.9850 C   0  0  0  0  0  0  0  0  0  0  0  0
  -90.6709   24.6676    1.6175 C   0  0  0  0  0  0  0  0  0  0  0  0
  -89.6369   25.4625    1.1659 C   0  0  0  0  0  0  0  0  0  0  0  0
  -87.3903   27.6658   -0.9261 N   0  0  0  0  0  0  0  0  0  0  0  0
  -87.7188   26.5485   -0.0973 C   0  0  0  0  0  0  0  0  0  0  0  0
  -88.1775   28.2701   -1.1928 H   0  0  0  0  0  0  0  0  0  0  0  0
  -86.7832   27.3823   -1.7280 H   0  0  0  0  0  0  0  0  0  0  0  0
  -87.7856   34.0890   -1.9934 N   0  0  0  0  0  0  0  0  0  0  0  0
  -87.7247   35.1125   -1.7973 H   0  0  0  0  0  0  0  0  0  0  0  0
  -88.7152   33.6543   -2.9980 C   0  0  0  0  0  0  0  0  0  0  0  0
  -89.4473   34.7649   -3.6474 C   0  0  0  0  0  0  0  0  0  0  0  0
  -90.3977   34.5000   -4.6284 N   0  0  0  0  0  0  0  0  0  0  0  0
  -91.2264   35.4699   -5.1975 C   0  0  0  0  0  0  0  0  0  0  0  0
  -92.6894   35.3214   -4.8403 C   0  0  0  0  0  0  0  0  0  0  0  0
  -93.0743   34.0142   -4.6759 O   0  0  0  0  0  0  0  0  0  0  0  0
  -92.2514   33.0886   -5.2794 C   0  0  0  0  0  0  0  0  0  0  0  0
  -90.8256   33.1479   -4.7868 C   0  0  0  0  0  0  0  0  0  0  0  0
 26 27  1  0  0  0
 27 19  1  0  0  0
 19 17  1  0  0  0
 17 11  1  0  0  0
 11 12  2  0  0  0
 12 13  1  0  0  0
 13 14  2  0  0  0
 14 15  1  0  0  0
 15 16  2  0  0  0
 15  1  1  0  0  0
  1  2  2  0  0  0
  2  3  1  0  0  0
  3  4  1  0  0  0
  4  5  2  0  0  0
  5  6  1  0  0  0
  6 30  1  0  0  0
 30 32  1  0  0  0
 32 33  1  0  0  0
 33 34  1  0  0  0
 34 35  1  0  0  0
 35 36  1  0  0  0
 36 37  1  0  0  0
 37 38  1  0  0  0
 38 39  1  0  0  0
  6  7  2  0  0  0
  7  8  1  0  0  0
  8  9  2  0  0  0
 19 20  1  0  0  0
 20 21  2  0  0  0
 21 22  1  0  0  0
 22 23  2  0  0  0
 23 24  1  0  0  0
 24 25  2  0  0  0
 16 11  1  0  0  0
  9  1  1  0  0  0
 25 20  1  0  0  0
  9  4  1  0  0  0
 39 34  1  0  0  0
 26 28  1  0  0  0
 26 29  1  0  0  0
 17 18  1  0  0  0
  3 10  1  0  0  0
 30 31  1  0  0  0
M  END
> <minimizedAffinity>
-8.29045

> <CNNscore>
0.6739421487

> <CNNaffinity>
7.3390440941

> <CNN_VS>
4.9460911751

> <CNNaffinity_variance>
0.1791483760

$$$$
[H]N=C(OC([H])([H])[H])c1nc2c([H])c([H])c3nc([H])nc(N([H])c4c([H])c([H])c(F)c([H])c4F)c3c2s1


 28 31  0  0  0  0  0  0  0  0999 V2000
  -86.2747   33.1699   -1.5874 C   0  0  0  0  0  0  0  0  0  0  0  0
  -84.9920   33.3248   -1.3306 N   0  0  0  0  0  0  0  0  0  0  0  0
  -84.3701   32.4633   -0.5664 C   0  0  0  0  0  0  0  0  0  0  0  0
  -83.0084   32.5298   -0.2035 C   0  0  0  0  0  0  0  0  0  0  0  0
  -82.5128   31.5674    0.6154 C   0  0  0  0  0  0  0  0  0  0  0  0
  -83.2333   30.5219    1.1258 C   0  0  0  0  0  0  0  0  0  0  0  0
  -82.7275   29.5993    1.9482 N   0  0  0  0  0  0  0  0  0  0  0  0
  -83.5308   28.6018    2.4266 C   0  0  0  0  0  0  0  0  0  0  0  0
  -84.8119   28.5539    2.0696 N   0  0  0  0  0  0  0  0  0  0  0  0
  -85.3980   29.4403    1.2471 C   0  0  0  0  0  0  0  0  0  0  0  0
  -84.5741   30.4357    0.7803 C   0  0  0  0  0  0  0  0  0  0  0  0
  -85.1028   31.4167   -0.0596 C   0  0  0  0  0  0  0  0  0  0  0  0
  -86.6369   31.7573   -0.7249 S   0  0  0  0  0  0  0  0  0  0  0  0
  -87.1595   34.0193   -2.4177 C   0  0  0  0  0  0  0  0  0  0  0  0
  -86.6517   34.7150   -3.3360 N   0  0  0  0  0  0  0  0  0  0  0  0
  -85.6441   34.7240   -3.5413 H   0  0  0  0  0  0  0  0  0  0  0  0
  -89.4296   34.3818   -3.2409 C   0  0  0  0  0  0  0  0  0  0  0  0
  -88.5191   34.0435   -2.1837 O   0  0  0  0  0  0  0  0  0  0  0  0
  -86.7230   29.2479    0.8360 N   0  0  0  0  0  0  0  0  0  0  0  0
  -87.2834   30.0982    0.6513 H   0  0  0  0  0  0  0  0  0  0  0  0
  -87.3915   28.0107    0.5943 C   0  0  0  0  0  0  0  0  0  0  0  0
  -88.0483   27.3280    1.5534 C   0  0  0  0  0  0  0  0  0  0  0  0
  -88.7141   26.1328    1.2103 C   0  0  0  0  0  0  0  0  0  0  0  0
  -88.7069   25.6537   -0.0776 C   0  0  0  0  0  0  0  0  0  0  0  0
  -89.3745   24.4831   -0.3491 F   0  0  0  0  0  0  0  0  0  0  0  0
  -88.0367   26.3519   -1.0580 C   0  0  0  0  0  0  0  0  0  0  0  0
  -87.3917   27.5123   -0.7155 C   0  0  0  0  0  0  0  0  0  0  0  0
  -86.7253   28.2089   -1.6732 F   0  0  0  0  0  0  0  0  0  0  0  0
 17 18  1  0  0  0
 18 14  1  0  0  0
 14 15  2  0  0  0
 14  1  1  0  0  0
  1  2  2  0  0  0
  2  3  1  0  0  0
  3  4  2  0  0  0
  4  5  1  0  0  0
  5  6  2  0  0  0
  6  7  1  0  0  0
  7  8  2  0  0  0
  8  9  1  0  0  0
  9 10  2  0  0  0
 10 19  1  0  0  0
 19 21  1  0  0  0
 21 22  2  0  0  0
 22 23  1  0  0  0
 23 24  2  0  0  0
 24 25  1  0  0  0
 24 26  1  0  0  0
 26 27  2  0  0  0
 27 28  1  0  0  0
 10 11  1  0  0  0
 11 12  2  0  0  0
 12 13  1  0  0  0
 13  1  1  0  0  0
 12  3  1  0  0  0
 11  6  1  0  0  0
 27 21  1  0  0  0
 15 16  1  0  0  0
 19 20  1  0  0  0
M  END
> <minimizedAffinity>
-8.95101

> <CNNscore>
0.7028282881

> <CNNaffinity>
7.2336745262

> <CNN_VS>
5.0840311050

> <CNNaffinity_variance>
0.1454436481

$$$$
[H]N=C(OC([H])([H])[H])c1nc2c([H])c([H])c3nc([H])nc(N([H])c4c([H])c([H])c(F)c([H])c4F)c3c2s1


 28 31  0  0  0  0  0  0  0  0999 V2000
  -84.9472   31.7138    0.3055 C   0  0  0  0  0  0  0  0  0  0  0  0
  -85.3247   32.7626   -0.3966 N   0  0  0  0  0  0  0  0  0  0  0  0
  -86.4560   32.7357   -1.0540 C   0  0  0  0  0  0  0  0  0  0  0  0
  -86.9592   33.7836   -1.8536 C   0  0  0  0  0  0  0  0  0  0  0  0
  -88.1431   33.5958   -2.4902 C   0  0  0  0  0  0  0  0  0  0  0  0
  -88.9016   32.4589   -2.4204 C   0  0  0  0  0  0  0  0  0  0  0  0
  -90.0535   32.2901   -3.0747 N   0  0  0  0  0  0  0  0  0  0  0  0
  -90.7323   31.1087   -2.9618 C   0  0  0  0  0  0  0  0  0  0  0  0
  -90.2433   30.1336   -2.1996 N   0  0  0  0  0  0  0  0  0  0  0  0
  -89.0943   30.2224   -1.5084 C   0  0  0  0  0  0  0  0  0  0  0  0
  -88.4268   31.4162   -1.6382 C   0  0  0  0  0  0  0  0  0  0  0  0
  -87.2104   31.5895   -0.9766 C   0  0  0  0  0  0  0  0  0  0  0  0
  -86.2267   30.6353    0.0402 S   0  0  0  0  0  0  0  0  0  0  0  0
  -83.7186   31.5369    1.1137 C   0  0  0  0  0  0  0  0  0  0  0  0
  -82.7234   32.2719    0.8802 N   0  0  0  0  0  0  0  0  0  0  0  0
  -82.7196   32.9959    0.1500 H   0  0  0  0  0  0  0  0  0  0  0  0
  -82.9456   29.3581    1.8995 C   0  0  0  0  0  0  0  0  0  0  0  0
  -83.6715   30.5794    2.1060 O   0  0  0  0  0  0  0  0  0  0  0  0
  -88.7134   29.1894   -0.6428 N   0  0  0  0  0  0  0  0  0  0  0  0
  -87.8450   28.6781   -0.8786 H   0  0  0  0  0  0  0  0  0  0  0  0
  -89.3569   28.7779    0.5624 C   0  0  0  0  0  0  0  0  0  0  0  0
  -90.5952   29.1806    0.9116 C   0  0  0  0  0  0  0  0  0  0  0  0
  -91.1653   28.6883    2.1041 C   0  0  0  0  0  0  0  0  0  0  0  0
  -90.4861   27.8091    2.9127 C   0  0  0  0  0  0  0  0  0  0  0  0
  -91.0955   27.3651    4.0621 F   0  0  0  0  0  0  0  0  0  0  0  0
  -89.2211   27.3966    2.5554 C   0  0  0  0  0  0  0  0  0  0  0  0
  -88.6744   27.8807    1.3949 C   0  0  0  0  0  0  0  0  0  0  0  0
  -87.4264   27.4829    1.0328 F   0  0  0  0  0  0  0  0  0  0  0  0
 17 18  1  0  0  0
 18 14  1  0  0  0
 14 15  2  0  0  0
 14  1  1  0  0  0
  1  2  2  0  0  0
  2  3  1  0  0  0
  3  4  2  0  0  0
  4  5  1  0  0  0
  5  6  2  0  0  0
  6  7  1  0  0  0
  7  8  2  0  0  0
  8  9  1  0  0  0
  9 10  2  0  0  0
 10 19  1  0  0  0
 19 21  1  0  0  0
 21 22  2  0  0  0
 22 23  1  0  0  0
 23 24  2  0  0  0
 24 25  1  0  0  0
 24 26  1  0  0  0
 26 27  2  0  0  0
 27 28  1  0  0  0
 10 11  1  0  0  0
 11 12  2  0  0  0
 12 13  1  0  0  0
 13  1  1  0  0  0
 12  3  1  0  0  0
 11  6  1  0  0  0
 27 21  1  0  0  0
 15 16  1  0  0  0
 19 20  1  0  0  0
M  END
> <minimizedAffinity>
-7.98594

> <CNNscore>
0.5218830705

> <CNNaffinity>
6.9257078171

> <CNN_VS>
3.6144096851

> <CNNaffinity_variance>
0.0604818277

$$$$
[H]N=C(OC([H])([H])[H])c1nc2c([H])c([H])c3nc([H])nc(N([H])c4c([H])c([H])c(F)c([H])c4F)c3c2s1


 28 31  0  0  0  0  0  0  0  0999 V2000
  -87.0448   27.2063    1.7893 C   0  0  0  0  0  0  0  0  0  0  0  0
  -85.8100   27.1439    2.2439 N   0  0  0  0  0  0  0  0  0  0  0  0
  -84.9693   28.1133    1.9862 C   0  0  0  0  0  0  0  0  0  0  0  0
  -83.6208   28.1541    2.3992 C   0  0  0  0  0  0  0  0  0  0  0  0
  -82.8683   29.2234    2.0350 C   0  0  0  0  0  0  0  0  0  0  0  0
  -83.3142   30.2815    1.2905 C   0  0  0  0  0  0  0  0  0  0  0  0
  -82.5472   31.3122    0.9261 N   0  0  0  0  0  0  0  0  0  0  0  0
  -83.0750   32.3151    0.1614 C   0  0  0  0  0  0  0  0  0  0  0  0
  -84.3503   32.2604   -0.2149 N   0  0  0  0  0  0  0  0  0  0  0  0
  -85.1889   31.2617    0.1093 C   0  0  0  0  0  0  0  0  0  0  0  0
  -84.6377   30.2632    0.8753 C   0  0  0  0  0  0  0  0  0  0  0  0
  -85.4274   29.1715    1.2384 C   0  0  0  0  0  0  0  0  0  0  0  0
  -87.0396   28.6851    0.9622 S   0  0  0  0  0  0  0  0  0  0  0  0
  -88.1438   26.2287    1.9637 C   0  0  0  0  0  0  0  0  0  0  0  0
  -88.4427   25.4690    1.0053 N   0  0  0  0  0  0  0  0  0  0  0  0
  -87.9583   25.4926    0.0985 H   0  0  0  0  0  0  0  0  0  0  0  0
  -89.6008   27.2739    3.6211 C   0  0  0  0  0  0  0  0  0  0  0  0
  -88.8258   26.1564    3.1609 O   0  0  0  0  0  0  0  0  0  0  0  0
  -86.5441   31.3425   -0.2350 N   0  0  0  0  0  0  0  0  0  0  0  0
  -87.2212   31.4123    0.5446 H   0  0  0  0  0  0  0  0  0  0  0  0
  -87.1117   31.3855   -1.5434 C   0  0  0  0  0  0  0  0  0  0  0  0
  -87.5131   30.2844   -2.2095 C   0  0  0  0  0  0  0  0  0  0  0  0
  -88.1005   30.4301   -3.4836 C   0  0  0  0  0  0  0  0  0  0  0  0
  -88.2715   31.6676   -4.0558 C   0  0  0  0  0  0  0  0  0  0  0  0
  -88.8505   31.7441   -5.3004 F   0  0  0  0  0  0  0  0  0  0  0  0
  -87.8623   32.7931   -3.3747 C   0  0  0  0  0  0  0  0  0  0  0  0
  -87.2919   32.6421   -2.1371 C   0  0  0  0  0  0  0  0  0  0  0  0
  -86.8822   33.7445   -1.4562 F   0  0  0  0  0  0  0  0  0  0  0  0
 17 18  1  0  0  0
 18 14  1  0  0  0
 14 15  2  0  0  0
 14  1  1  0  0  0
  1  2  2  0  0  0
  2  3  1  0  0  0
  3  4  2  0  0  0
  4  5  1  0  0  0
  5  6  2  0  0  0
  6  7  1  0  0  0
  7  8  2  0  0  0
  8  9  1  0  0  0
  9 10  2  0  0  0
 10 19  1  0  0  0
 19 21  1  0  0  0
 21 22  2  0  0  0
 22 23  1  0  0  0
 23 24  2  0  0  0
 24 25  1  0  0  0
 24 26  1  0  0  0
 26 27  2  0  0  0
 27 28  1  0  0  0
 10 11  1  0  0  0
 11 12  2  0  0  0
 12 13  1  0  0  0
 13  1  1  0  0  0
 12  3  1  0  0  0
 11  6  1  0  0  0
 27 21  1  0  0  0
 15 16  1  0  0  0
 19 20  1  0  0  0
M  END
> <minimizedAffinity>
-9.26754

> <CNNscore>
0.4862125218

> <CNNaffinity>
6.9707002640

> <CNN_VS>
3.3892416954

> <CNNaffinity_variance>
0.1084840447

$$$$
[H]N=C(OC([H])([H])[H])c1nc2c([H])c([H])c3nc([H])nc(N([H])c4c([H])c([H])c(F)c([H])c4F)c3c2s1


 28 31  0  0  0  0  0  0  0  0999 V2000
  -87.0965   27.5052    1.2856 C   0  0  0  0  0  0  0  0  0  0  0  0
  -85.9458   27.7916    1.8594 N   0  0  0  0  0  0  0  0  0  0  0  0
  -85.3266   28.9054    1.5615 C   0  0  0  0  0  0  0  0  0  0  0  0
  -84.0849   29.3147    2.0918 C   0  0  0  0  0  0  0  0  0  0  0  0
  -83.5608   30.4927    1.6676 C   0  0  0  0  0  0  0  0  0  0  0  0
  -84.1442   31.3297    0.7556 C   0  0  0  0  0  0  0  0  0  0  0  0
  -83.5972   32.4740    0.3375 N   0  0  0  0  0  0  0  0  0  0  0  0
  -84.2445   33.2357   -0.5952 C   0  0  0  0  0  0  0  0  0  0  0  0
  -85.4168   32.8345   -1.0806 N   0  0  0  0  0  0  0  0  0  0  0  0
  -86.0354   31.6997   -0.7131 C   0  0  0  0  0  0  0  0  0  0  0  0
  -85.3667   30.9479    0.2225 C   0  0  0  0  0  0  0  0  0  0  0  0
  -85.9215   29.7391    0.6450 C   0  0  0  0  0  0  0  0  0  0  0  0
  -87.3316   28.8495    0.2814 S   0  0  0  0  0  0  0  0  0  0  0  0
  -87.9530   26.3122    1.4780 C   0  0  0  0  0  0  0  0  0  0  0  0
  -88.1307   25.8700    2.6433 N   0  0  0  0  0  0  0  0  0  0  0  0
  -87.7075   26.2987    3.4767 H   0  0  0  0  0  0  0  0  0  0  0  0
  -89.9723   25.7146    0.2422 C   0  0  0  0  0  0  0  0  0  0  0  0
  -88.5447   25.6993    0.3926 O   0  0  0  0  0  0  0  0  0  0  0  0
  -87.3201   31.4128   -1.1917 N   0  0  0  0  0  0  0  0  0  0  0  0
  -87.8881   30.7487   -0.6374 H   0  0  0  0  0  0  0  0  0  0  0  0
  -87.9678   31.9625   -2.3381 C   0  0  0  0  0  0  0  0  0  0  0  0
  -87.6846   31.5799   -3.5993 C   0  0  0  0  0  0  0  0  0  0  0  0
  -88.4065   32.1516   -4.6677 C   0  0  0  0  0  0  0  0  0  0  0  0
  -89.3896   33.0863   -4.4483 C   0  0  0  0  0  0  0  0  0  0  0  0
  -90.0578   33.6067   -5.5312 F   0  0  0  0  0  0  0  0  0  0  0  0
  -89.6799   33.4767   -3.1594 C   0  0  0  0  0  0  0  0  0  0  0  0
  -88.9727   32.9163   -2.1271 C   0  0  0  0  0  0  0  0  0  0  0  0
  -89.2484   33.2947   -0.8513 F   0  0  0  0  0  0  0  0  0  0  0  0
 17 18  1  0  0  0
 18 14  1  0  0  0
 14 15  2  0  0  0
 14  1  1  0  0  0
  1  2  2  0  0  0
  2  3  1  0  0  0
  3  4  2  0  0  0
  4  5  1  0  0  0
  5  6  2  0  0  0
  6  7  1  0  0  0
  7  8  2  0  0  0
  8  9  1  0  0  0
  9 10  2  0  0  0
 10 19  1  0  0  0
 19 21  1  0  0  0
 21 22  2  0  0  0
 22 23  1  0  0  0
 23 24  2  0  0  0
 24 25  1  0  0  0
 24 26  1  0  0  0
 26 27  2  0  0  0
 27 28  1  0  0  0
 10 11  1  0  0  0
 11 12  2  0  0  0
 12 13  1  0  0  0
 13  1  1  0  0  0
 12  3  1  0  0  0
 11  6  1  0  0  0
 27 21  1  0  0  0
 15 16  1  0  0  0
 19 20  1  0  0  0
M  END
> <minimizedAffinity>
-8.19596

> <CNNscore>
0.4733022153

> <CNNaffinity>
6.8489446640

> <CNN_VS>
3.2416207790

> <CNNaffinity_variance>
0.1564397067

$$$$
[H]N=C(OC([H])([H])[H])c1nc2c([H])c([H])c3nc([H])nc(N([H])c4c([H])c([H])c(F)c([H])c4F)c3c2s1


 28 31  0  0  0  0  0  0  0  0999 V2000
  -84.7476   32.0131    0.1437 C   0  0  0  0  0  0  0  0  0  0  0  0
  -85.0876   32.9481   -0.7198 N   0  0  0  0  0  0  0  0  0  0  0  0
  -86.2658   32.9145   -1.2888 C   0  0  0  0  0  0  0  0  0  0  0  0
  -86.7384   33.8433   -2.2398 C   0  0  0  0  0  0  0  0  0  0  0  0
  -87.9811   33.6614   -2.7546 C   0  0  0  0  0  0  0  0  0  0  0  0
  -88.8271   32.6380   -2.4235 C   0  0  0  0  0  0  0  0  0  0  0  0
  -90.0377   32.4683   -2.9612 N   0  0  0  0  0  0  0  0  0  0  0  0
  -90.8051   31.4014   -2.5843 C   0  0  0  0  0  0  0  0  0  0  0  0
  -90.3432   30.5383   -1.6828 N   0  0  0  0  0  0  0  0  0  0  0  0
  -89.1395   30.6369   -1.0936 C   0  0  0  0  0  0  0  0  0  0  0  0
  -88.3836   31.7140   -1.4886 C   0  0  0  0  0  0  0  0  0  0  0  0
  -87.1079   31.8830   -0.9487 C   0  0  0  0  0  0  0  0  0  0  0  0
  -86.1327   31.0376    0.1677 S   0  0  0  0  0  0  0  0  0  0  0  0
  -83.4785   31.8652    0.8929 C   0  0  0  0  0  0  0  0  0  0  0  0
  -82.4802   32.5479    0.5432 N   0  0  0  0  0  0  0  0  0  0  0  0
  -82.5007   33.2095   -0.2438 H   0  0  0  0  0  0  0  0  0  0  0  0
  -82.8970   29.6594    1.7637 C   0  0  0  0  0  0  0  0  0  0  0  0
  -83.3978   30.9909    1.9572 O   0  0  0  0  0  0  0  0  0  0  0  0
  -88.7816   29.7469   -0.0731 N   0  0  0  0  0  0  0  0  0  0  0  0
  -88.4093   30.1611    0.7992 H   0  0  0  0  0  0  0  0  0  0  0  0
  -88.9093   28.3258   -0.0691 C   0  0  0  0  0  0  0  0  0  0  0  0
  -89.8479   27.6718    0.6443 C   0  0  0  0  0  0  0  0  0  0  0  0
  -89.9222   26.2663    0.5534 C   0  0  0  0  0  0  0  0  0  0  0  0
  -89.0607   25.5539   -0.2457 C   0  0  0  0  0  0  0  0  0  0  0  0
  -89.1836   24.1855   -0.2918 F   0  0  0  0  0  0  0  0  0  0  0  0
  -88.1021   26.2222   -0.9755 C   0  0  0  0  0  0  0  0  0  0  0  0
  -88.0366   27.5884   -0.8807 C   0  0  0  0  0  0  0  0  0  0  0  0
  -87.0942   28.2588   -1.5940 F   0  0  0  0  0  0  0  0  0  0  0  0
 17 18  1  0  0  0
 18 14  1  0  0  0
 14 15  2  0  0  0
 14  1  1  0  0  0
  1  2  2  0  0  0
  2  3  1  0  0  0
  3  4  2  0  0  0
  4  5  1  0  0  0
  5  6  2  0  0  0
  6  7  1  0  0  0
  7  8  2  0  0  0
  8  9  1  0  0  0
  9 10  2  0  0  0
 10 19  1  0  0  0
 19 21  1  0  0  0
 21 22  2  0  0  0
 22 23  1  0  0  0
 23 24  2  0  0  0
 24 25  1  0  0  0
 24 26  1  0  0  0
 26 27  2  0  0  0
 27 28  1  0  0  0
 10 11  1  0  0  0
 11 12  2  0  0  0
 12 13  1  0  0  0
 13  1  1  0  0  0
 12  3  1  0  0  0
 11  6  1  0  0  0
 27 21  1  0  0  0
 15 16  1  0  0  0
 19 20  1  0  0  0
M  END
> <minimizedAffinity>
-7.72622

> <CNNscore>
0.2813514173

> <CNNaffinity>
6.7431578636

> <CNN_VS>
1.8971970081

> <CNNaffinity_variance>
0.0710930973

$$$$
[H]N=C(OC([H])([H])[H])c1nc2c([H])c([H])c3nc([H])nc(N([H])c4c([H])c([H])c(F)c([H])c4F)c3c2s1


 28 31  0  0  0  0  0  0  0  0999 V2000
  -89.7775   31.6655   -1.7770 C   0  0  0  0  0  0  0  0  0  0  0  0
  -90.8175   31.4694   -2.5613 N   0  0  0  0  0  0  0  0  0  0  0  0
  -91.4924   30.3507   -2.4839 C   0  0  0  0  0  0  0  0  0  0  0  0
  -92.6086   30.0155   -3.2791 C   0  0  0  0  0  0  0  0  0  0  0  0
  -93.1914   28.8040   -3.0920 C   0  0  0  0  0  0  0  0  0  0  0  0
  -92.7819   27.8665   -2.1831 C   0  0  0  0  0  0  0  0  0  0  0  0
  -93.3590   26.6715   -2.0334 N   0  0  0  0  0  0  0  0  0  0  0  0
  -92.8658   25.7892   -1.1129 C   0  0  0  0  0  0  0  0  0  0  0  0
  -91.8145   26.1255   -0.3696 N   0  0  0  0  0  0  0  0  0  0  0  0
  -91.1775   27.3055   -0.4563 C   0  0  0  0  0  0  0  0  0  0  0  0
  -91.6872   28.1759   -1.3891 C   0  0  0  0  0  0  0  0  0  0  0  0
  -91.0732   29.4163   -1.5674 C   0  0  0  0  0  0  0  0  0  0  0  0
  -89.7333   30.2246   -0.8867 S   0  0  0  0  0  0  0  0  0  0  0  0
  -88.8858   32.8458   -1.7032 C   0  0  0  0  0  0  0  0  0  0  0  0
  -89.1764   33.8730   -2.3707 N   0  0  0  0  0  0  0  0  0  0  0  0
  -90.0093   33.9352   -2.9706 H   0  0  0  0  0  0  0  0  0  0  0  0
  -86.4563   32.9819   -1.5008 C   0  0  0  0  0  0  0  0  0  0  0  0
  -87.7552   32.8142   -0.9129 O   0  0  0  0  0  0  0  0  0  0  0  0
  -90.1507   27.6176    0.4437 N   0  0  0  0  0  0  0  0  0  0  0  0
  -89.3535   28.1632    0.0726 H   0  0  0  0  0  0  0  0  0  0  0  0
  -90.0867   27.3115    1.8359 C   0  0  0  0  0  0  0  0  0  0  0  0
  -89.4019   26.2601    2.3289 C   0  0  0  0  0  0  0  0  0  0  0  0
  -89.3631   26.0610    3.7247 C   0  0  0  0  0  0  0  0  0  0  0  0
  -90.0062   26.9151    4.5879 C   0  0  0  0  0  0  0  0  0  0  0  0
  -89.9311   26.6676    5.9381 F   0  0  0  0  0  0  0  0  0  0  0  0
  -90.7051   27.9902    4.0843 C   0  0  0  0  0  0  0  0  0  0  0  0
  -90.7381   28.1758    2.7262 C   0  0  0  0  0  0  0  0  0  0  0  0
  -91.4260   29.2314    2.2171 F   0  0  0  0  0  0  0  0  0  0  0  0
 17 18  1  0  0  0
 18 14  1  0  0  0
 14 15  2  0  0  0
 14  1  1  0  0  0
  1  2  2  0  0  0
  2  3  1  0  0  0
  3  4  2  0  0  0
  4  5  1  0  0  0
  5  6  2  0  0  0
  6  7  1  0  0  0
  7  8  2  0  0  0
  8  9  1  0  0  0
  9 10  2  0  0  0
 10 19  1  0  0  0
 19 21  1  0  0  0
 21 22  2  0  0  0
 22 23  1  0  0  0
 23 24  2  0  0  0
 24 25  1  0  0  0
 24 26  1  0  0  0
 26 27  2  0  0  0
 27 28  1  0  0  0
 10 11  1  0  0  0
 11 12  2  0  0  0
 12 13  1  0  0  0
 13  1  1  0  0  0
 12  3  1  0  0  0
 11  6  1  0  0  0
 27 21  1  0  0  0
 15 16  1  0  0  0
 19 20  1  0  0  0
M  END
> <minimizedAffinity>
-6.67083

> <CNNscore>
0.2220321298

> <CNNaffinity>
5.9407987595

> <CNN_VS>
1.3190481663

> <CNNaffinity_variance>
0.1250472367

$$$$
[H]N=C(OC([H])([H])[H])c1nc2c([H])c([H])c3nc([H])nc(N([H])c4c([H])c([H])c(F)c([H])c4F)c3c2s1


 28 31  0  0  0  0  0  0  0  0999 V2000
  -87.8997   26.5648    0.6819 C   0  0  0  0  0  0  0  0  0  0  0  0
  -86.8012   26.4014    1.3903 N   0  0  0  0  0  0  0  0  0  0  0  0
  -85.9628   27.3960    1.5342 C   0  0  0  0  0  0  0  0  0  0  0  0
  -84.7482   27.3411    2.2501 C   0  0  0  0  0  0  0  0  0  0  0  0
  -83.9750   28.4559    2.2919 C   0  0  0  0  0  0  0  0  0  0  0  0
  -84.2790   29.6466    1.6898 C   0  0  0  0  0  0  0  0  0  0  0  0
  -83.4901   30.7235    1.7272 N   0  0  0  0  0  0  0  0  0  0  0  0
  -83.8670   31.8649    1.0758 C   0  0  0  0  0  0  0  0  0  0  0  0
  -85.0182   31.8981    0.4092 N   0  0  0  0  0  0  0  0  0  0  0  0
  -85.8688   30.8613    0.3232 C   0  0  0  0  0  0  0  0  0  0  0  0
  -85.4697   29.7237    0.9821 C   0  0  0  0  0  0  0  0  0  0  0  0
  -86.2779   28.5875    0.9262 C   0  0  0  0  0  0  0  0  0  0  0  0
  -87.7628   28.1804    0.1903 S   0  0  0  0  0  0  0  0  0  0  0  0
  -88.9698   25.5812    0.3969 C   0  0  0  0  0  0  0  0  0  0  0  0
  -88.6551   24.3800    0.1889 N   0  0  0  0  0  0  0  0  0  0  0  0
  -87.6836   24.0433    0.2067 H   0  0  0  0  0  0  0  0  0  0  0  0
  -91.3422   25.0206    0.5371 C   0  0  0  0  0  0  0  0  0  0  0  0
  -90.2898   25.9812    0.3614 O   0  0  0  0  0  0  0  0  0  0  0  0
  -87.1105   31.0213   -0.3046 N   0  0  0  0  0  0  0  0  0  0  0  0
  -87.9225   30.5592    0.1406 H   0  0  0  0  0  0  0  0  0  0  0  0
  -87.4071   31.7876   -1.4711 C   0  0  0  0  0  0  0  0  0  0  0  0
  -87.5057   33.1321   -1.4646 C   0  0  0  0  0  0  0  0  0  0  0  0
  -87.7628   33.8064   -2.6765 C   0  0  0  0  0  0  0  0  0  0  0  0
  -87.9129   33.1222   -3.8586 C   0  0  0  0  0  0  0  0  0  0  0  0
  -88.1620   33.8364   -5.0066 F   0  0  0  0  0  0  0  0  0  0  0  0
  -87.8110   31.7483   -3.8656 C   0  0  0  0  0  0  0  0  0  0  0  0
  -87.5616   31.1010   -2.6830 C   0  0  0  0  0  0  0  0  0  0  0  0
  -87.4611   29.7458   -2.6765 F   0  0  0  0  0  0  0  0  0  0  0  0
 17 18  1  0  0  0
 18 14  1  0  0  0
 14 15  2  0  0  0
 14  1  1  0  0  0
  1  2  2  0  0  0
  2  3  1  0  0  0
  3  4  2  0  0  0
  4  5  1  0  0  0
  5  6  2  0  0  0
  6  7  1  0  0  0
  7  8  2  0  0  0
  8  9  1  0  0  0
  9 10  2  0  0  0
 10 19  1  0  0  0
 19 21  1  0  0  0
 21 22  2  0  0  0
 22 23  1  0  0  0
 23 24  2  0  0  0
 24 25  1  0  0  0
 24 26  1  0  0  0
 26 27  2  0  0  0
 27 28  1  0  0  0
 10 11  1  0  0  0
 11 12  2  0  0  0
 12 13  1  0  0  0
 13  1  1  0  0  0
 12  3  1  0  0  0
 11  6  1  0  0  0
 27 21  1  0  0  0
 15 16  1  0  0  0
 19 20  1  0  0  0
M  END
> <minimizedAffinity>
-8.54638

> <CNNscore>
0.1979963779

> <CNNaffinity>
6.5562057495

> <CNN_VS>
1.2981050014

> <CNNaffinity_variance>
0.2202848941

$$$$
[H]N=C(OC([H])([H])[H])c1nc2c([H])c([H])c3nc([H])nc(N([H])c4c([H])c([H])c(F)c([H])c4F)c3c2s1


 28 31  0  0  0  0  0  0  0  0999 V2000
  -90.4652   28.7857   -2.1124 C   0  0  0  0  0  0  0  0  0  0  0  0
  -89.2092   29.1628   -1.9879 N   0  0  0  0  0  0  0  0  0  0  0  0
  -88.8435   30.3565   -2.3808 C   0  0  0  0  0  0  0  0  0  0  0  0
  -87.5304   30.8686   -2.3180 C   0  0  0  0  0  0  0  0  0  0  0  0
  -87.3059   32.1232   -2.7847 C   0  0  0  0  0  0  0  0  0  0  0  0
  -88.2604   32.9459   -3.3185 C   0  0  0  0  0  0  0  0  0  0  0  0
  -88.0098   34.1693   -3.7917 N   0  0  0  0  0  0  0  0  0  0  0  0
  -89.0250   34.9115   -4.3282 C   0  0  0  0  0  0  0  0  0  0  0  0
  -90.2577   34.4124   -4.3749 N   0  0  0  0  0  0  0  0  0  0  0  0
  -90.5943   33.1935   -3.9203 C   0  0  0  0  0  0  0  0  0  0  0  0
  -89.5592   32.4634   -3.3882 C   0  0  0  0  0  0  0  0  0  0  0  0
  -89.8099   31.1749   -2.9147 C   0  0  0  0  0  0  0  0  0  0  0  0
  -91.1754   30.1568   -2.8100 S   0  0  0  0  0  0  0  0  0  0  0  0
  -91.0833   27.4935   -1.7355 C   0  0  0  0  0  0  0  0  0  0  0  0
  -91.1283   27.1702   -0.5196 N   0  0  0  0  0  0  0  0  0  0  0  0
  -90.7541   27.7629    0.2329 H   0  0  0  0  0  0  0  0  0  0  0  0
  -91.7185   27.1173   -4.0629 C   0  0  0  0  0  0  0  0  0  0  0  0
  -91.6005   26.6612   -2.7068 O   0  0  0  0  0  0  0  0  0  0  0  0
  -91.9368   32.7946   -3.9067 N   0  0  0  0  0  0  0  0  0  0  0  0
  -92.4342   32.8579   -3.0014 H   0  0  0  0  0  0  0  0  0  0  0  0
  -92.7265   32.3482   -5.0082 C   0  0  0  0  0  0  0  0  0  0  0  0
  -92.7647   31.0637   -5.4153 C   0  0  0  0  0  0  0  0  0  0  0  0
  -93.6071   30.7099   -6.4899 C   0  0  0  0  0  0  0  0  0  0  0  0
  -94.3870   31.6454   -7.1261 C   0  0  0  0  0  0  0  0  0  0  0  0
  -95.1874   31.2384   -8.1671 F   0  0  0  0  0  0  0  0  0  0  0  0
  -94.3489   32.9580   -6.7094 C   0  0  0  0  0  0  0  0  0  0  0  0
  -93.5267   33.2931   -5.6646 C   0  0  0  0  0  0  0  0  0  0  0  0
  -93.4787   34.5849   -5.2457 F   0  0  0  0  0  0  0  0  0  0  0  0
 17 18  1  0  0  0
 18 14  1  0  0  0
 14 15  2  0  0  0
 14  1  1  0  0  0
  1  2  2  0  0  0
  2  3  1  0  0  0
  3  4  2  0  0  0
  4  5  1  0  0  0
  5  6  2  0  0  0
  6  7  1  0  0  0
  7  8  2  0  0  0
  8  9  1  0  0  0
  9 10  2  0  0  0
 10 19  1  0  0  0
 19 21  1  0  0  0
 21 22  2  0  0  0
 22 23  1  0  0  0
 23 24  2  0  0  0
 24 25  1  0  0  0
 24 26  1  0  0  0
 26 27  2  0  0  0
 27 28  1  0  0  0
 10 11  1  0  0  0
 11 12  2  0  0  0
 12 13  1  0  0  0
 13  1  1  0  0  0
 12  3  1  0  0  0
 11  6  1  0  0  0
 27 21  1  0  0  0
 15 16  1  0  0  0
 19 20  1  0  0  0
M  END
> <minimizedAffinity>
-4.18453

> <CNNscore>
0.1774773449

> <CNNaffinity>
5.3529458046

> <CNN_VS>
0.9500266314

> <CNNaffinity_variance>
0.5479907393

$$$$
[H]N=C(OC([H])([H])[H])c1nc2c([H])c([H])c3nc([H])nc(N([H])c4c([H])c([H])c(F)c([H])c4F)c3c2s1


 28 31  0  0  0  0  0  0  0  0999 V2000
  -85.5232   31.0570    1.1166 C   0  0  0  0  0  0  0  0  0  0  0  0
  -85.4939   32.2307    0.5190 N   0  0  0  0  0  0  0  0  0  0  0  0
  -86.1040   32.3955   -0.6271 C   0  0  0  0  0  0  0  0  0  0  0  0
  -86.1295   33.5935   -1.3719 C   0  0  0  0  0  0  0  0  0  0  0  0
  -86.7917   33.6006   -2.5567 C   0  0  0  0  0  0  0  0  0  0  0  0
  -87.4469   32.5278   -3.0976 C   0  0  0  0  0  0  0  0  0  0  0  0
  -88.0729   32.5541   -4.2769 N   0  0  0  0  0  0  0  0  0  0  0  0
  -88.6826   31.4246   -4.7479 C   0  0  0  0  0  0  0  0  0  0  0  0
  -88.6507   30.3054   -4.0288 N   0  0  0  0  0  0  0  0  0  0  0  0
  -88.0450   30.1947   -2.8344 C   0  0  0  0  0  0  0  0  0  0  0  0
  -87.4363   31.3400   -2.3811 C   0  0  0  0  0  0  0  0  0  0  0  0
  -86.7595   31.3121   -1.1611 C   0  0  0  0  0  0  0  0  0  0  0  0
  -86.4438   30.1350    0.0334 S   0  0  0  0  0  0  0  0  0  0  0  0
  -84.9061   30.6600    2.4032 C   0  0  0  0  0  0  0  0  0  0  0  0
  -85.1455   31.3450    3.4320 N   0  0  0  0  0  0  0  0  0  0  0  0
  -85.7534   32.1744    3.4250 H   0  0  0  0  0  0  0  0  0  0  0  0
  -82.8320   29.5426    1.7614 C   0  0  0  0  0  0  0  0  0  0  0  0
  -84.0823   29.5550    2.4670 O   0  0  0  0  0  0  0  0  0  0  0  0
  -88.1583   29.0099   -2.0961 N   0  0  0  0  0  0  0  0  0  0  0  0
  -87.2894   28.6352   -1.6770 H   0  0  0  0  0  0  0  0  0  0  0  0
  -89.3440   28.2698   -1.8091 C   0  0  0  0  0  0  0  0  0  0  0  0
  -89.6744   27.1298   -2.4483 C   0  0  0  0  0  0  0  0  0  0  0  0
  -90.8476   26.4456   -2.0675 C   0  0  0  0  0  0  0  0  0  0  0  0
  -91.6561   26.9163   -1.0611 C   0  0  0  0  0  0  0  0  0  0  0  0
  -92.7863   26.2044   -0.7361 F   0  0  0  0  0  0  0  0  0  0  0  0
  -91.3180   28.0808   -0.4071 C   0  0  0  0  0  0  0  0  0  0  0  0
  -90.1763   28.7396   -0.7841 C   0  0  0  0  0  0  0  0  0  0  0  0
  -89.8332   29.8904   -0.1480 F   0  0  0  0  0  0  0  0  0  0  0  0
 17 18  1  0  0  0
 18 14  1  0  0  0
 14 15  2  0  0  0
 14  1  1  0  0  0
  1  2  2  0  0  0
  2  3  1  0  0  0
  3  4  2  0  0  0
  4  5  1  0  0  0
  5  6  2  0  0  0
  6  7  1  0  0  0
  7  8  2  0  0  0
  8  9  1  0  0  0
  9 10  2  0  0  0
 10 19  1  0  0  0
 19 21  1  0  0  0
 21 22  2  0  0  0
 22 23  1  0  0  0
 23 24  2  0  0  0
 24 25  1  0  0  0
 24 26  1  0  0  0
 26 27  2  0  0  0
 27 28  1  0  0  0
 10 11  1  0  0  0
 11 12  2  0  0  0
 12 13  1  0  0  0
 13  1  1  0  0  0
 12  3  1  0  0  0
 11  6  1  0  0  0
 27 21  1  0  0  0
 15 16  1  0  0  0
 19 20  1  0  0  0
M  END
> <minimizedAffinity>
-7.47374

> <CNNscore>
0.0851059482

> <CNNaffinity>
6.2945127487

> <CNN_VS>
0.5357005000

> <CNNaffinity_variance>
0.0857594758

$$$$
[H]c1sc(-c2c([H])c([H])c3c(c2[H])C([H])([H])C([H])([H])O3)nc1C(=O)N([H])c1nc(C(=O)N([H])C([H])([H])[H])nn1[H]


 29 32  0  0  0  0  0  0  0  0999 V2000
  -85.1670   33.5981   -1.2627 N   0  0  0  0  0  0  0  0  0  0  0  0
  -84.1918   32.9986   -0.5159 C   0  0  0  0  0  0  0  0  0  0  0  0
  -83.0384   33.6569   -0.5271 O   0  0  0  0  0  0  0  0  0  0  0  0
  -84.7709   34.5316   -1.7606 H   0  0  0  0  0  0  0  0  0  0  0  0
  -88.4887   33.8000   -2.4400 C   0  0  0  0  0  0  0  0  0  0  0  0
  -88.6769   32.9501   -1.4340 N   0  0  0  0  0  0  0  0  0  0  0  0
  -87.4790   32.7257   -0.8519 N   0  0  0  0  0  0  0  0  0  0  0  0
  -86.5410   33.4086   -1.4624 C   0  0  0  0  0  0  0  0  0  0  0  0
  -87.1905   34.0857   -2.4653 N   0  0  0  0  0  0  0  0  0  0  0  0
  -87.3763   32.1069   -0.0225 H   0  0  0  0  0  0  0  0  0  0  0  0
  -91.5105   33.8747   -4.7785 C   0  0  0  0  0  0  0  0  0  0  0  0
  -90.4747   33.4109   -3.9029 N   0  0  0  0  0  0  0  0  0  0  0  0
  -89.5438   34.3097   -3.3381 C   0  0  0  0  0  0  0  0  0  0  0  0
  -89.6188   35.5312   -3.6020 O   0  0  0  0  0  0  0  0  0  0  0  0
  -90.4143   32.4107   -3.6877 H   0  0  0  0  0  0  0  0  0  0  0  0
  -84.1783   31.7674    0.2924 C   0  0  0  0  0  0  0  0  0  0  0  0
  -83.1461   31.3717    1.1040 C   0  0  0  0  0  0  0  0  0  0  0  0
  -83.7003   29.8862    1.7191 S   0  0  0  0  0  0  0  0  0  0  0  0
  -85.2100   29.8320    0.9248 C   0  0  0  0  0  0  0  0  0  0  0  0
  -85.2087   30.9434    0.2376 N   0  0  0  0  0  0  0  0  0  0  0  0
  -86.2514   28.7785    1.0056 C   0  0  0  0  0  0  0  0  0  0  0  0
  -85.9477   27.6517    1.7103 C   0  0  0  0  0  0  0  0  0  0  0  0
  -86.8666   26.6212    1.8330 C   0  0  0  0  0  0  0  0  0  0  0  0
  -88.1056   26.7148    1.2451 C   0  0  0  0  0  0  0  0  0  0  0  0
  -89.2037   25.8445    1.2083 O   0  0  0  0  0  0  0  0  0  0  0  0
  -90.3474   26.6395    0.9502 C   0  0  0  0  0  0  0  0  0  0  0  0
  -89.7731   27.6925    0.0215 C   0  0  0  0  0  0  0  0  0  0  0  0
  -88.3983   27.8634    0.5341 C   0  0  0  0  0  0  0  0  0  0  0  0
  -87.4740   28.8985    0.4116 C   0  0  0  0  0  0  0  0  0  0  0  0
 11 12  1  0  0  0
 12 13  1  0  0  0
 13 14  2  0  0  0
 13  5  1  0  0  0
  5  6  2  0  0  0
  6  7  1  0  0  0
  7  8  1  0  0  0
  8  1  1  0  0  0
  1  2  1  0  0  0
  2  3  2  0  0  0
  2 16  1  0  0  0
 16 17  2  0  0  0
 17 18  1  0  0  0
 18 19  1  0  0  0
 19 20  2  0  0  0
 19 21  1  0  0  0
 21 22  2  0  0  0
 22 23  1  0  0  0
 23 24  2  0  0  0
 24 25  1  0  0  0
 25 26  1  0  0  0
 26 27  1  0  0  0
 27 28  1  0  0  0
 28 29  2  0  0  0
  8  9  2  0  0  0
  9  5  1  0  0  0
 20 16  1  0  0  0
 29 21  1  0  0  0
 28 24  1  0  0  0
 12 15  1  0  0  0
  7 10  1  0  0  0
  1  4  1  0  0  0
M  END
> <minimizedAffinity>
-8.20498

> <CNNscore>
0.7259870172

> <CNNaffinity>
6.7783150673

> <CNN_VS>
4.9209685326

> <CNNaffinity_variance>
0.2489961386

$$$$
[H]c1sc(-c2c([H])c([H])c3c(c2[H])C([H])([H])C([H])([H])O3)nc1C(=O)N([H])c1nc(C(=O)N([H])C([H])([H])[H])nn1[H]


 29 32  0  0  0  0  0  0  0  0999 V2000
  -84.0383   32.3801   -0.1986 N   0  0  0  0  0  0  0  0  0  0  0  0
  -83.4608   31.4343    0.6015 C   0  0  0  0  0  0  0  0  0  0  0  0
  -82.1878   31.6870    0.8836 O   0  0  0  0  0  0  0  0  0  0  0  0
  -83.2894   33.1791   -0.4759 H   0  0  0  0  0  0  0  0  0  0  0  0
  -86.8256   33.6895   -1.9239 C   0  0  0  0  0  0  0  0  0  0  0  0
  -87.4674   32.9332   -1.0375 N   0  0  0  0  0  0  0  0  0  0  0  0
  -86.5414   32.3153   -0.2727 N   0  0  0  0  0  0  0  0  0  0  0  0
  -85.3344   32.6593   -0.6521 C   0  0  0  0  0  0  0  0  0  0  0  0
  -85.5253   33.5298   -1.6971 N   0  0  0  0  0  0  0  0  0  0  0  0
  -86.8051   31.6838    0.5102 H   0  0  0  0  0  0  0  0  0  0  0  0
  -87.2955   35.8370   -5.0501 C   0  0  0  0  0  0  0  0  0  0  0  0
  -86.7025   35.0146   -4.0368 N   0  0  0  0  0  0  0  0  0  0  0  0
  -87.4665   34.5345   -2.9510 C   0  0  0  0  0  0  0  0  0  0  0  0
  -88.6806   34.8278   -2.8660 O   0  0  0  0  0  0  0  0  0  0  0  0
  -85.7084   34.7753   -4.1075 H   0  0  0  0  0  0  0  0  0  0  0  0
  -83.9800   30.1951    1.2049 C   0  0  0  0  0  0  0  0  0  0  0  0
  -83.2539   29.3424    1.9964 C   0  0  0  0  0  0  0  0  0  0  0  0
  -84.3703   28.1062    2.3395 S   0  0  0  0  0  0  0  0  0  0  0  0
  -85.7032   28.7215    1.4690 C   0  0  0  0  0  0  0  0  0  0  0  0
  -85.2265   29.8298    0.9670 N   0  0  0  0  0  0  0  0  0  0  0  0
  -87.0574   28.1323    1.3279 C   0  0  0  0  0  0  0  0  0  0  0  0
  -87.8691   28.6538    0.3649 C   0  0  0  0  0  0  0  0  0  0  0  0
  -89.1489   28.1584    0.1695 C   0  0  0  0  0  0  0  0  0  0  0  0
  -89.6265   27.1289    0.9449 C   0  0  0  0  0  0  0  0  0  0  0  0
  -90.8520   26.4488    0.9645 O   0  0  0  0  0  0  0  0  0  0  0  0
  -90.6086   25.1838    1.5540 C   0  0  0  0  0  0  0  0  0  0  0  0
  -89.5527   25.5354    2.5848 C   0  0  0  0  0  0  0  0  0  0  0  0
  -88.7915   26.6109    1.9170 C   0  0  0  0  0  0  0  0  0  0  0  0
  -87.5054   27.1095    2.1123 C   0  0  0  0  0  0  0  0  0  0  0  0
 11 12  1  0  0  0
 12 13  1  0  0  0
 13 14  2  0  0  0
 13  5  1  0  0  0
  5  6  2  0  0  0
  6  7  1  0  0  0
  7  8  1  0  0  0
  8  1  1  0  0  0
  1  2  1  0  0  0
  2  3  2  0  0  0
  2 16  1  0  0  0
 16 17  2  0  0  0
 17 18  1  0  0  0
 18 19  1  0  0  0
 19 20  2  0  0  0
 19 21  1  0  0  0
 21 22  2  0  0  0
 22 23  1  0  0  0
 23 24  2  0  0  0
 24 25  1  0  0  0
 25 26  1  0  0  0
 26 27  1  0  0  0
 27 28  1  0  0  0
 28 29  2  0  0  0
  8  9  2  0  0  0
  9  5  1  0  0  0
 20 16  1  0  0  0
 29 21  1  0  0  0
 28 24  1  0  0  0
 12 15  1  0  0  0
  7 10  1  0  0  0
  1  4  1  0  0  0
M  END
> <minimizedAffinity>
-8.17344

> <CNNscore>
0.6922942400

> <CNNaffinity>
6.7959852219

> <CNN_VS>
4.7048215866

> <CNNaffinity_variance>
0.1625629961

$$$$
[H]c1sc(-c2c([H])c([H])c3c(c2[H])C([H])([H])C([H])([H])O3)nc1C(=O)N([H])c1nc(C(=O)N([H])C([H])([H])[H])nn1[H]


 29 32  0  0  0  0  0  0  0  0999 V2000
  -85.4605   33.4936   -1.4323 N   0  0  0  0  0  0  0  0  0  0  0  0
  -84.4265   33.0419   -0.6609 C   0  0  0  0  0  0  0  0  0  0  0  0
  -83.3746   33.8526   -0.6603 O   0  0  0  0  0  0  0  0  0  0  0  0
  -85.1870   34.4675   -1.9351 H   0  0  0  0  0  0  0  0  0  0  0  0
  -88.4411   31.6541   -1.8710 C   0  0  0  0  0  0  0  0  0  0  0  0
  -88.9070   32.8706   -2.1406 N   0  0  0  0  0  0  0  0  0  0  0  0
  -87.8865   33.7447   -2.0032 N   0  0  0  0  0  0  0  0  0  0  0  0
  -86.7913   33.1146   -1.6536 C   0  0  0  0  0  0  0  0  0  0  0  0
  -87.1526   31.7921   -1.5734 N   0  0  0  0  0  0  0  0  0  0  0  0
  -88.0035   34.7617   -2.1854 H   0  0  0  0  0  0  0  0  0  0  0  0
  -89.4223   28.0209   -2.5365 C   0  0  0  0  0  0  0  0  0  0  0  0
  -88.6798   29.2461   -2.4875 N   0  0  0  0  0  0  0  0  0  0  0  0
  -89.2319   30.4079   -1.9055 C   0  0  0  0  0  0  0  0  0  0  0  0
  -90.3867   30.3741   -1.4233 O   0  0  0  0  0  0  0  0  0  0  0  0
  -87.7346   29.2725   -2.8828 H   0  0  0  0  0  0  0  0  0  0  0  0
  -84.2593   31.8327    0.1633 C   0  0  0  0  0  0  0  0  0  0  0  0
  -83.1120   31.4902    0.8320 C   0  0  0  0  0  0  0  0  0  0  0  0
  -83.5246   30.0042    1.5489 S   0  0  0  0  0  0  0  0  0  0  0  0
  -85.1266   29.8826    0.9728 C   0  0  0  0  0  0  0  0  0  0  0  0
  -85.2584   30.9757    0.2690 N   0  0  0  0  0  0  0  0  0  0  0  0
  -86.1100   28.7994    1.2191 C   0  0  0  0  0  0  0  0  0  0  0  0
  -85.6341   27.6253    1.7223 C   0  0  0  0  0  0  0  0  0  0  0  0
  -86.4884   26.5646    1.9803 C   0  0  0  0  0  0  0  0  0  0  0  0
  -87.8360   26.6756    1.7332 C   0  0  0  0  0  0  0  0  0  0  0  0
  -88.9046   25.7834    1.8966 O   0  0  0  0  0  0  0  0  0  0  0  0
  -90.0794   26.5676    2.0055 C   0  0  0  0  0  0  0  0  0  0  0  0
  -89.7620   27.7099    1.0592 C   0  0  0  0  0  0  0  0  0  0  0  0
  -88.3029   27.8724    1.2231 C   0  0  0  0  0  0  0  0  0  0  0  0
  -87.4434   28.9376    0.9643 C   0  0  0  0  0  0  0  0  0  0  0  0
 11 12  1  0  0  0
 12 13  1  0  0  0
 13 14  2  0  0  0
 13  5  1  0  0  0
  5  6  2  0  0  0
  6  7  1  0  0  0
  7  8  1  0  0  0
  8  1  1  0  0  0
  1  2  1  0  0  0
  2  3  2  0  0  0
  2 16  1  0  0  0
 16 17  2  0  0  0
 17 18  1  0  0  0
 18 19  1  0  0  0
 19 20  2  0  0  0
 19 21  1  0  0  0
 21 22  2  0  0  0
 22 23  1  0  0  0
 23 24  2  0  0  0
 24 25  1  0  0  0
 25 26  1  0  0  0
 26 27  1  0  0  0
 27 28  1  0  0  0
 28 29  2  0  0  0
  8  9  2  0  0  0
  9  5  1  0  0  0
 20 16  1  0  0  0
 29 21  1  0  0  0
 28 24  1  0  0  0
 12 15  1  0  0  0
  7 10  1  0  0  0
  1  4  1  0  0  0
M  END
> <minimizedAffinity>
-7.85129

> <CNNscore>
0.6697309613

> <CNNaffinity>
6.7779297829

> <CNN_VS>
4.5393896103

> <CNNaffinity_variance>
0.1887524873

$$$$
[H]c1sc(-c2c([H])c([H])c3c(c2[H])C([H])([H])C([H])([H])O3)nc1C(=O)N([H])c1nc(C(=O)N([H])C([H])([H])[H])nn1[H]


 29 32  0  0  0  0  0  0  0  0999 V2000
  -83.4701   29.1086    2.0037 N   0  0  0  0  0  0  0  0  0  0  0  0
  -84.2722   28.0161    2.1803 C   0  0  0  0  0  0  0  0  0  0  0  0
  -83.7558   27.1090    3.0016 O   0  0  0  0  0  0  0  0  0  0  0  0
  -82.5084   28.9955    2.5855 H   0  0  0  0  0  0  0  0  0  0  0  0
  -84.7022   31.9675    0.3397 C   0  0  0  0  0  0  0  0  0  0  0  0
  -83.4164   32.3027    0.4028 N   0  0  0  0  0  0  0  0  0  0  0  0
  -82.7607   31.3106    1.0432 N   0  0  0  0  0  0  0  0  0  0  0  0
  -83.5961   30.3604    1.3867 C   0  0  0  0  0  0  0  0  0  0  0  0
  -84.8220   30.7853    0.9362 N   0  0  0  0  0  0  0  0  0  0  0  0
  -81.7323   31.3372    1.1942 H   0  0  0  0  0  0  0  0  0  0  0  0
  -88.1019   32.9738   -1.0869 C   0  0  0  0  0  0  0  0  0  0  0  0
  -87.0462   32.2132   -0.4853 N   0  0  0  0  0  0  0  0  0  0  0  0
  -85.7681   32.7776   -0.2826 C   0  0  0  0  0  0  0  0  0  0  0  0
  -85.5470   33.9595   -0.6311 O   0  0  0  0  0  0  0  0  0  0  0  0
  -87.2285   31.2457   -0.2005 H   0  0  0  0  0  0  0  0  0  0  0  0
  -85.5920   27.6566    1.6342 C   0  0  0  0  0  0  0  0  0  0  0  0
  -86.3608   26.6058    2.0650 C   0  0  0  0  0  0  0  0  0  0  0  0
  -87.7162   26.6877    1.0411 S   0  0  0  0  0  0  0  0  0  0  0  0
  -87.2517   28.0446    0.1160 C   0  0  0  0  0  0  0  0  0  0  0  0
  -86.0948   28.3592    0.6355 N   0  0  0  0  0  0  0  0  0  0  0  0
  -87.9893   28.6921   -0.9966 C   0  0  0  0  0  0  0  0  0  0  0  0
  -89.3510   28.6820   -0.9336 C   0  0  0  0  0  0  0  0  0  0  0  0
  -90.1129   29.2659   -1.9336 C   0  0  0  0  0  0  0  0  0  0  0  0
  -89.5093   29.8684   -3.0115 C   0  0  0  0  0  0  0  0  0  0  0  0
  -90.0225   30.5212   -4.1406 O   0  0  0  0  0  0  0  0  0  0  0  0
  -89.0042   31.3864   -4.6113 C   0  0  0  0  0  0  0  0  0  0  0  0
  -87.7604   30.5733   -4.3070 C   0  0  0  0  0  0  0  0  0  0  0  0
  -88.1279   29.8704   -3.0608 C   0  0  0  0  0  0  0  0  0  0  0  0
  -87.3633   29.2833   -2.0552 C   0  0  0  0  0  0  0  0  0  0  0  0
 11 12  1  0  0  0
 12 13  1  0  0  0
 13 14  2  0  0  0
 13  5  1  0  0  0
  5  6  2  0  0  0
  6  7  1  0  0  0
  7  8  1  0  0  0
  8  1  1  0  0  0
  1  2  1  0  0  0
  2  3  2  0  0  0
  2 16  1  0  0  0
 16 17  2  0  0  0
 17 18  1  0  0  0
 18 19  1  0  0  0
 19 20  2  0  0  0
 19 21  1  0  0  0
 21 22  2  0  0  0
 22 23  1  0  0  0
 23 24  2  0  0  0
 24 25  1  0  0  0
 25 26  1  0  0  0
 26 27  1  0  0  0
 27 28  1  0  0  0
 28 29  2  0  0  0
  8  9  2  0  0  0
  9  5  1  0  0  0
 20 16  1  0  0  0
 29 21  1  0  0  0
 28 24  1  0  0  0
 12 15  1  0  0  0
  7 10  1  0  0  0
  1  4  1  0  0  0
M  END
> <minimizedAffinity>
-8.47309

> <CNNscore>
0.5169968009

> <CNNaffinity>
6.8330292702

> <CNN_VS>
3.5326542854

> <CNNaffinity_variance>
0.1570638120

$$$$
[H]c1sc(-c2c([H])c([H])c3c(c2[H])C([H])([H])C([H])([H])O3)nc1C(=O)N([H])c1nc(C(=O)N([H])C([H])([H])[H])nn1[H]


 29 32  0  0  0  0  0  0  0  0999 V2000
  -87.7093   32.3704   -4.0192 N   0  0  0  0  0  0  0  0  0  0  0  0
  -88.3018   31.1413   -4.0982 C   0  0  0  0  0  0  0  0  0  0  0  0
  -88.6498   30.8012   -5.3340 O   0  0  0  0  0  0  0  0  0  0  0  0
  -87.6622   32.8567   -5.0377 H   0  0  0  0  0  0  0  0  0  0  0  0
  -85.4865   33.4487   -1.4978 C   0  0  0  0  0  0  0  0  0  0  0  0
  -86.3458   34.4637   -1.4642 N   0  0  0  0  0  0  0  0  0  0  0  0
  -87.2915   34.2369   -2.4016 N   0  0  0  0  0  0  0  0  0  0  0  0
  -87.0525   33.1090   -3.0258 C   0  0  0  0  0  0  0  0  0  0  0  0
  -85.9086   32.6176   -2.4460 N   0  0  0  0  0  0  0  0  0  0  0  0
  -88.0892   34.8874   -2.5486 H   0  0  0  0  0  0  0  0  0  0  0  0
  -83.0193   31.9824    1.0258 C   0  0  0  0  0  0  0  0  0  0  0  0
  -84.1599   32.1528    0.1744 N   0  0  0  0  0  0  0  0  0  0  0  0
  -84.2997   33.3034   -0.6318 C   0  0  0  0  0  0  0  0  0  0  0  0
  -83.4179   34.1918   -0.6073 O   0  0  0  0  0  0  0  0  0  0  0  0
  -84.8811   31.4249    0.1553 H   0  0  0  0  0  0  0  0  0  0  0  0
  -88.6263   30.1298   -3.0779 C   0  0  0  0  0  0  0  0  0  0  0  0
  -89.8516   29.5330   -2.9251 C   0  0  0  0  0  0  0  0  0  0  0  0
  -89.6087   28.5146   -1.5850 S   0  0  0  0  0  0  0  0  0  0  0  0
  -87.9716   28.8875   -1.2784 C   0  0  0  0  0  0  0  0  0  0  0  0
  -87.7014   29.7635   -2.2095 N   0  0  0  0  0  0  0  0  0  0  0  0
  -87.0907   28.3436   -0.2158 C   0  0  0  0  0  0  0  0  0  0  0  0
  -87.3190   27.0628    0.1911 C   0  0  0  0  0  0  0  0  0  0  0  0
  -86.5396   26.4815    1.1790 C   0  0  0  0  0  0  0  0  0  0  0  0
  -85.5183   27.1865    1.7698 C   0  0  0  0  0  0  0  0  0  0  0  0
  -84.5940   26.8545    2.7699 O   0  0  0  0  0  0  0  0  0  0  0  0
  -83.4814   27.7150    2.6009 C   0  0  0  0  0  0  0  0  0  0  0  0
  -84.1605   28.9904    2.1393 C   0  0  0  0  0  0  0  0  0  0  0  0
  -85.2994   28.4840    1.3464 C   0  0  0  0  0  0  0  0  0  0  0  0
  -86.0833   29.0671    0.3533 C   0  0  0  0  0  0  0  0  0  0  0  0
 11 12  1  0  0  0
 12 13  1  0  0  0
 13 14  2  0  0  0
 13  5  1  0  0  0
  5  6  2  0  0  0
  6  7  1  0  0  0
  7  8  1  0  0  0
  8  1  1  0  0  0
  1  2  1  0  0  0
  2  3  2  0  0  0
  2 16  1  0  0  0
 16 17  2  0  0  0
 17 18  1  0  0  0
 18 19  1  0  0  0
 19 20  2  0  0  0
 19 21  1  0  0  0
 21 22  2  0  0  0
 22 23  1  0  0  0
 23 24  2  0  0  0
 24 25  1  0  0  0
 25 26  1  0  0  0
 26 27  1  0  0  0
 27 28  1  0  0  0
 28 29  2  0  0  0
  8  9  2  0  0  0
  9  5  1  0  0  0
 20 16  1  0  0  0
 29 21  1  0  0  0
 28 24  1  0  0  0
 12 15  1  0  0  0
  7 10  1  0  0  0
  1  4  1  0  0  0
M  END
> <minimizedAffinity>
-7.87013

> <CNNscore>
0.4933822453

> <CNNaffinity>
6.6594381332

> <CNN_VS>
3.2856485844

> <CNNaffinity_variance>
0.0531320646

$$$$
[H]c1sc(-c2c([H])c([H])c3c(c2[H])C([H])([H])C([H])([H])O3)nc1C(=O)N([H])c1nc(C(=O)N([H])C([H])([H])[H])nn1[H]


 29 32  0  0  0  0  0  0  0  0999 V2000
  -86.9370   33.7966   -1.6954 N   0  0  0  0  0  0  0  0  0  0  0  0
  -88.1046   33.2441   -2.1421 C   0  0  0  0  0  0  0  0  0  0  0  0
  -88.9390   34.1305   -2.6731 O   0  0  0  0  0  0  0  0  0  0  0  0
  -86.9390   34.9152   -1.8533 H   0  0  0  0  0  0  0  0  0  0  0  0
  -84.4356   32.1782    0.1977 C   0  0  0  0  0  0  0  0  0  0  0  0
  -83.6564   32.8241   -0.6656 N   0  0  0  0  0  0  0  0  0  0  0  0
  -84.4553   33.5085   -1.5128 N   0  0  0  0  0  0  0  0  0  0  0  0
  -85.7155   33.3116   -1.2092 C   0  0  0  0  0  0  0  0  0  0  0  0
  -85.6922   32.4690   -0.1249 N   0  0  0  0  0  0  0  0  0  0  0  0
  -84.0707   34.1113   -2.2676 H   0  0  0  0  0  0  0  0  0  0  0  0
  -82.7940   29.2572    2.0359 C   0  0  0  0  0  0  0  0  0  0  0  0
  -83.2666   30.1200    0.9933 N   0  0  0  0  0  0  0  0  0  0  0  0
  -83.9619   31.3112    1.2948 C   0  0  0  0  0  0  0  0  0  0  0  0
  -84.1722   31.6242    2.4886 O   0  0  0  0  0  0  0  0  0  0  0  0
  -83.0939   29.8625    0.0164 H   0  0  0  0  0  0  0  0  0  0  0  0
  -88.6095   31.8605   -2.1443 C   0  0  0  0  0  0  0  0  0  0  0  0
  -88.9308   31.1432   -3.2681 C   0  0  0  0  0  0  0  0  0  0  0  0
  -89.4793   29.6666   -2.6271 S   0  0  0  0  0  0  0  0  0  0  0  0
  -89.2778   30.0209   -0.9697 C   0  0  0  0  0  0  0  0  0  0  0  0
  -88.8060   31.2391   -0.9957 N   0  0  0  0  0  0  0  0  0  0  0  0
  -89.5703   29.1513    0.1961 C   0  0  0  0  0  0  0  0  0  0  0  0
  -90.7674   29.3285    0.8236 C   0  0  0  0  0  0  0  0  0  0  0  0
  -91.1160   28.5558    1.9204 C   0  0  0  0  0  0  0  0  0  0  0  0
  -90.2595   27.5930    2.3985 C   0  0  0  0  0  0  0  0  0  0  0  0
  -90.3530   26.6887    3.4654 O   0  0  0  0  0  0  0  0  0  0  0  0
  -89.4759   25.6160    3.1707 C   0  0  0  0  0  0  0  0  0  0  0  0
  -88.3451   26.3423    2.4674 C   0  0  0  0  0  0  0  0  0  0  0  0
  -89.0497   27.4254    1.7514 C   0  0  0  0  0  0  0  0  0  0  0  0
  -88.7005   28.2026    0.6492 C   0  0  0  0  0  0  0  0  0  0  0  0
 11 12  1  0  0  0
 12 13  1  0  0  0
 13 14  2  0  0  0
 13  5  1  0  0  0
  5  6  2  0  0  0
  6  7  1  0  0  0
  7  8  1  0  0  0
  8  1  1  0  0  0
  1  2  1  0  0  0
  2  3  2  0  0  0
  2 16  1  0  0  0
 16 17  2  0  0  0
 17 18  1  0  0  0
 18 19  1  0  0  0
 19 20  2  0  0  0
 19 21  1  0  0  0
 21 22  2  0  0  0
 22 23  1  0  0  0
 23 24  2  0  0  0
 24 25  1  0  0  0
 25 26  1  0  0  0
 26 27  1  0  0  0
 27 28  1  0  0  0
 28 29  2  0  0  0
  8  9  2  0  0  0
  9  5  1  0  0  0
 20 16  1  0  0  0
 29 21  1  0  0  0
 28 24  1  0  0  0
 12 15  1  0  0  0
  7 10  1  0  0  0
  1  4  1  0  0  0
M  END
> <minimizedAffinity>
-8.11391

> <CNNscore>
0.4803501070

> <CNNaffinity>
6.4877586365

> <CNN_VS>
3.1163954735

> <CNNaffinity_variance>
0.0808561593

$$$$
[H]c1sc(-c2c([H])c([H])c3c(c2[H])C([H])([H])C([H])([H])O3)nc1C(=O)N([H])c1nc(C(=O)N([H])C([H])([H])[H])nn1[H]


 29 32  0  0  0  0  0  0  0  0999 V2000
  -85.1305   27.9419    2.0900 N   0  0  0  0  0  0  0  0  0  0  0  0
  -84.1292   28.8502    1.8887 C   0  0  0  0  0  0  0  0  0  0  0  0
  -82.9815   28.5067    2.4621 O   0  0  0  0  0  0  0  0  0  0  0  0
  -84.7698   27.0869    2.7342 H   0  0  0  0  0  0  0  0  0  0  0  0
  -88.2076   26.5461    1.0685 C   0  0  0  0  0  0  0  0  0  0  0  0
  -88.4194   27.8066    0.6996 N   0  0  0  0  0  0  0  0  0  0  0  0
  -87.3261   28.5255    1.0347 N   0  0  0  0  0  0  0  0  0  0  0  0
  -86.4319   27.7549    1.6053 C   0  0  0  0  0  0  0  0  0  0  0  0
  -86.9991   26.5042    1.6211 N   0  0  0  0  0  0  0  0  0  0  0  0
  -87.2480   29.5407    0.8242 H   0  0  0  0  0  0  0  0  0  0  0  0
  -89.7377   23.2863   -0.2112 C   0  0  0  0  0  0  0  0  0  0  0  0
  -88.8381   24.3840   -0.0100 N   0  0  0  0  0  0  0  0  0  0  0  0
  -89.1559   25.4297    0.8837 C   0  0  0  0  0  0  0  0  0  0  0  0
  -90.2379   25.4039    1.5129 O   0  0  0  0  0  0  0  0  0  0  0  0
  -87.9527   24.4040   -0.5257 H   0  0  0  0  0  0  0  0  0  0  0  0
  -84.0834   30.1304    1.1618 C   0  0  0  0  0  0  0  0  0  0  0  0
  -82.9837   30.9451    1.0740 C   0  0  0  0  0  0  0  0  0  0  0  0
  -83.5611   32.2579    0.1599 S   0  0  0  0  0  0  0  0  0  0  0  0
  -85.1640   31.7190   -0.0706 C   0  0  0  0  0  0  0  0  0  0  0  0
  -85.1712   30.5739    0.5587 N   0  0  0  0  0  0  0  0  0  0  0  0
  -86.2620   32.3946   -0.8047 C   0  0  0  0  0  0  0  0  0  0  0  0
  -87.5376   32.0145   -0.5104 C   0  0  0  0  0  0  0  0  0  0  0  0
  -88.6189   32.5978   -1.1524 C   0  0  0  0  0  0  0  0  0  0  0  0
  -88.4262   33.5736   -2.1010 C   0  0  0  0  0  0  0  0  0  0  0  0
  -89.3163   34.3168   -2.8884 O   0  0  0  0  0  0  0  0  0  0  0  0
  -88.6391   35.5037   -3.2621 C   0  0  0  0  0  0  0  0  0  0  0  0
  -87.2191   34.9959   -3.4254 C   0  0  0  0  0  0  0  0  0  0  0  0
  -87.1270   33.9481   -2.3882 C   0  0  0  0  0  0  0  0  0  0  0  0
  -86.0411   33.3612   -1.7423 C   0  0  0  0  0  0  0  0  0  0  0  0
 11 12  1  0  0  0
 12 13  1  0  0  0
 13 14  2  0  0  0
 13  5  1  0  0  0
  5  6  2  0  0  0
  6  7  1  0  0  0
  7  8  1  0  0  0
  8  1  1  0  0  0
  1  2  1  0  0  0
  2  3  2  0  0  0
  2 16  1  0  0  0
 16 17  2  0  0  0
 17 18  1  0  0  0
 18 19  1  0  0  0
 19 20  2  0  0  0
 19 21  1  0  0  0
 21 22  2  0  0  0
 22 23  1  0  0  0
 23 24  2  0  0  0
 24 25  1  0  0  0
 25 26  1  0  0  0
 26 27  1  0  0  0
 27 28  1  0  0  0
 28 29  2  0  0  0
  8  9  2  0  0  0
  9  5  1  0  0  0
 20 16  1  0  0  0
 29 21  1  0  0  0
 28 24  1  0  0  0
 12 15  1  0  0  0
  7 10  1  0  0  0
  1  4  1  0  0  0
M  END
> <minimizedAffinity>
-8.80618

> <CNNscore>
0.4454082549

> <CNNaffinity>
6.6573181152

> <CNN_VS>
2.9652245045

> <CNNaffinity_variance>
0.2365864515

$$$$
[H]c1sc(-c2c([H])c([H])c3c(c2[H])C([H])([H])C([H])([H])O3)nc1C(=O)N([H])c1nc(C(=O)N([H])C([H])([H])[H])nn1[H]


 29 32  0  0  0  0  0  0  0  0999 V2000
  -84.7518   32.4390    0.5095 N   0  0  0  0  0  0  0  0  0  0  0  0
  -85.7006   32.8822   -0.3688 C   0  0  0  0  0  0  0  0  0  0  0  0
  -85.6154   34.1823   -0.6266 O   0  0  0  0  0  0  0  0  0  0  0  0
  -84.0987   33.2932    0.8556 H   0  0  0  0  0  0  0  0  0  0  0  0
  -84.6199   29.1020    1.6531 C   0  0  0  0  0  0  0  0  0  0  0  0
  -83.3415   29.4292    1.8213 N   0  0  0  0  0  0  0  0  0  0  0  0
  -83.1828   30.7055    1.4086 N   0  0  0  0  0  0  0  0  0  0  0  0
  -84.3240   31.1918    0.9840 C   0  0  0  0  0  0  0  0  0  0  0  0
  -85.2271   30.1695    1.1437 N   0  0  0  0  0  0  0  0  0  0  0  0
  -82.2662   31.1932    1.4647 H   0  0  0  0  0  0  0  0  0  0  0  0
  -87.2070   26.3200    2.0686 C   0  0  0  0  0  0  0  0  0  0  0  0
  -86.5964   27.5798    1.7606 N   0  0  0  0  0  0  0  0  0  0  0  0
  -85.2182   27.7928    1.9810 C   0  0  0  0  0  0  0  0  0  0  0  0
  -84.5135   26.8717    2.4523 O   0  0  0  0  0  0  0  0  0  0  0  0
  -87.1745   28.3331    1.3749 H   0  0  0  0  0  0  0  0  0  0  0  0
  -86.7936   32.1948   -1.0776 C   0  0  0  0  0  0  0  0  0  0  0  0
  -87.2400   32.5166   -2.3337 C   0  0  0  0  0  0  0  0  0  0  0  0
  -88.5134   31.4150   -2.5733 S   0  0  0  0  0  0  0  0  0  0  0  0
  -88.4244   30.5978   -1.0775 C   0  0  0  0  0  0  0  0  0  0  0  0
  -87.4342   31.2064   -0.4806 N   0  0  0  0  0  0  0  0  0  0  0  0
  -89.2685   29.4783   -0.5926 C   0  0  0  0  0  0  0  0  0  0  0  0
  -90.3232   29.7932    0.2116 C   0  0  0  0  0  0  0  0  0  0  0  0
  -91.1598   28.8047    0.7061 C   0  0  0  0  0  0  0  0  0  0  0  0
  -90.9422   27.4837    0.3947 C   0  0  0  0  0  0  0  0  0  0  0  0
  -91.6142   26.3053    0.7473 O   0  0  0  0  0  0  0  0  0  0  0  0
  -91.3100   25.3466   -0.2503 C   0  0  0  0  0  0  0  0  0  0  0  0
  -89.8768   25.7126   -0.5861 C   0  0  0  0  0  0  0  0  0  0  0  0
  -89.8688   27.1807   -0.4218 C   0  0  0  0  0  0  0  0  0  0  0  0
  -89.0288   28.1750   -0.9181 C   0  0  0  0  0  0  0  0  0  0  0  0
 11 12  1  0  0  0
 12 13  1  0  0  0
 13 14  2  0  0  0
 13  5  1  0  0  0
  5  6  2  0  0  0
  6  7  1  0  0  0
  7  8  1  0  0  0
  8  1  1  0  0  0
  1  2  1  0  0  0
  2  3  2  0  0  0
  2 16  1  0  0  0
 16 17  2  0  0  0
 17 18  1  0  0  0
 18 19  1  0  0  0
 19 20  2  0  0  0
 19 21  1  0  0  0
 21 22  2  0  0  0
 22 23  1  0  0  0
 23 24  2  0  0  0
 24 25  1  0  0  0
 25 26  1  0  0  0
 26 27  1  0  0  0
 27 28  1  0  0  0
 28 29  2  0  0  0
  8  9  2  0  0  0
  9  5  1  0  0  0
 20 16  1  0  0  0
 29 21  1  0  0  0
 28 24  1  0  0  0
 12 15  1  0  0  0
  7 10  1  0  0  0
  1  4  1  0  0  0
M  END
> <minimizedAffinity>
-7.48547

> <CNNscore>
0.4369543195

> <CNNaffinity>
6.6360802650

> <CNN_VS>
2.8996639252

> <CNNaffinity_variance>
0.2371990681

$$$$
[H]c1sc(-c2c([H])c([H])c3c(c2[H])C([H])([H])C([H])([H])O3)nc1C(=O)N([H])c1nc(C(=O)N([H])C([H])([H])[H])nn1[H]


 29 32  0  0  0  0  0  0  0  0999 V2000
  -85.6525   26.6933    2.0472 N   0  0  0  0  0  0  0  0  0  0  0  0
  -84.6051   27.5558    2.2122 C   0  0  0  0  0  0  0  0  0  0  0  0
  -83.6436   27.0758    2.9926 O   0  0  0  0  0  0  0  0  0  0  0  0
  -85.4866   25.7463    2.6405 H   0  0  0  0  0  0  0  0  0  0  0  0
  -88.8156   27.3037    0.6041 C   0  0  0  0  0  0  0  0  0  0  0  0
  -88.4698   26.2302   -0.1014 N   0  0  0  0  0  0  0  0  0  0  0  0
  -87.2405   25.8457    0.3052 N   0  0  0  0  0  0  0  0  0  0  0  0
  -86.8009   26.6464    1.2457 C   0  0  0  0  0  0  0  0  0  0  0  0
  -87.8054   27.5651    1.4280 N   0  0  0  0  0  0  0  0  0  0  0  0
  -86.7658   25.0092   -0.0898 H   0  0  0  0  0  0  0  0  0  0  0  0
  -91.7704   29.1486   -0.9677 C   0  0  0  0  0  0  0  0  0  0  0  0
  -90.5394   28.4321   -0.8068 N   0  0  0  0  0  0  0  0  0  0  0  0
  -90.0881   28.0406    0.4724 C   0  0  0  0  0  0  0  0  0  0  0  0
  -90.7686   28.3204    1.4853 O   0  0  0  0  0  0  0  0  0  0  0  0
  -89.9831   28.2039   -1.6368 H   0  0  0  0  0  0  0  0  0  0  0  0
  -84.3440   28.9090    1.6925 C   0  0  0  0  0  0  0  0  0  0  0  0
  -83.1773   29.6074    1.8708 C   0  0  0  0  0  0  0  0  0  0  0  0
  -83.5002   31.0833    1.0899 S   0  0  0  0  0  0  0  0  0  0  0  0
  -85.0927   30.7519    0.5731 C   0  0  0  0  0  0  0  0  0  0  0  0
  -85.2900   29.5408    1.0220 N   0  0  0  0  0  0  0  0  0  0  0  0
  -86.0097   31.6310   -0.1933 C   0  0  0  0  0  0  0  0  0  0  0  0
  -85.4977   32.7975   -0.6784 C   0  0  0  0  0  0  0  0  0  0  0  0
  -86.2895   33.6733   -1.4047 C   0  0  0  0  0  0  0  0  0  0  0  0
  -87.6101   33.3824   -1.6510 C   0  0  0  0  0  0  0  0  0  0  0  0
  -88.6180   34.0706   -2.3405 O   0  0  0  0  0  0  0  0  0  0  0  0
  -89.5757   33.1047   -2.7364 C   0  0  0  0  0  0  0  0  0  0  0  0
  -89.5328   32.1458   -1.5618 C   0  0  0  0  0  0  0  0  0  0  0  0
  -88.1143   32.1959   -1.1526 C   0  0  0  0  0  0  0  0  0  0  0  0
  -87.3175   31.3165   -0.4229 C   0  0  0  0  0  0  0  0  0  0  0  0
 11 12  1  0  0  0
 12 13  1  0  0  0
 13 14  2  0  0  0
 13  5  1  0  0  0
  5  6  2  0  0  0
  6  7  1  0  0  0
  7  8  1  0  0  0
  8  1  1  0  0  0
  1  2  1  0  0  0
  2  3  2  0  0  0
  2 16  1  0  0  0
 16 17  2  0  0  0
 17 18  1  0  0  0
 18 19  1  0  0  0
 19 20  2  0  0  0
 19 21  1  0  0  0
 21 22  2  0  0  0
 22 23  1  0  0  0
 23 24  2  0  0  0
 24 25  1  0  0  0
 25 26  1  0  0  0
 26 27  1  0  0  0
 27 28  1  0  0  0
 28 29  2  0  0  0
  8  9  2  0  0  0
  9  5  1  0  0  0
 20 16  1  0  0  0
 29 21  1  0  0  0
 28 24  1  0  0  0
 12 15  1  0  0  0
  7 10  1  0  0  0
  1  4  1  0  0  0
M  END
> <minimizedAffinity>
-8.75729

> <CNNscore>
0.4334129691

> <CNNaffinity>
6.3511404991

> <CNN_VS>
2.7526667118

> <CNNaffinity_variance>
0.0912384838

$$$$
[H]c1sc(-c2c([H])c([H])c3c(c2[H])C([H])([H])C([H])([H])O3)nc1C(=O)N([H])c1nc2c([H])c([H])c([H])c([H])c2n1C([H])([H])[H]


 28 32  0  0  0  0  0  0  0  0999 V2000
  -86.6747   31.6711   -0.8276 N   0  0  0  0  0  0  0  0  0  0  0  0
  -86.6262   33.0429   -1.0124 C   0  0  0  0  0  0  0  0  0  0  0  0
  -85.9227   33.8560   -0.4023 O   0  0  0  0  0  0  0  0  0  0  0  0
  -87.4047   31.1924   -1.5159 H   0  0  0  0  0  0  0  0  0  0  0  0
  -87.5596   28.9285    0.6467 C   0  0  0  0  0  0  0  0  0  0  0  0
  -86.3114   29.6352    0.5831 N   0  0  0  0  0  0  0  0  0  0  0  0
  -85.9895   30.7801   -0.0058 C   0  0  0  0  0  0  0  0  0  0  0  0
  -84.6435   31.0189    0.2871 N   0  0  0  0  0  0  0  0  0  0  0  0
  -84.1723   30.0403    1.0307 C   0  0  0  0  0  0  0  0  0  0  0  0
  -82.9076   29.7964    1.5850 C   0  0  0  0  0  0  0  0  0  0  0  0
  -82.7378   28.6671    2.3189 C   0  0  0  0  0  0  0  0  0  0  0  0
  -83.7526   27.7719    2.5305 C   0  0  0  0  0  0  0  0  0  0  0  0
  -84.9933   28.0168    1.9833 C   0  0  0  0  0  0  0  0  0  0  0  0
  -85.2009   29.1578    1.2302 C   0  0  0  0  0  0  0  0  0  0  0  0
  -87.5057   33.6902   -2.0626 C   0  0  0  0  0  0  0  0  0  0  0  0
  -88.8437   33.4500   -2.1344 C   0  0  0  0  0  0  0  0  0  0  0  0
  -89.2922   34.4360   -3.4866 S   0  0  0  0  0  0  0  0  0  0  0  0
  -87.7532   35.0684   -3.8476 C   0  0  0  0  0  0  0  0  0  0  0  0
  -86.9887   34.5029   -2.9313 N   0  0  0  0  0  0  0  0  0  0  0  0
  -87.3814   36.0068   -4.9129 C   0  0  0  0  0  0  0  0  0  0  0  0
  -87.9535   35.8885   -6.1605 C   0  0  0  0  0  0  0  0  0  0  0  0
  -87.6340   36.7508   -7.1973 C   0  0  0  0  0  0  0  0  0  0  0  0
  -86.7215   37.7666   -7.0092 C   0  0  0  0  0  0  0  0  0  0  0  0
  -86.2052   38.7746   -7.8475 O   0  0  0  0  0  0  0  0  0  0  0  0
  -84.9401   39.1719   -7.3142 C   0  0  0  0  0  0  0  0  0  0  0  0
  -85.2174   39.0491   -5.8335 C   0  0  0  0  0  0  0  0  0  0  0  0
  -86.1439   37.8942   -5.7674 C   0  0  0  0  0  0  0  0  0  0  0  0
  -86.4714   37.0191   -4.7234 C   0  0  0  0  0  0  0  0  0  0  0  0
  5  6  1  0  0  0
  6  7  1  0  0  0
  7  1  1  0  0  0
  1  2  1  0  0  0
  2  3  2  0  0  0
  2 15  1  0  0  0
 15 16  2  0  0  0
 16 17  1  0  0  0
 17 18  1  0  0  0
 18 19  2  0  0  0
 18 20  1  0  0  0
 20 21  2  0  0  0
 21 22  1  0  0  0
 22 23  2  0  0  0
 23 24  1  0  0  0
 24 25  1  0  0  0
 25 26  1  0  0  0
 26 27  1  0  0  0
 27 28  2  0  0  0
  7  8  2  0  0  0
  8  9  1  0  0  0
  9 10  2  0  0  0
 10 11  1  0  0  0
 11 12  2  0  0  0
 12 13  1  0  0  0
 13 14  2  0  0  0
 14  6  1  0  0  0
 19 15  1  0  0  0
 28 20  1  0  0  0
 14  9  1  0  0  0
 27 23  1  0  0  0
  1  4  1  0  0  0
M  END
> <minimizedAffinity>
-9.58176

> <CNNscore>
0.2087523639

> <CNNaffinity>
5.9204697609

> <CNN_VS>
1.2359120846

> <CNNaffinity_variance>
0.0970632285

$$$$
[H]c1sc(-c2c([H])c([H])c3c(c2[H])C([H])([H])C([H])([H])O3)nc1C(=O)N([H])c1nc2c([H])c([H])c([H])c([H])c2n1C([H])([H])[H]


 28 32  0  0  0  0  0  0  0  0999 V2000
  -87.7954   34.9251   -4.1188 N   0  0  0  0  0  0  0  0  0  0  0  0
  -87.9523   33.5523   -4.0230 C   0  0  0  0  0  0  0  0  0  0  0  0
  -88.0477   32.7431   -4.9528 O   0  0  0  0  0  0  0  0  0  0  0  0
  -87.7433   35.4006   -3.1153 H   0  0  0  0  0  0  0  0  0  0  0  0
  -89.6202   35.5274   -6.7238 C   0  0  0  0  0  0  0  0  0  0  0  0
  -88.3973   36.1057   -6.2427 N   0  0  0  0  0  0  0  0  0  0  0  0
  -87.6541   35.8115   -5.1833 C   0  0  0  0  0  0  0  0  0  0  0  0
  -86.5478   36.6655   -5.2179 N   0  0  0  0  0  0  0  0  0  0  0  0
  -86.6287   37.4517   -6.2704 C   0  0  0  0  0  0  0  0  0  0  0  0
  -85.7970   38.4697   -6.7585 C   0  0  0  0  0  0  0  0  0  0  0  0
  -86.1697   39.1099   -7.8961 C   0  0  0  0  0  0  0  0  0  0  0  0
  -87.3188   38.7939   -8.5712 C   0  0  0  0  0  0  0  0  0  0  0  0
  -88.1321   37.7927   -8.0869 C   0  0  0  0  0  0  0  0  0  0  0  0
  -87.7824   37.1200   -6.9304 C   0  0  0  0  0  0  0  0  0  0  0  0
  -88.0229   32.8985   -2.6581 C   0  0  0  0  0  0  0  0  0  0  0  0
  -89.1950   32.7663   -1.9785 C   0  0  0  0  0  0  0  0  0  0  0  0
  -88.6610   31.9710   -0.5349 S   0  0  0  0  0  0  0  0  0  0  0  0
  -87.0033   31.8722   -0.9105 C   0  0  0  0  0  0  0  0  0  0  0  0
  -86.9444   32.4426   -2.1001 N   0  0  0  0  0  0  0  0  0  0  0  0
  -85.9202   31.2952   -0.1058 C   0  0  0  0  0  0  0  0  0  0  0  0
  -84.6709   31.8755   -0.1216 C   0  0  0  0  0  0  0  0  0  0  0  0
  -83.6177   31.3666    0.6215 C   0  0  0  0  0  0  0  0  0  0  0  0
  -83.7903   30.2490    1.4095 C   0  0  0  0  0  0  0  0  0  0  0  0
  -82.9339   29.5161    2.2549 O   0  0  0  0  0  0  0  0  0  0  0  0
  -83.4686   28.1955    2.3694 C   0  0  0  0  0  0  0  0  0  0  0  0
  -84.9493   28.4978    2.3475 C   0  0  0  0  0  0  0  0  0  0  0  0
  -85.0338   29.6612    1.4332 C   0  0  0  0  0  0  0  0  0  0  0  0
  -86.0944   30.1808    0.6795 C   0  0  0  0  0  0  0  0  0  0  0  0
  5  6  1  0  0  0
  6  7  1  0  0  0
  7  1  1  0  0  0
  1  2  1  0  0  0
  2  3  2  0  0  0
  2 15  1  0  0  0
 15 16  2  0  0  0
 16 17  1  0  0  0
 17 18  1  0  0  0
 18 19  2  0  0  0
 18 20  1  0  0  0
 20 21  2  0  0  0
 21 22  1  0  0  0
 22 23  2  0  0  0
 23 24  1  0  0  0
 24 25  1  0  0  0
 25 26  1  0  0  0
 26 27  1  0  0  0
 27 28  2  0  0  0
  7  8  2  0  0  0
  8  9  1  0  0  0
  9 10  2  0  0  0
 10 11  1  0  0  0
 11 12  2  0  0  0
 12 13  1  0  0  0
 13 14  2  0  0  0
 14  6  1  0  0  0
 19 15  1  0  0  0
 28 20  1  0  0  0
 14  9  1  0  0  0
 27 23  1  0  0  0
  1  4  1  0  0  0
M  END
> <minimizedAffinity>
-8.37638

> <CNNscore>
0.1983184069

> <CNNaffinity>
5.7858591080

> <CNN_VS>
1.1474423409

> <CNNaffinity_variance>
0.1388460696

$$$$
[H]c1sc(-c2c([H])c([H])c3c(c2[H])C([H])([H])C([H])([H])O3)nc1C(=O)N([H])c1nc2c([H])c([H])c([H])c([H])c2n1C([H])([H])[H]


 28 32  0  0  0  0  0  0  0  0999 V2000
  -86.9746   35.2548   -3.3996 N   0  0  0  0  0  0  0  0  0  0  0  0
  -87.2047   33.8895   -3.3635 C   0  0  0  0  0  0  0  0  0  0  0  0
  -87.7778   33.2042   -4.2180 O   0  0  0  0  0  0  0  0  0  0  0  0
  -86.4399   35.6025   -2.4891 H   0  0  0  0  0  0  0  0  0  0  0  0
  -87.9192   38.3365   -3.1003 C   0  0  0  0  0  0  0  0  0  0  0  0
  -87.5855   37.5318   -4.2416 N   0  0  0  0  0  0  0  0  0  0  0  0
  -87.2324   36.2558   -4.3325 C   0  0  0  0  0  0  0  0  0  0  0  0
  -87.0630   35.9809   -5.6928 N   0  0  0  0  0  0  0  0  0  0  0  0
  -87.3067   37.0659   -6.3970 C   0  0  0  0  0  0  0  0  0  0  0  0
  -87.2780   37.3276   -7.7743 C   0  0  0  0  0  0  0  0  0  0  0  0
  -87.5850   38.5816   -8.1937 C   0  0  0  0  0  0  0  0  0  0  0  0
  -87.9175   39.5844   -7.3220 C   0  0  0  0  0  0  0  0  0  0  0  0
  -87.9441   39.3214   -5.9697 C   0  0  0  0  0  0  0  0  0  0  0  0
  -87.6367   38.0546   -5.5081 C   0  0  0  0  0  0  0  0  0  0  0  0
  -86.7290   33.0795   -2.1749 C   0  0  0  0  0  0  0  0  0  0  0  0
  -85.6220   33.4231   -1.4610 C   0  0  0  0  0  0  0  0  0  0  0  0
  -85.5849   32.1664   -0.2688 S   0  0  0  0  0  0  0  0  0  0  0  0
  -86.9697   31.3130   -0.7717 C   0  0  0  0  0  0  0  0  0  0  0  0
  -87.3822   32.0208   -1.8075 N   0  0  0  0  0  0  0  0  0  0  0  0
  -87.5502   30.0966   -0.1914 C   0  0  0  0  0  0  0  0  0  0  0  0
  -88.9087   29.8810   -0.2694 C   0  0  0  0  0  0  0  0  0  0  0  0
  -89.5020   28.7477    0.2636 C   0  0  0  0  0  0  0  0  0  0  0  0
  -88.7408   27.7888    0.8967 C   0  0  0  0  0  0  0  0  0  0  0  0
  -89.0470   26.5637    1.5218 O   0  0  0  0  0  0  0  0  0  0  0  0
  -87.9981   26.2801    2.4503 C   0  0  0  0  0  0  0  0  0  0  0  0
  -86.8093   26.8287    1.6951 C   0  0  0  0  0  0  0  0  0  0  0  0
  -87.3831   27.9935    0.9805 C   0  0  0  0  0  0  0  0  0  0  0  0
  -86.7895   29.1415    0.4394 C   0  0  0  0  0  0  0  0  0  0  0  0
  5  6  1  0  0  0
  6  7  1  0  0  0
  7  1  1  0  0  0
  1  2  1  0  0  0
  2  3  2  0  0  0
  2 15  1  0  0  0
 15 16  2  0  0  0
 16 17  1  0  0  0
 17 18  1  0  0  0
 18 19  2  0  0  0
 18 20  1  0  0  0
 20 21  2  0  0  0
 21 22  1  0  0  0
 22 23  2  0  0  0
 23 24  1  0  0  0
 24 25  1  0  0  0
 25 26  1  0  0  0
 26 27  1  0  0  0
 27 28  2  0  0  0
  7  8  2  0  0  0
  8  9  1  0  0  0
  9 10  2  0  0  0
 10 11  1  0  0  0
 11 12  2  0  0  0
 12 13  1  0  0  0
 13 14  2  0  0  0
 14  6  1  0  0  0
 19 15  1  0  0  0
 28 20  1  0  0  0
 14  9  1  0  0  0
 27 23  1  0  0  0
  1  4  1  0  0  0
M  END
> <minimizedAffinity>
-7.44689

> <CNNscore>
0.1783104390

> <CNNaffinity>
5.6637172699

> <CNN_VS>
1.0098998547

> <CNNaffinity_variance>
0.2198556215

$$$$
[H]c1sc(-c2c([H])c([H])c3c(c2[H])C([H])([H])C([H])([H])O3)nc1C(=O)N([H])c1nc2c([H])c([H])c([H])c([H])c2n1C([H])([H])[H]


 28 32  0  0  0  0  0  0  0  0999 V2000
  -87.1429   33.0948   -1.7807 N   0  0  0  0  0  0  0  0  0  0  0  0
  -87.4701   32.9947   -3.1227 C   0  0  0  0  0  0  0  0  0  0  0  0
  -86.9587   32.2471   -3.9641 O   0  0  0  0  0  0  0  0  0  0  0  0
  -87.7663   33.8570   -1.2647 H   0  0  0  0  0  0  0  0  0  0  0  0
  -87.4055   30.4381    0.0501 C   0  0  0  0  0  0  0  0  0  0  0  0
  -86.3091   31.3254   -0.2183 N   0  0  0  0  0  0  0  0  0  0  0  0
  -86.2437   32.4299   -0.9511 C   0  0  0  0  0  0  0  0  0  0  0  0
  -84.9388   32.9168   -0.8299 N   0  0  0  0  0  0  0  0  0  0  0  0
  -84.2413   32.1222   -0.0459 C   0  0  0  0  0  0  0  0  0  0  0  0
  -82.9094   32.1538    0.3915 C   0  0  0  0  0  0  0  0  0  0  0  0
  -82.4823   31.1616    1.2135 C   0  0  0  0  0  0  0  0  0  0  0  0
  -83.3040   30.1448    1.6222 C   0  0  0  0  0  0  0  0  0  0  0  0
  -84.6118   30.1189    1.1892 C   0  0  0  0  0  0  0  0  0  0  0  0
  -85.0798   31.1143    0.3510 C   0  0  0  0  0  0  0  0  0  0  0  0
  -88.5680   33.8681   -3.6947 C   0  0  0  0  0  0  0  0  0  0  0  0
  -88.8095   35.1246   -3.2300 C   0  0  0  0  0  0  0  0  0  0  0  0
  -90.1341   35.6086   -4.2364 S   0  0  0  0  0  0  0  0  0  0  0  0
  -90.2718   34.1842   -5.1589 C   0  0  0  0  0  0  0  0  0  0  0  0
  -89.3143   33.4249   -4.6587 N   0  0  0  0  0  0  0  0  0  0  0  0
  -91.2211   33.8864   -6.2377 C   0  0  0  0  0  0  0  0  0  0  0  0
  -91.0271   34.4272   -7.4899 C   0  0  0  0  0  0  0  0  0  0  0  0
  -91.8962   34.1746   -8.5393 C   0  0  0  0  0  0  0  0  0  0  0  0
  -92.9962   33.3637   -8.3598 C   0  0  0  0  0  0  0  0  0  0  0  0
  -94.0329   32.9323   -9.2109 O   0  0  0  0  0  0  0  0  0  0  0  0
  -95.1478   32.5817   -8.3880 C   0  0  0  0  0  0  0  0  0  0  0  0
  -94.4314   31.9972   -7.1924 C   0  0  0  0  0  0  0  0  0  0  0  0
  -93.1999   32.8180   -7.1136 C   0  0  0  0  0  0  0  0  0  0  0  0
  -92.3173   33.0774   -6.0568 C   0  0  0  0  0  0  0  0  0  0  0  0
  5  6  1  0  0  0
  6  7  1  0  0  0
  7  1  1  0  0  0
  1  2  1  0  0  0
  2  3  2  0  0  0
  2 15  1  0  0  0
 15 16  2  0  0  0
 16 17  1  0  0  0
 17 18  1  0  0  0
 18 19  2  0  0  0
 18 20  1  0  0  0
 20 21  2  0  0  0
 21 22  1  0  0  0
 22 23  2  0  0  0
 23 24  1  0  0  0
 24 25  1  0  0  0
 25 26  1  0  0  0
 26 27  1  0  0  0
 27 28  2  0  0  0
  7  8  2  0  0  0
  8  9  1  0  0  0
  9 10  2  0  0  0
 10 11  1  0  0  0
 11 12  2  0  0  0
 12 13  1  0  0  0
 13 14  2  0  0  0
 14  6  1  0  0  0
 19 15  1  0  0  0
 28 20  1  0  0  0
 14  9  1  0  0  0
 27 23  1  0  0  0
  1  4  1  0  0  0
M  END
> <minimizedAffinity>
-8.00890

> <CNNscore>
0.1688179076

> <CNNaffinity>
5.6062364578

> <CNN_VS>
0.9464331269

> <CNNaffinity_variance>
0.0996383131

$$$$
[H]c1sc(-c2c([H])c([H])c3c(c2[H])C([H])([H])C([H])([H])O3)nc1C(=O)N([H])c1nc2c([H])c([H])c([H])c([H])c2n1C([H])([H])[H]


 28 32  0  0  0  0  0  0  0  0999 V2000
  -87.2841   31.9500   -1.5891 N   0  0  0  0  0  0  0  0  0  0  0  0
  -87.0627   33.2559   -1.9937 C   0  0  0  0  0  0  0  0  0  0  0  0
  -86.2622   34.0641   -1.5096 O   0  0  0  0  0  0  0  0  0  0  0  0
  -88.0687   31.4595   -2.2053 H   0  0  0  0  0  0  0  0  0  0  0  0
  -88.3338   29.2738   -0.1009 C   0  0  0  0  0  0  0  0  0  0  0  0
  -87.1041   30.0101   -0.0170 N   0  0  0  0  0  0  0  0  0  0  0  0
  -86.7169   31.1275   -0.6192 C   0  0  0  0  0  0  0  0  0  0  0  0
  -85.4367   31.4204   -0.1398 N   0  0  0  0  0  0  0  0  0  0  0  0
  -85.0673   30.5001    0.7257 C   0  0  0  0  0  0  0  0  0  0  0  0
  -83.8985   30.3241    1.4803 C   0  0  0  0  0  0  0  0  0  0  0  0
  -83.8226   29.2444    2.2996 C   0  0  0  0  0  0  0  0  0  0  0  0
  -84.8409   28.3350    2.4086 C   0  0  0  0  0  0  0  0  0  0  0  0
  -85.9870   28.5131    1.6647 C   0  0  0  0  0  0  0  0  0  0  0  0
  -86.0976   29.6023    0.8200 C   0  0  0  0  0  0  0  0  0  0  0  0
  -87.8535   33.8266   -3.1532 C   0  0  0  0  0  0  0  0  0  0  0  0
  -87.8056   33.2819   -4.3999 C   0  0  0  0  0  0  0  0  0  0  0  0
  -88.8788   34.3292   -5.2679 S   0  0  0  0  0  0  0  0  0  0  0  0
  -89.2975   35.3664   -3.9843 C   0  0  0  0  0  0  0  0  0  0  0  0
  -88.6072   34.8671   -2.9753 N   0  0  0  0  0  0  0  0  0  0  0  0
  -90.2009   36.5227   -4.0057 C   0  0  0  0  0  0  0  0  0  0  0  0
  -89.7064   37.7731   -4.3056 C   0  0  0  0  0  0  0  0  0  0  0  0
  -90.5206   38.8940   -4.3381 C   0  0  0  0  0  0  0  0  0  0  0  0
  -91.8681   38.7907   -4.0675 C   0  0  0  0  0  0  0  0  0  0  0  0
  -92.9232   39.7235   -4.0230 O   0  0  0  0  0  0  0  0  0  0  0  0
  -93.9433   39.1800   -3.1822 C   0  0  0  0  0  0  0  0  0  0  0  0
  -93.8257   37.7125   -3.5243 C   0  0  0  0  0  0  0  0  0  0  0  0
  -92.3730   37.5470   -3.7668 C   0  0  0  0  0  0  0  0  0  0  0  0
  -91.5444   36.4176   -3.7357 C   0  0  0  0  0  0  0  0  0  0  0  0
  5  6  1  0  0  0
  6  7  1  0  0  0
  7  1  1  0  0  0
  1  2  1  0  0  0
  2  3  2  0  0  0
  2 15  1  0  0  0
 15 16  2  0  0  0
 16 17  1  0  0  0
 17 18  1  0  0  0
 18 19  2  0  0  0
 18 20  1  0  0  0
 20 21  2  0  0  0
 21 22  1  0  0  0
 22 23  2  0  0  0
 23 24  1  0  0  0
 24 25  1  0  0  0
 25 26  1  0  0  0
 26 27  1  0  0  0
 27 28  2  0  0  0
  7  8  2  0  0  0
  8  9  1  0  0  0
  9 10  2  0  0  0
 10 11  1  0  0  0
 11 12  2  0  0  0
 12 13  1  0  0  0
 13 14  2  0  0  0
 14  6  1  0  0  0
 19 15  1  0  0  0
 28 20  1  0  0  0
 14  9  1  0  0  0
 27 23  1  0  0  0
  1  4  1  0  0  0
M  END
> <minimizedAffinity>
-7.60307

> <CNNscore>
0.1599548906

> <CNNaffinity>
5.7894215584

> <CNN_VS>
0.9260463119

> <CNNaffinity_variance>
0.2361815274

$$$$
[H]c1sc(-c2c([H])c([H])c3c(c2[H])C([H])([H])C([H])([H])O3)nc1C(=O)N([H])c1nc2c([H])c([H])c([H])c([H])c2n1C([H])([H])[H]


 28 32  0  0  0  0  0  0  0  0999 V2000
  -87.6404   34.3313   -3.9786 N   0  0  0  0  0  0  0  0  0  0  0  0
  -87.4939   32.9867   -3.6803 C   0  0  0  0  0  0  0  0  0  0  0  0
  -87.7823   32.0244   -4.4008 O   0  0  0  0  0  0  0  0  0  0  0  0
  -87.3021   34.9748   -3.1375 H   0  0  0  0  0  0  0  0  0  0  0  0
  -90.4334   34.3253   -5.6149 C   0  0  0  0  0  0  0  0  0  0  0  0
  -89.2209   35.0783   -5.7705 N   0  0  0  0  0  0  0  0  0  0  0  0
  -88.0767   35.0324   -5.0996 C   0  0  0  0  0  0  0  0  0  0  0  0
  -87.2197   35.9584   -5.7017 N   0  0  0  0  0  0  0  0  0  0  0  0
  -87.8368   36.5445   -6.7058 C   0  0  0  0  0  0  0  0  0  0  0  0
  -87.4360   37.5312   -7.6180 C   0  0  0  0  0  0  0  0  0  0  0  0
  -88.3290   37.9347   -8.5574 C   0  0  0  0  0  0  0  0  0  0  0  0
  -89.5926   37.4125   -8.6384 C   0  0  0  0  0  0  0  0  0  0  0  0
  -89.9809   36.4431   -7.7394 C   0  0  0  0  0  0  0  0  0  0  0  0
  -89.0961   36.0090   -6.7695 C   0  0  0  0  0  0  0  0  0  0  0  0
  -86.9230   32.5734   -2.3392 C   0  0  0  0  0  0  0  0  0  0  0  0
  -86.0482   33.3580   -1.6520 C   0  0  0  0  0  0  0  0  0  0  0  0
  -85.7606   32.3906   -0.2437 S   0  0  0  0  0  0  0  0  0  0  0  0
  -86.7685   31.0771   -0.6409 C   0  0  0  0  0  0  0  0  0  0  0  0
  -87.2647   31.4397   -1.8097 N   0  0  0  0  0  0  0  0  0  0  0  0
  -87.0161   29.8536    0.1307 C   0  0  0  0  0  0  0  0  0  0  0  0
  -85.9919   29.2784    0.8505 C   0  0  0  0  0  0  0  0  0  0  0  0
  -86.1779   28.1237    1.5938 C   0  0  0  0  0  0  0  0  0  0  0  0
  -87.4098   27.5070    1.6359 C   0  0  0  0  0  0  0  0  0  0  0  0
  -87.8960   26.3539    2.2834 O   0  0  0  0  0  0  0  0  0  0  0  0
  -89.0410   25.9025    1.5566 C   0  0  0  0  0  0  0  0  0  0  0  0
  -89.6374   27.2264    1.1373 C   0  0  0  0  0  0  0  0  0  0  0  0
  -88.4400   28.0725    0.9210 C   0  0  0  0  0  0  0  0  0  0  0  0
  -88.2453   29.2402    0.1715 C   0  0  0  0  0  0  0  0  0  0  0  0
  5  6  1  0  0  0
  6  7  1  0  0  0
  7  1  1  0  0  0
  1  2  1  0  0  0
  2  3  2  0  0  0
  2 15  1  0  0  0
 15 16  2  0  0  0
 16 17  1  0  0  0
 17 18  1  0  0  0
 18 19  2  0  0  0
 18 20  1  0  0  0
 20 21  2  0  0  0
 21 22  1  0  0  0
 22 23  2  0  0  0
 23 24  1  0  0  0
 24 25  1  0  0  0
 25 26  1  0  0  0
 26 27  1  0  0  0
 27 28  2  0  0  0
  7  8  2  0  0  0
  8  9  1  0  0  0
  9 10  2  0  0  0
 10 11  1  0  0  0
 11 12  2  0  0  0
 12 13  1  0  0  0
 13 14  2  0  0  0
 14  6  1  0  0  0
 19 15  1  0  0  0
 28 20  1  0  0  0
 14  9  1  0  0  0
 27 23  1  0  0  0
  1  4  1  0  0  0
M  END
> <minimizedAffinity>
-7.77413

> <CNNscore>
0.1162265912

> <CNNaffinity>
5.6751599312

> <CNN_VS>
0.6596044898

> <CNNaffinity_variance>
0.1552664191

$$$$
[H]c1sc(-c2c([H])c([H])c3c(c2[H])C([H])([H])C([H])([H])O3)nc1C(=O)N([H])c1nc2c([H])c([H])c([H])c([H])c2n1C([H])([H])[H]


 28 32  0  0  0  0  0  0  0  0999 V2000
  -88.1363   30.6597   -1.2283 N   0  0  0  0  0  0  0  0  0  0  0  0
  -89.1592   31.5935   -1.2374 C   0  0  0  0  0  0  0  0  0  0  0  0
  -89.2636   32.5964   -0.5220 O   0  0  0  0  0  0  0  0  0  0  0  0
  -88.3092   29.8583   -1.9791 H   0  0  0  0  0  0  0  0  0  0  0  0
  -86.8942   28.2697    0.5670 C   0  0  0  0  0  0  0  0  0  0  0  0
  -86.3929   29.5624    0.1942 N   0  0  0  0  0  0  0  0  0  0  0  0
  -86.9444   30.5362   -0.5192 C   0  0  0  0  0  0  0  0  0  0  0  0
  -86.0275   31.5914   -0.5366 N   0  0  0  0  0  0  0  0  0  0  0  0
  -84.9541   31.2559    0.1475 C   0  0  0  0  0  0  0  0  0  0  0  0
  -83.7613   31.9360    0.4320 C   0  0  0  0  0  0  0  0  0  0  0  0
  -82.8248   31.2993    1.1805 C   0  0  0  0  0  0  0  0  0  0  0  0
  -83.0095   30.0293    1.6591 C   0  0  0  0  0  0  0  0  0  0  0  0
  -84.1836   29.3659    1.3764 C   0  0  0  0  0  0  0  0  0  0  0  0
  -85.1590   29.9852    0.6165 C   0  0  0  0  0  0  0  0  0  0  0  0
  -90.3132   31.4331   -2.2059 C   0  0  0  0  0  0  0  0  0  0  0  0
  -91.3240   30.5479   -1.9873 C   0  0  0  0  0  0  0  0  0  0  0  0
  -92.3112   30.8096   -3.3868 S   0  0  0  0  0  0  0  0  0  0  0  0
  -91.3650   32.0142   -4.1301 C   0  0  0  0  0  0  0  0  0  0  0  0
  -90.3603   32.1521   -3.2845 N   0  0  0  0  0  0  0  0  0  0  0  0
  -91.6141   32.7165   -5.3944 C   0  0  0  0  0  0  0  0  0  0  0  0
  -90.6980   33.6337   -5.8607 C   0  0  0  0  0  0  0  0  0  0  0  0
  -90.8897   34.3211   -7.0486 C   0  0  0  0  0  0  0  0  0  0  0  0
  -92.0182   34.1052   -7.8101 C   0  0  0  0  0  0  0  0  0  0  0  0
  -92.4822   34.6370   -9.0296 O   0  0  0  0  0  0  0  0  0  0  0  0
  -93.9020   34.4751   -9.0574 C   0  0  0  0  0  0  0  0  0  0  0  0
  -94.0394   33.1481   -8.3471 C   0  0  0  0  0  0  0  0  0  0  0  0
  -92.9398   33.1914   -7.3543 C   0  0  0  0  0  0  0  0  0  0  0  0
  -92.7399   32.4997   -6.1523 C   0  0  0  0  0  0  0  0  0  0  0  0
  5  6  1  0  0  0
  6  7  1  0  0  0
  7  1  1  0  0  0
  1  2  1  0  0  0
  2  3  2  0  0  0
  2 15  1  0  0  0
 15 16  2  0  0  0
 16 17  1  0  0  0
 17 18  1  0  0  0
 18 19  2  0  0  0
 18 20  1  0  0  0
 20 21  2  0  0  0
 21 22  1  0  0  0
 22 23  2  0  0  0
 23 24  1  0  0  0
 24 25  1  0  0  0
 25 26  1  0  0  0
 26 27  1  0  0  0
 27 28  2  0  0  0
  7  8  2  0  0  0
  8  9  1  0  0  0
  9 10  2  0  0  0
 10 11  1  0  0  0
 11 12  2  0  0  0
 12 13  1  0  0  0
 13 14  2  0  0  0
 14  6  1  0  0  0
 19 15  1  0  0  0
 28 20  1  0  0  0
 14  9  1  0  0  0
 27 23  1  0  0  0
  1  4  1  0  0  0
M  END
> <minimizedAffinity>
-7.86631

> <CNNscore>
0.1035833359

> <CNNaffinity>
5.2159638405

> <CNN_VS>
0.5402869582

> <CNNaffinity_variance>
0.1319638938

$$$$
[H]c1sc(-c2c([H])c([H])c3c(c2[H])C([H])([H])C([H])([H])O3)nc1C(=O)N([H])c1nc2c([H])c([H])c([H])c([H])c2n1C([H])([H])[H]


 28 32  0  0  0  0  0  0  0  0999 V2000
  -88.1548   29.5842   -1.2738 N   0  0  0  0  0  0  0  0  0  0  0  0
  -88.5905   29.4166   -2.5778 C   0  0  0  0  0  0  0  0  0  0  0  0
  -87.9865   29.7182   -3.6134 O   0  0  0  0  0  0  0  0  0  0  0  0
  -88.9112   29.2262   -0.5419 H   0  0  0  0  0  0  0  0  0  0  0  0
  -86.8315   32.5345   -1.1224 C   0  0  0  0  0  0  0  0  0  0  0  0
  -86.4285   31.2633   -0.5903 N   0  0  0  0  0  0  0  0  0  0  0  0
  -86.9794   30.0609   -0.6994 C   0  0  0  0  0  0  0  0  0  0  0  0
  -86.1448   29.1721   -0.0155 N   0  0  0  0  0  0  0  0  0  0  0  0
  -85.1218   29.8271    0.4915 C   0  0  0  0  0  0  0  0  0  0  0  0
  -84.0184   29.4175    1.2537 C   0  0  0  0  0  0  0  0  0  0  0  0
  -83.1178   30.3597    1.6331 C   0  0  0  0  0  0  0  0  0  0  0  0
  -83.2543   31.6805    1.2972 C   0  0  0  0  0  0  0  0  0  0  0  0
  -84.3406   32.0771    0.5480 C   0  0  0  0  0  0  0  0  0  0  0  0
  -85.2772   31.1432    0.1446 C   0  0  0  0  0  0  0  0  0  0  0  0
  -89.9495   28.8012   -2.8417 C   0  0  0  0  0  0  0  0  0  0  0  0
  -91.0283   29.5526   -3.1949 C   0  0  0  0  0  0  0  0  0  0  0  0
  -92.2505   28.3352   -3.3555 S   0  0  0  0  0  0  0  0  0  0  0  0
  -91.2971   26.9801   -2.9632 C   0  0  0  0  0  0  0  0  0  0  0  0
  -90.1136   27.5190   -2.7337 N   0  0  0  0  0  0  0  0  0  0  0  0
  -91.7007   25.5706   -2.8995 C   0  0  0  0  0  0  0  0  0  0  0  0
  -90.9342   24.6697   -2.1933 C   0  0  0  0  0  0  0  0  0  0  0  0
  -91.2751   23.3294   -2.1048 C   0  0  0  0  0  0  0  0  0  0  0  0
  -92.4067   22.8504   -2.7293 C   0  0  0  0  0  0  0  0  0  0  0  0
  -92.9988   21.5750   -2.8197 O   0  0  0  0  0  0  0  0  0  0  0  0
  -93.8062   21.5578   -3.9989 C   0  0  0  0  0  0  0  0  0  0  0  0
  -94.3204   22.9791   -3.9984 C   0  0  0  0  0  0  0  0  0  0  0  0
  -93.1797   23.7410   -3.4374 C   0  0  0  0  0  0  0  0  0  0  0  0
  -92.8294   25.0949   -3.5229 C   0  0  0  0  0  0  0  0  0  0  0  0
  5  6  1  0  0  0
  6  7  1  0  0  0
  7  1  1  0  0  0
  1  2  1  0  0  0
  2  3  2  0  0  0
  2 15  1  0  0  0
 15 16  2  0  0  0
 16 17  1  0  0  0
 17 18  1  0  0  0
 18 19  2  0  0  0
 18 20  1  0  0  0
 20 21  2  0  0  0
 21 22  1  0  0  0
 22 23  2  0  0  0
 23 24  1  0  0  0
 24 25  1  0  0  0
 25 26  1  0  0  0
 26 27  1  0  0  0
 27 28  2  0  0  0
  7  8  2  0  0  0
  8  9  1  0  0  0
  9 10  2  0  0  0
 10 11  1  0  0  0
 11 12  2  0  0  0
 12 13  1  0  0  0
 13 14  2  0  0  0
 14  6  1  0  0  0
 19 15  1  0  0  0
 28 20  1  0  0  0
 14  9  1  0  0  0
 27 23  1  0  0  0
  1  4  1  0  0  0
M  END
> <minimizedAffinity>
-8.46085

> <CNNscore>
0.0943724662

> <CNNaffinity>
5.3699622154

> <CNN_VS>
0.5067765713

> <CNNaffinity_variance>
0.2224783450

$$$$
[H]c1sc(-c2c([H])c([H])c3c(c2[H])C([H])([H])C([H])([H])O3)nc1C(=O)N([H])c1nc2c([H])c([H])c([H])c([H])c2n1C([H])([H])[H]


 28 32  0  0  0  0  0  0  0  0999 V2000
  -88.6255   31.5138   -2.4435 N   0  0  0  0  0  0  0  0  0  0  0  0
  -88.2627   30.3814   -3.1537 C   0  0  0  0  0  0  0  0  0  0  0  0
  -87.9155   30.3202   -4.3386 O   0  0  0  0  0  0  0  0  0  0  0  0
  -88.8964   31.2675   -1.3938 H   0  0  0  0  0  0  0  0  0  0  0  0
  -86.5202   33.9409   -2.0499 C   0  0  0  0  0  0  0  0  0  0  0  0
  -87.8306   33.8800   -2.6334 N   0  0  0  0  0  0  0  0  0  0  0  0
  -88.6846   32.8708   -2.7494 C   0  0  0  0  0  0  0  0  0  0  0  0
  -89.8306   33.3821   -3.3657 N   0  0  0  0  0  0  0  0  0  0  0  0
  -89.6648   34.6642   -3.6136 C   0  0  0  0  0  0  0  0  0  0  0  0
  -90.4908   35.6284   -4.2091 C   0  0  0  0  0  0  0  0  0  0  0  0
  -90.0158   36.8949   -4.3235 C   0  0  0  0  0  0  0  0  0  0  0  0
  -88.7703   37.2527   -3.8800 C   0  0  0  0  0  0  0  0  0  0  0  0
  -87.9631   36.3010   -3.2957 C   0  0  0  0  0  0  0  0  0  0  0  0
  -88.4157   35.0010   -3.1632 C   0  0  0  0  0  0  0  0  0  0  0  0
  -88.2685   29.0310   -2.4669 C   0  0  0  0  0  0  0  0  0  0  0  0
  -87.3235   28.6801   -1.5519 C   0  0  0  0  0  0  0  0  0  0  0  0
  -87.8372   27.0796   -1.1321 S   0  0  0  0  0  0  0  0  0  0  0  0
  -89.2014   26.9879   -2.1467 C   0  0  0  0  0  0  0  0  0  0  0  0
  -89.1942   28.1656   -2.7440 N   0  0  0  0  0  0  0  0  0  0  0  0
  -90.1426   25.8736   -2.3084 C   0  0  0  0  0  0  0  0  0  0  0  0
  -89.7970   24.6152   -1.8668 C   0  0  0  0  0  0  0  0  0  0  0  0
  -90.6524   23.5328   -1.9976 C   0  0  0  0  0  0  0  0  0  0  0  0
  -91.8916   23.6842   -2.5817 C   0  0  0  0  0  0  0  0  0  0  0  0
  -92.9532   22.7971   -2.8493 O   0  0  0  0  0  0  0  0  0  0  0  0
  -93.7181   23.3521   -3.9215 C   0  0  0  0  0  0  0  0  0  0  0  0
  -93.6092   24.8250   -3.6007 C   0  0  0  0  0  0  0  0  0  0  0  0
  -92.2475   24.9364   -3.0263 C   0  0  0  0  0  0  0  0  0  0  0  0
  -91.3779   26.0267   -2.8909 C   0  0  0  0  0  0  0  0  0  0  0  0
  5  6  1  0  0  0
  6  7  1  0  0  0
  7  1  1  0  0  0
  1  2  1  0  0  0
  2  3  2  0  0  0
  2 15  1  0  0  0
 15 16  2  0  0  0
 16 17  1  0  0  0
 17 18  1  0  0  0
 18 19  2  0  0  0
 18 20  1  0  0  0
 20 21  2  0  0  0
 21 22  1  0  0  0
 22 23  2  0  0  0
 23 24  1  0  0  0
 24 25  1  0  0  0
 25 26  1  0  0  0
 26 27  1  0  0  0
 27 28  2  0  0  0
  7  8  2  0  0  0
  8  9  1  0  0  0
  9 10  2  0  0  0
 10 11  1  0  0  0
 11 12  2  0  0  0
 12 13  1  0  0  0
 13 14  2  0  0  0
 14  6  1  0  0  0
 19 15  1  0  0  0
 28 20  1  0  0  0
 14  9  1  0  0  0
 27 23  1  0  0  0
  1  4  1  0  0  0
M  END
> <minimizedAffinity>
-7.54316

> <CNNscore>
0.0939990878

> <CNNaffinity>
5.1949930191

> <CNN_VS>
0.4883246124

> <CNNaffinity_variance>
0.2389688194

$$$$
[H]OC([H])([H])[C@@]([H])(N([H])c1nn2c(-c3c([H])c([H])c([H])c(C([H])=O)c3[H])c([H])nc2c([H])c1[H])C([H])([H])C([H])([H])[H]


 25 27  0  0  0  0  0  0  0  0999 V2000
  -87.8057   27.8989    0.4259 C   0  0  0  0  0  0  0  0  0  0  0  0
  -87.7224   26.7429    1.1450 C   0  0  0  0  0  0  0  0  0  0  0  0
  -86.5917   26.4483    1.9167 C   0  0  0  0  0  0  0  0  0  0  0  0
  -85.5361   27.3256    1.9644 C   0  0  0  0  0  0  0  0  0  0  0  0
  -84.3488   27.3180    2.5986 N   0  0  0  0  0  0  0  0  0  0  0  0
  -83.7221   28.4595    2.2645 C   0  0  0  0  0  0  0  0  0  0  0  0
  -84.5277   29.1957    1.4073 C   0  0  0  0  0  0  0  0  0  0  0  0
  -85.6472   28.4798    1.2316 N   0  0  0  0  0  0  0  0  0  0  0  0
  -86.7232   28.7164    0.5226 N   0  0  0  0  0  0  0  0  0  0  0  0
  -84.1818   30.4939    0.8328 C   0  0  0  0  0  0  0  0  0  0  0  0
  -82.8330   30.8568    0.7498 C   0  0  0  0  0  0  0  0  0  0  0  0
  -82.3894   32.0472    0.2307 C   0  0  0  0  0  0  0  0  0  0  0  0
  -83.3289   32.9388   -0.2368 C   0  0  0  0  0  0  0  0  0  0  0  0
  -84.6739   32.6336   -0.1799 C   0  0  0  0  0  0  0  0  0  0  0  0
  -85.0752   31.4033    0.3600 C   0  0  0  0  0  0  0  0  0  0  0  0
  -85.6790   33.5653   -0.6699 C   0  0  0  0  0  0  0  0  0  0  0  0
  -86.8638   33.1801   -0.7727 O   0  0  0  0  0  0  0  0  0  0  0  0
  -88.9163   28.2538   -0.3707 N   0  0  0  0  0  0  0  0  0  0  0  0
  -89.7605   28.6721    0.1886 H   0  0  0  0  0  0  0  0  0  0  0  0
  -89.1376   28.1669   -1.7561 C   0  0  0  0  0  0  0  0  0  0  0  0
  -89.6709   26.8102   -2.1489 C   0  0  0  0  0  0  0  0  0  0  0  0
  -89.8559   26.8004   -3.5367 O   0  0  0  0  0  0  0  0  0  0  0  0
  -89.7608   25.8561   -3.8541 H   0  0  0  0  0  0  0  0  0  0  0  0
  -88.0145   30.1040   -2.6682 C   0  0  0  0  0  0  0  0  0  0  0  0
  -88.0465   28.5589   -2.6851 C   0  0  0  0  0  0  0  0  0  0  0  0
 24 25  1  0  0  0
 25 20  1  0  0  0
 20 21  1  0  0  0
 21 22  1  0  0  0
 20 18  1  0  0  0
 18  1  1  0  0  0
  1  2  1  0  0  0
  2  3  2  0  0  0
  3  4  1  0  0  0
  4  5  2  0  0  0
  5  6  1  0  0  0
  6  7  2  0  0  0
  7 10  1  0  0  0
 10 11  2  0  0  0
 11 12  1  0  0  0
 12 13  2  0  0  0
 13 14  1  0  0  0
 14 16  1  0  0  0
 16 17  2  0  0  0
 14 15  2  0  0  0
  7  8  1  0  0  0
  8  9  1  0  0  0
  9  1  2  0  0  0
  8  4  1  0  0  0
 15 10  1  0  0  0
 22 23  1  0  0  0
 18 19  1  0  0  0
M  END
> <minimizedAffinity>
-8.26233

> <CNNscore>
0.7550256848

> <CNNaffinity>
6.2940244675

> <CNN_VS>
4.7521500587

> <CNNaffinity_variance>
0.2406096160

$$$$
[H]OC([H])([H])[C@@]([H])(N([H])c1nn2c(-c3c([H])c([H])c([H])c(C([H])=O)c3[H])c([H])nc2c([H])c1[H])C([H])([H])C([H])([H])[H]


 25 27  0  0  0  0  0  0  0  0999 V2000
  -85.1513   29.1028    1.6514 C   0  0  0  0  0  0  0  0  0  0  0  0
  -83.8447   29.0133    2.0322 C   0  0  0  0  0  0  0  0  0  0  0  0
  -82.9049   29.9711    1.6318 C   0  0  0  0  0  0  0  0  0  0  0  0
  -83.2847   31.0279    0.8411 C   0  0  0  0  0  0  0  0  0  0  0  0
  -82.6271   32.0761    0.3114 N   0  0  0  0  0  0  0  0  0  0  0  0
  -83.5296   32.7912   -0.3826 C   0  0  0  0  0  0  0  0  0  0  0  0
  -84.7733   32.1830   -0.2877 C   0  0  0  0  0  0  0  0  0  0  0  0
  -84.6046   31.0925    0.4733 N   0  0  0  0  0  0  0  0  0  0  0  0
  -85.4512   30.1748    0.8701 N   0  0  0  0  0  0  0  0  0  0  0  0
  -86.0005   32.6718   -0.9124 C   0  0  0  0  0  0  0  0  0  0  0  0
  -87.2276   32.1518   -0.4860 C   0  0  0  0  0  0  0  0  0  0  0  0
  -88.4421   32.5338   -0.9981 C   0  0  0  0  0  0  0  0  0  0  0  0
  -88.4539   33.4867   -1.9921 C   0  0  0  0  0  0  0  0  0  0  0  0
  -87.2731   34.0344   -2.4518 C   0  0  0  0  0  0  0  0  0  0  0  0
  -86.0583   33.6097   -1.8951 C   0  0  0  0  0  0  0  0  0  0  0  0
  -87.2689   35.0425   -3.5017 C   0  0  0  0  0  0  0  0  0  0  0  0
  -87.8227   36.1426   -3.2880 O   0  0  0  0  0  0  0  0  0  0  0  0
  -86.1461   28.1711    2.0207 N   0  0  0  0  0  0  0  0  0  0  0  0
  -85.8808   27.5392    2.8756 H   0  0  0  0  0  0  0  0  0  0  0  0
  -87.4195   27.9045    1.4885 C   0  0  0  0  0  0  0  0  0  0  0  0
  -88.2924   27.1713    2.4785 C   0  0  0  0  0  0  0  0  0  0  0  0
  -87.8837   25.8327    2.5112 O   0  0  0  0  0  0  0  0  0  0  0  0
  -88.1012   25.4655    3.4164 H   0  0  0  0  0  0  0  0  0  0  0  0
  -88.8353   27.7709   -0.4668 C   0  0  0  0  0  0  0  0  0  0  0  0
  -87.5210   27.2506    0.1584 C   0  0  0  0  0  0  0  0  0  0  0  0
 24 25  1  0  0  0
 25 20  1  0  0  0
 20 21  1  0  0  0
 21 22  1  0  0  0
 20 18  1  0  0  0
 18  1  1  0  0  0
  1  2  1  0  0  0
  2  3  2  0  0  0
  3  4  1  0  0  0
  4  5  2  0  0  0
  5  6  1  0  0  0
  6  7  2  0  0  0
  7 10  1  0  0  0
 10 11  2  0  0  0
 11 12  1  0  0  0
 12 13  2  0  0  0
 13 14  1  0  0  0
 14 16  1  0  0  0
 16 17  2  0  0  0
 14 15  2  0  0  0
  7  8  1  0  0  0
  8  9  1  0  0  0
  9  1  2  0  0  0
  8  4  1  0  0  0
 15 10  1  0  0  0
 22 23  1  0  0  0
 18 19  1  0  0  0
M  END
> <minimizedAffinity>
-7.91367

> <CNNscore>
0.7081049085

> <CNNaffinity>
6.3589196205

> <CNN_VS>
4.5027823448

> <CNNaffinity_variance>
0.2463938743

$$$$
[H]OC([H])([H])[C@@]([H])(N([H])c1nn2c(-c3c([H])c([H])c([H])c(C([H])=O)c3[H])c([H])nc2c([H])c1[H])C([H])([H])C([H])([H])[H]


 25 27  0  0  0  0  0  0  0  0999 V2000
  -87.5711   32.1517   -0.9416 C   0  0  0  0  0  0  0  0  0  0  0  0
  -87.2508   33.3438   -1.5216 C   0  0  0  0  0  0  0  0  0  0  0  0
  -85.9433   33.8433   -1.4793 C   0  0  0  0  0  0  0  0  0  0  0  0
  -84.9502   33.1359   -0.8473 C   0  0  0  0  0  0  0  0  0  0  0  0
  -83.6368   33.3531   -0.6477 N   0  0  0  0  0  0  0  0  0  0  0  0
  -83.1697   32.3009    0.0467 C   0  0  0  0  0  0  0  0  0  0  0  0
  -84.2052   31.4089    0.2872 C   0  0  0  0  0  0  0  0  0  0  0  0
  -85.3008   31.9407   -0.2729 N   0  0  0  0  0  0  0  0  0  0  0  0
  -86.5365   31.5098   -0.3356 N   0  0  0  0  0  0  0  0  0  0  0  0
  -84.0794   30.1475    1.0140 C   0  0  0  0  0  0  0  0  0  0  0  0
  -82.8509   29.8282    1.6028 C   0  0  0  0  0  0  0  0  0  0  0  0
  -82.6151   28.6750    2.3083 C   0  0  0  0  0  0  0  0  0  0  0  0
  -83.6503   27.7774    2.4448 C   0  0  0  0  0  0  0  0  0  0  0  0
  -84.8842   28.0404    1.8847 C   0  0  0  0  0  0  0  0  0  0  0  0
  -85.0736   29.2338    1.1732 C   0  0  0  0  0  0  0  0  0  0  0  0
  -85.9884   27.1018    2.0202 C   0  0  0  0  0  0  0  0  0  0  0  0
  -87.1595   27.5389    2.0165 O   0  0  0  0  0  0  0  0  0  0  0  0
  -88.8684   31.5942   -0.9492 N   0  0  0  0  0  0  0  0  0  0  0  0
  -89.6078   32.1579   -0.3695 H   0  0  0  0  0  0  0  0  0  0  0  0
  -89.3862   30.4423   -1.5664 C   0  0  0  0  0  0  0  0  0  0  0  0
  -89.4910   29.2914   -0.5948 C   0  0  0  0  0  0  0  0  0  0  0  0
  -88.1995   28.8094   -0.3501 O   0  0  0  0  0  0  0  0  0  0  0  0
  -88.1897   28.4031    0.5643 H   0  0  0  0  0  0  0  0  0  0  0  0
  -89.2742   30.9330   -3.9312 C   0  0  0  0  0  0  0  0  0  0  0  0
  -88.7728   29.9674   -2.8334 C   0  0  0  0  0  0  0  0  0  0  0  0
 24 25  1  0  0  0
 25 20  1  0  0  0
 20 21  1  0  0  0
 21 22  1  0  0  0
 20 18  1  0  0  0
 18  1  1  0  0  0
  1  2  1  0  0  0
  2  3  2  0  0  0
  3  4  1  0  0  0
  4  5  2  0  0  0
  5  6  1  0  0  0
  6  7  2  0  0  0
  7 10  1  0  0  0
 10 11  2  0  0  0
 11 12  1  0  0  0
 12 13  2  0  0  0
 13 14  1  0  0  0
 14 16  1  0  0  0
 16 17  2  0  0  0
 14 15  2  0  0  0
  7  8  1  0  0  0
  8  9  1  0  0  0
  9  1  2  0  0  0
  8  4  1  0  0  0
 15 10  1  0  0  0
 22 23  1  0  0  0
 18 19  1  0  0  0
M  END
> <minimizedAffinity>
-8.12613

> <CNNscore>
0.6469954848

> <CNNaffinity>
5.9623813629

> <CNN_VS>
3.8576338291

> <CNNaffinity_variance>
0.3178169131

$$$$
[H]OC([H])([H])[C@@]([H])(N([H])c1nn2c(-c3c([H])c([H])c([H])c(C([H])=O)c3[H])c([H])nc2c([H])c1[H])C([H])([H])C([H])([H])[H]


 25 27  0  0  0  0  0  0  0  0999 V2000
  -83.4663   30.7850    0.9123 C   0  0  0  0  0  0  0  0  0  0  0  0
  -82.6537   31.8613    0.7087 C   0  0  0  0  0  0  0  0  0  0  0  0
  -83.0842   32.9648   -0.0381 C   0  0  0  0  0  0  0  0  0  0  0  0
  -84.3441   32.9841   -0.5846 C   0  0  0  0  0  0  0  0  0  0  0  0
  -85.0209   33.8780   -1.3294 N   0  0  0  0  0  0  0  0  0  0  0  0
  -86.2309   33.3450   -1.5726 C   0  0  0  0  0  0  0  0  0  0  0  0
  -86.3159   32.0971   -0.9716 C   0  0  0  0  0  0  0  0  0  0  0  0
  -85.1395   31.8885   -0.3639 N   0  0  0  0  0  0  0  0  0  0  0  0
  -84.6971   30.8767    0.3411 N   0  0  0  0  0  0  0  0  0  0  0  0
  -87.4812   31.2167   -1.0183 C   0  0  0  0  0  0  0  0  0  0  0  0
  -88.6885   31.6667   -0.4725 C   0  0  0  0  0  0  0  0  0  0  0  0
  -89.8461   30.9297   -0.4590 C   0  0  0  0  0  0  0  0  0  0  0  0
  -89.8177   29.6708   -1.0162 C   0  0  0  0  0  0  0  0  0  0  0  0
  -88.6540   29.1754   -1.5692 C   0  0  0  0  0  0  0  0  0  0  0  0
  -87.4978   29.9688   -1.5578 C   0  0  0  0  0  0  0  0  0  0  0  0
  -88.6078   27.8469   -2.1620 C   0  0  0  0  0  0  0  0  0  0  0  0
  -88.6967   26.8471   -1.4169 O   0  0  0  0  0  0  0  0  0  0  0  0
  -83.0922   29.6434    1.6543 N   0  0  0  0  0  0  0  0  0  0  0  0
  -82.1111   29.2327    1.3910 H   0  0  0  0  0  0  0  0  0  0  0  0
  -83.7523   28.9340    2.6727 C   0  0  0  0  0  0  0  0  0  0  0  0
  -83.7617   27.4493    2.3984 C   0  0  0  0  0  0  0  0  0  0  0  0
  -82.7035   26.8690    3.1080 O   0  0  0  0  0  0  0  0  0  0  0  0
  -82.9506   25.9205    3.3099 H   0  0  0  0  0  0  0  0  0  0  0  0
  -86.0975   28.4650    2.3186 C   0  0  0  0  0  0  0  0  0  0  0  0
  -85.1099   29.3700    3.0896 C   0  0  0  0  0  0  0  0  0  0  0  0
 24 25  1  0  0  0
 25 20  1  0  0  0
 20 21  1  0  0  0
 21 22  1  0  0  0
 20 18  1  0  0  0
 18  1  1  0  0  0
  1  2  1  0  0  0
  2  3  2  0  0  0
  3  4  1  0  0  0
  4  5  2  0  0  0
  5  6  1  0  0  0
  6  7  2  0  0  0
  7 10  1  0  0  0
 10 11  2  0  0  0
 11 12  1  0  0  0
 12 13  2  0  0  0
 13 14  1  0  0  0
 14 16  1  0  0  0
 16 17  2  0  0  0
 14 15  2  0  0  0
  7  8  1  0  0  0
  8  9  1  0  0  0
  9  1  2  0  0  0
  8  4  1  0  0  0
 15 10  1  0  0  0
 22 23  1  0  0  0
 18 19  1  0  0  0
M  END
> <minimizedAffinity>
-7.39090

> <CNNscore>
0.6203998923

> <CNNaffinity>
6.4863367081

> <CNN_VS>
4.0241227150

> <CNNaffinity_variance>
0.0490613580

$$$$
[H]OC([H])([H])[C@@]([H])(N([H])c1nn2c(-c3c([H])c([H])c([H])c(C([H])=O)c3[H])c([H])nc2c([H])c1[H])C([H])([H])C([H])([H])[H]


 25 27  0  0  0  0  0  0  0  0999 V2000
  -88.4238   32.3753   -2.0608 C   0  0  0  0  0  0  0  0  0  0  0  0
  -87.9504   33.4420   -2.7667 C   0  0  0  0  0  0  0  0  0  0  0  0
  -86.6599   33.9403   -2.5504 C   0  0  0  0  0  0  0  0  0  0  0  0
  -85.8392   33.3591   -1.6150 C   0  0  0  0  0  0  0  0  0  0  0  0
  -84.5846   33.6084   -1.1957 N   0  0  0  0  0  0  0  0  0  0  0  0
  -84.3043   32.6997   -0.2453 C   0  0  0  0  0  0  0  0  0  0  0  0
  -85.3994   31.8668   -0.0645 C   0  0  0  0  0  0  0  0  0  0  0  0
  -86.3412   32.2884   -0.9201 N   0  0  0  0  0  0  0  0  0  0  0  0
  -87.5550   31.8539   -1.1537 N   0  0  0  0  0  0  0  0  0  0  0  0
  -85.4677   30.7584    0.8853 C   0  0  0  0  0  0  0  0  0  0  0  0
  -85.0448   30.9718    2.2020 C   0  0  0  0  0  0  0  0  0  0  0  0
  -85.0628   30.0084    3.1790 C   0  0  0  0  0  0  0  0  0  0  0  0
  -85.5250   28.7555    2.8433 C   0  0  0  0  0  0  0  0  0  0  0  0
  -85.9549   28.4881    1.5591 C   0  0  0  0  0  0  0  0  0  0  0  0
  -85.9162   29.5077    0.5972 C   0  0  0  0  0  0  0  0  0  0  0  0
  -86.4461   27.1691    1.1886 C   0  0  0  0  0  0  0  0  0  0  0  0
  -86.9786   26.4526    2.0636 O   0  0  0  0  0  0  0  0  0  0  0  0
  -89.7135   31.8263   -2.2313 N   0  0  0  0  0  0  0  0  0  0  0  0
  -90.5323   32.4903   -1.9326 H   0  0  0  0  0  0  0  0  0  0  0  0
  -90.1403   30.5775   -2.7153 C   0  0  0  0  0  0  0  0  0  0  0  0
  -91.5743   30.6250   -3.1853 C   0  0  0  0  0  0  0  0  0  0  0  0
  -92.0713   31.9102   -2.9373 O   0  0  0  0  0  0  0  0  0  0  0  0
  -92.7904   32.0978   -3.6074 H   0  0  0  0  0  0  0  0  0  0  0  0
  -88.7083   28.6446   -2.4727 C   0  0  0  0  0  0  0  0  0  0  0  0
  -89.9341   29.3708   -1.8736 C   0  0  0  0  0  0  0  0  0  0  0  0
 24 25  1  0  0  0
 25 20  1  0  0  0
 20 21  1  0  0  0
 21 22  1  0  0  0
 20 18  1  0  0  0
 18  1  1  0  0  0
  1  2  1  0  0  0
  2  3  2  0  0  0
  3  4  1  0  0  0
  4  5  2  0  0  0
  5  6  1  0  0  0
  6  7  2  0  0  0
  7 10  1  0  0  0
 10 11  2  0  0  0
 11 12  1  0  0  0
 12 13  2  0  0  0
 13 14  1  0  0  0
 14 16  1  0  0  0
 16 17  2  0  0  0
 14 15  2  0  0  0
  7  8  1  0  0  0
  8  9  1  0  0  0
  9  1  2  0  0  0
  8  4  1  0  0  0
 15 10  1  0  0  0
 22 23  1  0  0  0
 18 19  1  0  0  0
M  END
> <minimizedAffinity>
-6.99393

> <CNNscore>
0.5927113891

> <CNNaffinity>
6.0582909584

> <CNN_VS>
3.5908181667

> <CNNaffinity_variance>
0.4035050869

$$$$
[H]OC([H])([H])[C@@]([H])(N([H])c1nn2c(-c3c([H])c([H])c([H])c(C([H])=O)c3[H])c([H])nc2c([H])c1[H])C([H])([H])C([H])([H])[H]


 25 27  0  0  0  0  0  0  0  0999 V2000
  -85.0470   28.2670    1.8016 C   0  0  0  0  0  0  0  0  0  0  0  0
  -83.7642   28.1602    2.2524 C   0  0  0  0  0  0  0  0  0  0  0  0
  -82.8290   29.1778    2.0276 C   0  0  0  0  0  0  0  0  0  0  0  0
  -83.1891   30.3126    1.3429 C   0  0  0  0  0  0  0  0  0  0  0  0
  -82.5300   31.4296    0.9825 N   0  0  0  0  0  0  0  0  0  0  0  0
  -83.4081   32.2028    0.3202 C   0  0  0  0  0  0  0  0  0  0  0  0
  -84.6377   31.5620    0.2634 C   0  0  0  0  0  0  0  0  0  0  0  0
  -84.4853   30.3930    0.9013 N   0  0  0  0  0  0  0  0  0  0  0  0
  -85.3285   29.4174    1.1332 N   0  0  0  0  0  0  0  0  0  0  0  0
  -85.8375   32.0958   -0.3774 C   0  0  0  0  0  0  0  0  0  0  0  0
  -85.7206   33.2291   -1.1898 C   0  0  0  0  0  0  0  0  0  0  0  0
  -86.7750   33.8178   -1.8414 C   0  0  0  0  0  0  0  0  0  0  0  0
  -88.0241   33.2595   -1.6864 C   0  0  0  0  0  0  0  0  0  0  0  0
  -88.1985   32.1408   -0.8966 C   0  0  0  0  0  0  0  0  0  0  0  0
  -87.0880   31.5772   -0.2521 C   0  0  0  0  0  0  0  0  0  0  0  0
  -89.5122   31.5389   -0.7228 C   0  0  0  0  0  0  0  0  0  0  0  0
  -89.6041   30.4476   -0.1201 O   0  0  0  0  0  0  0  0  0  0  0  0
  -86.0360   27.2778    1.9951 N   0  0  0  0  0  0  0  0  0  0  0  0
  -85.7837   26.5260    2.7511 H   0  0  0  0  0  0  0  0  0  0  0  0
  -87.2898   27.0801    1.3911 C   0  0  0  0  0  0  0  0  0  0  0  0
  -88.3225   26.6227    2.3930 C   0  0  0  0  0  0  0  0  0  0  0  0
  -88.6983   25.3147    2.0643 O   0  0  0  0  0  0  0  0  0  0  0  0
  -88.9930   24.8578    2.9044 H   0  0  0  0  0  0  0  0  0  0  0  0
  -87.6054   27.2182   -1.0020 C   0  0  0  0  0  0  0  0  0  0  0  0
  -87.3757   26.2377    0.1705 C   0  0  0  0  0  0  0  0  0  0  0  0
 24 25  1  0  0  0
 25 20  1  0  0  0
 20 21  1  0  0  0
 21 22  1  0  0  0
 20 18  1  0  0  0
 18  1  1  0  0  0
  1  2  1  0  0  0
  2  3  2  0  0  0
  3  4  1  0  0  0
  4  5  2  0  0  0
  5  6  1  0  0  0
  6  7  2  0  0  0
  7 10  1  0  0  0
 10 11  2  0  0  0
 11 12  1  0  0  0
 12 13  2  0  0  0
 13 14  1  0  0  0
 14 16  1  0  0  0
 16 17  2  0  0  0
 14 15  2  0  0  0
  7  8  1  0  0  0
  8  9  1  0  0  0
  9  1  2  0  0  0
  8  4  1  0  0  0
 15 10  1  0  0  0
 22 23  1  0  0  0
 18 19  1  0  0  0
M  END
> <minimizedAffinity>
-8.16698

> <CNNscore>
0.5384117961

> <CNNaffinity>
6.2200002670

> <CNN_VS>
3.3489215374

> <CNNaffinity_variance>
0.1432367265

$$$$
[H]OC([H])([H])[C@@]([H])(N([H])c1nn2c(-c3c([H])c([H])c([H])c(C([H])=O)c3[H])c([H])nc2c([H])c1[H])C([H])([H])C([H])([H])[H]


 25 27  0  0  0  0  0  0  0  0999 V2000
  -89.0399   30.4988   -0.8000 C   0  0  0  0  0  0  0  0  0  0  0  0
  -89.5912   31.5989   -1.3884 C   0  0  0  0  0  0  0  0  0  0  0  0
  -88.8624   32.7856   -1.5349 C   0  0  0  0  0  0  0  0  0  0  0  0
  -87.5673   32.8647   -1.0848 C   0  0  0  0  0  0  0  0  0  0  0  0
  -86.6410   33.8413   -1.0849 N   0  0  0  0  0  0  0  0  0  0  0  0
  -85.5409   33.3341   -0.5017 C   0  0  0  0  0  0  0  0  0  0  0  0
  -85.7795   32.0188   -0.1293 C   0  0  0  0  0  0  0  0  0  0  0  0
  -87.0386   31.7435   -0.4974 N   0  0  0  0  0  0  0  0  0  0  0  0
  -87.7556   30.6532   -0.3802 N   0  0  0  0  0  0  0  0  0  0  0  0
  -84.8160   31.1423    0.5329 C   0  0  0  0  0  0  0  0  0  0  0  0
  -83.4658   31.5096    0.5424 C   0  0  0  0  0  0  0  0  0  0  0  0
  -82.4732   30.7678    1.1319 C   0  0  0  0  0  0  0  0  0  0  0  0
  -82.8273   29.5902    1.7517 C   0  0  0  0  0  0  0  0  0  0  0  0
  -84.1447   29.1784    1.7731 C   0  0  0  0  0  0  0  0  0  0  0  0
  -85.1213   29.9730    1.1559 C   0  0  0  0  0  0  0  0  0  0  0  0
  -84.5350   27.9365    2.4241 C   0  0  0  0  0  0  0  0  0  0  0  0
  -83.6461   27.1312    2.7764 O   0  0  0  0  0  0  0  0  0  0  0  0
  -89.7209   29.2746   -0.6225 N   0  0  0  0  0  0  0  0  0  0  0  0
  -90.7578   29.3773   -0.2835 H   0  0  0  0  0  0  0  0  0  0  0  0
  -89.3090   27.9425   -0.8008 C   0  0  0  0  0  0  0  0  0  0  0  0
  -90.0613   27.2750   -1.9269 C   0  0  0  0  0  0  0  0  0  0  0  0
  -89.2238   27.2383   -3.0482 O   0  0  0  0  0  0  0  0  0  0  0  0
  -89.4908   26.4526   -3.6074 H   0  0  0  0  0  0  0  0  0  0  0  0
  -87.8727   27.2223    1.0058 C   0  0  0  0  0  0  0  0  0  0  0  0
  -89.2721   27.0370    0.3764 C   0  0  0  0  0  0  0  0  0  0  0  0
 24 25  1  0  0  0
 25 20  1  0  0  0
 20 21  1  0  0  0
 21 22  1  0  0  0
 20 18  1  0  0  0
 18  1  1  0  0  0
  1  2  1  0  0  0
  2  3  2  0  0  0
  3  4  1  0  0  0
  4  5  2  0  0  0
  5  6  1  0  0  0
  6  7  2  0  0  0
  7 10  1  0  0  0
 10 11  2  0  0  0
 11 12  1  0  0  0
 12 13  2  0  0  0
 13 14  1  0  0  0
 14 16  1  0  0  0
 16 17  2  0  0  0
 14 15  2  0  0  0
  7  8  1  0  0  0
  8  9  1  0  0  0
  9  1  2  0  0  0
  8  4  1  0  0  0
 15 10  1  0  0  0
 22 23  1  0  0  0
 18 19  1  0  0  0
M  END
> <minimizedAffinity>
-8.31913

> <CNNscore>
0.5367764235

> <CNNaffinity>
6.1717739105

> <CNN_VS>
3.3128626347

> <CNNaffinity_variance>
0.6728650928

$$$$
[H]OC([H])([H])[C@@]([H])(N([H])c1nn2c(-c3c([H])c([H])c([H])c(C([H])=O)c3[H])c([H])nc2c([H])c1[H])C([H])([H])C([H])([H])[H]


 25 27  0  0  0  0  0  0  0  0999 V2000
  -88.3971   32.4628   -1.9425 C   0  0  0  0  0  0  0  0  0  0  0  0
  -87.9169   33.6581   -2.3906 C   0  0  0  0  0  0  0  0  0  0  0  0
  -86.6331   34.0992   -2.0472 C   0  0  0  0  0  0  0  0  0  0  0  0
  -85.8261   33.3295   -1.2456 C   0  0  0  0  0  0  0  0  0  0  0  0
  -84.5805   33.4832   -0.7590 N   0  0  0  0  0  0  0  0  0  0  0  0
  -84.3123   32.3898   -0.0241 C   0  0  0  0  0  0  0  0  0  0  0  0
  -85.4060   31.5361   -0.0490 C   0  0  0  0  0  0  0  0  0  0  0  0
  -86.3347   32.1325   -0.8097 N   0  0  0  0  0  0  0  0  0  0  0  0
  -87.5417   31.7576   -1.1547 N   0  0  0  0  0  0  0  0  0  0  0  0
  -85.4852   30.2475    0.6355 C   0  0  0  0  0  0  0  0  0  0  0  0
  -86.7002   29.5535    0.6277 C   0  0  0  0  0  0  0  0  0  0  0  0
  -86.8932   28.3382    1.2352 C   0  0  0  0  0  0  0  0  0  0  0  0
  -85.8265   27.7671    1.8925 C   0  0  0  0  0  0  0  0  0  0  0  0
  -84.6040   28.4071    1.9324 C   0  0  0  0  0  0  0  0  0  0  0  0
  -84.4589   29.6478    1.2954 C   0  0  0  0  0  0  0  0  0  0  0  0
  -83.4669   27.8165    2.6229 C   0  0  0  0  0  0  0  0  0  0  0  0
  -82.3351   28.3253    2.4720 O   0  0  0  0  0  0  0  0  0  0  0  0
  -89.6807   31.9623   -2.2522 N   0  0  0  0  0  0  0  0  0  0  0  0
  -90.4213   32.0886   -1.4547 H   0  0  0  0  0  0  0  0  0  0  0  0
  -90.1833   31.3279   -3.4014 C   0  0  0  0  0  0  0  0  0  0  0  0
  -89.0919   31.0598   -4.4097 C   0  0  0  0  0  0  0  0  0  0  0  0
  -88.3037   30.0076   -3.9284 O   0  0  0  0  0  0  0  0  0  0  0  0
  -87.9052   29.5353   -4.7156 H   0  0  0  0  0  0  0  0  0  0  0  0
  -92.5947   31.1884   -3.5066 C   0  0  0  0  0  0  0  0  0  0  0  0
  -91.3615   31.9147   -4.0902 C   0  0  0  0  0  0  0  0  0  0  0  0
 24 25  1  0  0  0
 25 20  1  0  0  0
 20 21  1  0  0  0
 21 22  1  0  0  0
 20 18  1  0  0  0
 18  1  1  0  0  0
  1  2  1  0  0  0
  2  3  2  0  0  0
  3  4  1  0  0  0
  4  5  2  0  0  0
  5  6  1  0  0  0
  6  7  2  0  0  0
  7 10  1  0  0  0
 10 11  2  0  0  0
 11 12  1  0  0  0
 12 13  2  0  0  0
 13 14  1  0  0  0
 14 16  1  0  0  0
 16 17  2  0  0  0
 14 15  2  0  0  0
  7  8  1  0  0  0
  8  9  1  0  0  0
  9  1  2  0  0  0
  8  4  1  0  0  0
 15 10  1  0  0  0
 22 23  1  0  0  0
 18 19  1  0  0  0
M  END
> <minimizedAffinity>
-7.05936

> <CNNscore>
0.5285791755

> <CNNaffinity>
5.9063439369

> <CNN_VS>
3.1219704151

> <CNNaffinity_variance>
0.2648995519

$$$$
[H]OC([H])([H])[C@@]([H])(N([H])c1nn2c(-c3c([H])c([H])c([H])c(C([H])=O)c3[H])c([H])nc2c([H])c1[H])C([H])([H])C([H])([H])[H]


 25 27  0  0  0  0  0  0  0  0999 V2000
  -89.1729   29.1740   -0.1616 C   0  0  0  0  0  0  0  0  0  0  0  0
  -90.0450   30.0481   -0.7408 C   0  0  0  0  0  0  0  0  0  0  0  0
  -89.6539   31.3511   -1.0722 C   0  0  0  0  0  0  0  0  0  0  0  0
  -88.3732   31.7772   -0.8180 C   0  0  0  0  0  0  0  0  0  0  0  0
  -87.7227   32.9384   -1.0183 N   0  0  0  0  0  0  0  0  0  0  0  0
  -86.4693   32.7656   -0.5637 C   0  0  0  0  0  0  0  0  0  0  0  0
  -86.3300   31.4762   -0.0701 C   0  0  0  0  0  0  0  0  0  0  0  0
  -87.5178   30.8772   -0.2349 N   0  0  0  0  0  0  0  0  0  0  0  0
  -87.9248   29.6671    0.0591 N   0  0  0  0  0  0  0  0  0  0  0  0
  -85.1075   30.9224    0.5077 C   0  0  0  0  0  0  0  0  0  0  0  0
  -83.8873   31.5497    0.2325 C   0  0  0  0  0  0  0  0  0  0  0  0
  -82.6777   31.1209    0.7183 C   0  0  0  0  0  0  0  0  0  0  0  0
  -82.6636   30.0054    1.5254 C   0  0  0  0  0  0  0  0  0  0  0  0
  -83.8376   29.3463    1.8302 C   0  0  0  0  0  0  0  0  0  0  0  0
  -85.0478   29.8251    1.3083 C   0  0  0  0  0  0  0  0  0  0  0  0
  -83.8394   28.1660    2.6819 C   0  0  0  0  0  0  0  0  0  0  0  0
  -82.8618   27.3880    2.6418 O   0  0  0  0  0  0  0  0  0  0  0  0
  -89.5050   27.8490    0.1963 N   0  0  0  0  0  0  0  0  0  0  0  0
  -90.5615   27.6973    0.4440 H   0  0  0  0  0  0  0  0  0  0  0  0
  -88.7239   26.6845    0.2943 C   0  0  0  0  0  0  0  0  0  0  0  0
  -89.2777   25.5710   -0.5619 C   0  0  0  0  0  0  0  0  0  0  0  0
  -88.7253   24.3639   -0.1168 O   0  0  0  0  0  0  0  0  0  0  0  0
  -89.3737   23.6314   -0.3275 H   0  0  0  0  0  0  0  0  0  0  0  0
  -86.9460   26.6284    1.9319 C   0  0  0  0  0  0  0  0  0  0  0  0
  -88.3881   26.1545    1.6410 C   0  0  0  0  0  0  0  0  0  0  0  0
 24 25  1  0  0  0
 25 20  1  0  0  0
 20 21  1  0  0  0
 21 22  1  0  0  0
 20 18  1  0  0  0
 18  1  1  0  0  0
  1  2  1  0  0  0
  2  3  2  0  0  0
  3  4  1  0  0  0
  4  5  2  0  0  0
  5  6  1  0  0  0
  6  7  2  0  0  0
  7 10  1  0  0  0
 10 11  2  0  0  0
 11 12  1  0  0  0
 12 13  2  0  0  0
 13 14  1  0  0  0
 14 16  1  0  0  0
 16 17  2  0  0  0
 14 15  2  0  0  0
  7  8  1  0  0  0
  8  9  1  0  0  0
  9  1  2  0  0  0
  8  4  1  0  0  0
 15 10  1  0  0  0
 22 23  1  0  0  0
 18 19  1  0  0  0
M  END
> <minimizedAffinity>
-8.26076

> <CNNscore>
0.4208593071

> <CNNaffinity>
5.9386749268

> <CNN_VS>
2.4993467331

> <CNNaffinity_variance>
0.2156269550

$$$$
[H]c1nc(N([H])C([H])([H])c2c([H])c([H])c(Cl)c(Cl)c2[H])nc(-c2c([H])c([H])c3c(c2[H])OC([H])([H])O3)c1[H]


 26 29  0  0  0  0  0  0  0  0999 V2000
  -84.7814   27.6337    1.8362 C   0  0  0  0  0  0  0  0  0  0  0  0
  -83.5684   27.5652    2.4269 N   0  0  0  0  0  0  0  0  0  0  0  0
  -82.6933   28.5845    2.3805 C   0  0  0  0  0  0  0  0  0  0  0  0
  -83.0826   29.7261    1.6958 C   0  0  0  0  0  0  0  0  0  0  0  0
  -84.3058   29.8402    1.0803 C   0  0  0  0  0  0  0  0  0  0  0  0
  -85.1193   28.7540    1.1848 N   0  0  0  0  0  0  0  0  0  0  0  0
  -84.7554   31.0157    0.3528 C   0  0  0  0  0  0  0  0  0  0  0  0
  -83.8929   31.9870   -0.0831 C   0  0  0  0  0  0  0  0  0  0  0  0
  -84.3485   33.1128   -0.7831 C   0  0  0  0  0  0  0  0  0  0  0  0
  -85.6924   33.2540   -1.0433 C   0  0  0  0  0  0  0  0  0  0  0  0
  -86.4532   34.2331   -1.7011 O   0  0  0  0  0  0  0  0  0  0  0  0
  -87.6249   33.5541   -2.1280 C   0  0  0  0  0  0  0  0  0  0  0  0
  -87.8603   32.6954   -1.0168 O   0  0  0  0  0  0  0  0  0  0  0  0
  -86.5840   32.2835   -0.6118 C   0  0  0  0  0  0  0  0  0  0  0  0
  -86.1023   31.1913    0.0726 C   0  0  0  0  0  0  0  0  0  0  0  0
  -85.6386   26.5085    1.9376 N   0  0  0  0  0  0  0  0  0  0  0  0
  -85.4268   25.8184    2.6847 H   0  0  0  0  0  0  0  0  0  0  0  0
  -86.7592   26.3333    1.0369 C   0  0  0  0  0  0  0  0  0  0  0  0
  -91.7427   29.0168    3.1746 Cl  0  0  0  0  0  0  0  0  0  0  0  0
  -90.2988   28.2398    2.5541 C   0  0  0  0  0  0  0  0  0  0  0  0
  -89.8516   28.4248    1.2639 C   0  0  0  0  0  0  0  0  0  0  0  0
  -88.7167   27.8173    0.7679 C   0  0  0  0  0  0  0  0  0  0  0  0
  -87.9763   26.9795    1.5827 C   0  0  0  0  0  0  0  0  0  0  0  0
  -88.4230   26.7937    2.8742 C   0  0  0  0  0  0  0  0  0  0  0  0
  -89.5575   27.4009    3.3703 C   0  0  0  0  0  0  0  0  0  0  0  0
  -90.1043   27.1559    4.9962 Cl  0  0  0  0  0  0  0  0  0  0  0  0
 19 20  1  0  0  0
 20 21  2  0  0  0
 21 22  1  0  0  0
 22 23  2  0  0  0
 23 18  1  0  0  0
 18 16  1  0  0  0
 16  1  1  0  0  0
  1  2  2  0  0  0
  2  3  1  0  0  0
  3  4  2  0  0  0
  4  5  1  0  0  0
  5  6  2  0  0  0
  5  7  1  0  0  0
  7  8  2  0  0  0
  8  9  1  0  0  0
  9 10  2  0  0  0
 10 11  1  0  0  0
 11 12  1  0  0  0
 12 13  1  0  0  0
 13 14  1  0  0  0
 14 15  2  0  0  0
 23 24  1  0  0  0
 24 25  2  0  0  0
 25 26  1  0  0  0
 25 20  1  0  0  0
  6  1  1  0  0  0
 15  7  1  0  0  0
 14 10  1  0  0  0
 16 17  1  0  0  0
M  END
> <minimizedAffinity>
-8.25251

> <CNNscore>
0.9239277244

> <CNNaffinity>
7.3423452377

> <CNN_VS>
6.7837963104

> <CNNaffinity_variance>
0.0777431577

$$$$
[H]c1nc(N([H])C([H])([H])c2c([H])c([H])c(Cl)c(Cl)c2[H])nc(-c2c([H])c([H])c3c(c2[H])OC([H])([H])O3)c1[H]


 26 29  0  0  0  0  0  0  0  0999 V2000
  -85.0486   33.1530   -0.7884 C   0  0  0  0  0  0  0  0  0  0  0  0
  -83.7698   33.5886   -0.7935 N   0  0  0  0  0  0  0  0  0  0  0  0
  -82.7689   32.8699   -0.2561 C   0  0  0  0  0  0  0  0  0  0  0  0
  -83.0972   31.6481    0.3122 C   0  0  0  0  0  0  0  0  0  0  0  0
  -84.3834   31.1654    0.3400 C   0  0  0  0  0  0  0  0  0  0  0  0
  -85.3240   31.9675   -0.2297 N   0  0  0  0  0  0  0  0  0  0  0  0
  -84.7731   29.8924    0.9239 C   0  0  0  0  0  0  0  0  0  0  0  0
  -84.0151   29.2525    1.8689 C   0  0  0  0  0  0  0  0  0  0  0  0
  -84.4101   28.0251    2.4188 C   0  0  0  0  0  0  0  0  0  0  0  0
  -85.5860   27.4417    2.0055 C   0  0  0  0  0  0  0  0  0  0  0  0
  -86.2487   26.2525    2.3472 O   0  0  0  0  0  0  0  0  0  0  0  0
  -87.6125   26.4964    2.0359 C   0  0  0  0  0  0  0  0  0  0  0  0
  -87.4854   27.2517    0.8356 O   0  0  0  0  0  0  0  0  0  0  0  0
  -86.3695   28.0712    1.0501 C   0  0  0  0  0  0  0  0  0  0  0  0
  -85.9515   29.2752    0.5316 C   0  0  0  0  0  0  0  0  0  0  0  0
  -86.0383   33.9794   -1.3789 N   0  0  0  0  0  0  0  0  0  0  0  0
  -86.1339   34.9438   -1.0047 H   0  0  0  0  0  0  0  0  0  0  0  0
  -86.8768   33.4957   -2.4562 C   0  0  0  0  0  0  0  0  0  0  0  0
  -90.6581   29.2345   -0.4189 Cl  0  0  0  0  0  0  0  0  0  0  0  0
  -89.5630   30.4700   -1.0085 C   0  0  0  0  0  0  0  0  0  0  0  0
  -89.6057   31.7740   -0.5648 C   0  0  0  0  0  0  0  0  0  0  0  0
  -88.7478   32.7520   -1.0235 C   0  0  0  0  0  0  0  0  0  0  0  0
  -87.7920   32.4351   -1.9722 C   0  0  0  0  0  0  0  0  0  0  0  0
  -87.7483   31.1304   -2.4170 C   0  0  0  0  0  0  0  0  0  0  0  0
  -88.6059   30.1524   -1.9585 C   0  0  0  0  0  0  0  0  0  0  0  0
  -88.5367   28.5176   -2.5287 Cl  0  0  0  0  0  0  0  0  0  0  0  0
 19 20  1  0  0  0
 20 21  2  0  0  0
 21 22  1  0  0  0
 22 23  2  0  0  0
 23 18  1  0  0  0
 18 16  1  0  0  0
 16  1  1  0  0  0
  1  2  2  0  0  0
  2  3  1  0  0  0
  3  4  2  0  0  0
  4  5  1  0  0  0
  5  6  2  0  0  0
  5  7  1  0  0  0
  7  8  2  0  0  0
  8  9  1  0  0  0
  9 10  2  0  0  0
 10 11  1  0  0  0
 11 12  1  0  0  0
 12 13  1  0  0  0
 13 14  1  0  0  0
 14 15  2  0  0  0
 23 24  1  0  0  0
 24 25  2  0  0  0
 25 26  1  0  0  0
 25 20  1  0  0  0
  6  1  1  0  0  0
 15  7  1  0  0  0
 14 10  1  0  0  0
 16 17  1  0  0  0
M  END
> <minimizedAffinity>
-8.86795

> <CNNscore>
0.8681831360

> <CNNaffinity>
7.0666761398

> <CNN_VS>
6.1351690292

> <CNNaffinity_variance>
0.1138660535

$$$$
[H]c1nc(N([H])C([H])([H])c2c([H])c([H])c(Cl)c(Cl)c2[H])nc(-c2c([H])c([H])c3c(c2[H])OC([H])([H])O3)c1[H]


 26 29  0  0  0  0  0  0  0  0999 V2000
  -85.0790   33.0817   -0.8984 C   0  0  0  0  0  0  0  0  0  0  0  0
  -83.8069   33.5326   -0.8397 N   0  0  0  0  0  0  0  0  0  0  0  0
  -82.8313   32.8388   -0.2284 C   0  0  0  0  0  0  0  0  0  0  0  0
  -83.1789   31.6264    0.3487 C   0  0  0  0  0  0  0  0  0  0  0  0
  -84.4593   31.1289    0.3134 C   0  0  0  0  0  0  0  0  0  0  0  0
  -85.3737   31.9061   -0.3287 N   0  0  0  0  0  0  0  0  0  0  0  0
  -84.8685   29.8651    0.9037 C   0  0  0  0  0  0  0  0  0  0  0  0
  -84.0885   29.1842    1.8011 C   0  0  0  0  0  0  0  0  0  0  0  0
  -84.5030   27.9666    2.3582 C   0  0  0  0  0  0  0  0  0  0  0  0
  -85.7211   27.4349    2.0011 C   0  0  0  0  0  0  0  0  0  0  0  0
  -86.4120   26.2685    2.3648 O   0  0  0  0  0  0  0  0  0  0  0  0
  -87.7793   26.5696    2.1279 C   0  0  0  0  0  0  0  0  0  0  0  0
  -87.6848   27.3342    0.9304 O   0  0  0  0  0  0  0  0  0  0  0  0
  -86.5275   28.1065    1.0946 C   0  0  0  0  0  0  0  0  0  0  0  0
  -86.0894   29.2995    0.5674 C   0  0  0  0  0  0  0  0  0  0  0  0
  -86.0416   33.8823   -1.5647 N   0  0  0  0  0  0  0  0  0  0  0  0
  -86.2833   34.7932   -1.1277 H   0  0  0  0  0  0  0  0  0  0  0  0
  -86.6581   33.4448   -2.8001 C   0  0  0  0  0  0  0  0  0  0  0  0
  -91.2752   37.0343   -4.3507 Cl  0  0  0  0  0  0  0  0  0  0  0  0
  -89.9380   35.9932   -3.9016 C   0  0  0  0  0  0  0  0  0  0  0  0
  -90.0331   34.6185   -3.9050 C   0  0  0  0  0  0  0  0  0  0  0  0
  -88.9859   33.7923   -3.5531 C   0  0  0  0  0  0  0  0  0  0  0  0
  -87.7747   34.3442   -3.1757 C   0  0  0  0  0  0  0  0  0  0  0  0
  -87.6785   35.7199   -3.1720 C   0  0  0  0  0  0  0  0  0  0  0  0
  -88.7252   36.5461   -3.5237 C   0  0  0  0  0  0  0  0  0  0  0  0
  -88.5866   38.2733   -3.5132 Cl  0  0  0  0  0  0  0  0  0  0  0  0
 19 20  1  0  0  0
 20 21  2  0  0  0
 21 22  1  0  0  0
 22 23  2  0  0  0
 23 18  1  0  0  0
 18 16  1  0  0  0
 16  1  1  0  0  0
  1  2  2  0  0  0
  2  3  1  0  0  0
  3  4  2  0  0  0
  4  5  1  0  0  0
  5  6  2  0  0  0
  5  7  1  0  0  0
  7  8  2  0  0  0
  8  9  1  0  0  0
  9 10  2  0  0  0
 10 11  1  0  0  0
 11 12  1  0  0  0
 12 13  1  0  0  0
 13 14  1  0  0  0
 14 15  2  0  0  0
 23 24  1  0  0  0
 24 25  2  0  0  0
 25 26  1  0  0  0
 25 20  1  0  0  0
  6  1  1  0  0  0
 15  7  1  0  0  0
 14 10  1  0  0  0
 16 17  1  0  0  0
M  END
> <minimizedAffinity>
-8.50784

> <CNNscore>
0.8625881076

> <CNNaffinity>
6.7285828590

> <CNN_VS>
5.8039956093

> <CNNaffinity_variance>
0.1051706523

$$$$
[H]c1nc(N([H])C([H])([H])c2c([H])c([H])c(Cl)c(Cl)c2[H])nc(-c2c([H])c([H])c3c(c2[H])OC([H])([H])O3)c1[H]


 26 29  0  0  0  0  0  0  0  0999 V2000
  -88.6449   31.6670   -0.9407 C   0  0  0  0  0  0  0  0  0  0  0  0
  -88.4941   32.8916   -1.4909 N   0  0  0  0  0  0  0  0  0  0  0  0
  -87.3208   33.5470   -1.4629 C   0  0  0  0  0  0  0  0  0  0  0  0
  -86.2540   32.9151   -0.8414 C   0  0  0  0  0  0  0  0  0  0  0  0
  -86.3613   31.6707   -0.2689 C   0  0  0  0  0  0  0  0  0  0  0  0
  -87.5901   31.0910   -0.3500 N   0  0  0  0  0  0  0  0  0  0  0  0
  -85.2717   30.9713    0.3921 C   0  0  0  0  0  0  0  0  0  0  0  0
  -84.0568   31.5583    0.6309 C   0  0  0  0  0  0  0  0  0  0  0  0
  -83.0197   30.8650    1.2701 C   0  0  0  0  0  0  0  0  0  0  0  0
  -83.2175   29.5634    1.6708 C   0  0  0  0  0  0  0  0  0  0  0  0
  -82.4084   28.6163    2.3177 O   0  0  0  0  0  0  0  0  0  0  0  0
  -83.3220   27.7253    2.9404 C   0  0  0  0  0  0  0  0  0  0  0  0
  -84.3422   27.6477    1.9502 O   0  0  0  0  0  0  0  0  0  0  0  0
  -84.4389   28.9488    1.4397 C   0  0  0  0  0  0  0  0  0  0  0  0
  -85.4350   29.6589    0.8097 C   0  0  0  0  0  0  0  0  0  0  0  0
  -89.9204   31.0520   -1.0184 N   0  0  0  0  0  0  0  0  0  0  0  0
  -90.7500   31.6737   -0.9517 H   0  0  0  0  0  0  0  0  0  0  0  0
  -90.0556   29.6195   -1.1835 C   0  0  0  0  0  0  0  0  0  0  0  0
  -89.9676   26.8644    4.2024 Cl  0  0  0  0  0  0  0  0  0  0  0  0
  -89.9942   27.6633    2.6421 C   0  0  0  0  0  0  0  0  0  0  0  0
  -91.0257   28.4869    2.2464 C   0  0  0  0  0  0  0  0  0  0  0  0
  -91.0543   29.1191    1.0207 C   0  0  0  0  0  0  0  0  0  0  0  0
  -90.0119   28.9342    0.1300 C   0  0  0  0  0  0  0  0  0  0  0  0
  -88.9790   28.1101    0.5249 C   0  0  0  0  0  0  0  0  0  0  0  0
  -88.9503   27.4780    1.7502 C   0  0  0  0  0  0  0  0  0  0  0  0
  -87.6439   26.4455    2.2300 Cl  0  0  0  0  0  0  0  0  0  0  0  0
 19 20  1  0  0  0
 20 21  2  0  0  0
 21 22  1  0  0  0
 22 23  2  0  0  0
 23 18  1  0  0  0
 18 16  1  0  0  0
 16  1  1  0  0  0
  1  2  2  0  0  0
  2  3  1  0  0  0
  3  4  2  0  0  0
  4  5  1  0  0  0
  5  6  2  0  0  0
  5  7  1  0  0  0
  7  8  2  0  0  0
  8  9  1  0  0  0
  9 10  2  0  0  0
 10 11  1  0  0  0
 11 12  1  0  0  0
 12 13  1  0  0  0
 13 14  1  0  0  0
 14 15  2  0  0  0
 23 24  1  0  0  0
 24 25  2  0  0  0
 25 26  1  0  0  0
 25 20  1  0  0  0
  6  1  1  0  0  0
 15  7  1  0  0  0
 14 10  1  0  0  0
 16 17  1  0  0  0
M  END
> <minimizedAffinity>
-8.65800

> <CNNscore>
0.6579926014

> <CNNaffinity>
6.9002089500

> <CNN_VS>
4.5402865410

> <CNNaffinity_variance>
0.1246636137

$$$$
[H]c1nc(N([H])C([H])([H])c2c([H])c([H])c(Cl)c(Cl)c2[H])nc(-c2c([H])c([H])c3c(c2[H])OC([H])([H])O3)c1[H]


 26 29  0  0  0  0  0  0  0  0999 V2000
  -88.3352   32.6108   -1.2145 C   0  0  0  0  0  0  0  0  0  0  0  0
  -87.9926   33.6704   -1.9793 N   0  0  0  0  0  0  0  0  0  0  0  0
  -86.7159   34.0677   -2.1174 C   0  0  0  0  0  0  0  0  0  0  0  0
  -85.7473   33.3431   -1.4389 C   0  0  0  0  0  0  0  0  0  0  0  0
  -86.0495   32.2591   -0.6504 C   0  0  0  0  0  0  0  0  0  0  0  0
  -87.3700   31.9374   -0.5756 N   0  0  0  0  0  0  0  0  0  0  0  0
  -85.0688   31.4712    0.0780 C   0  0  0  0  0  0  0  0  0  0  0  0
  -83.8129   31.9390    0.3633 C   0  0  0  0  0  0  0  0  0  0  0  0
  -82.8827   31.1619    1.0672 C   0  0  0  0  0  0  0  0  0  0  0  0
  -83.2304   29.8978    1.4857 C   0  0  0  0  0  0  0  0  0  0  0  0
  -82.5528   28.8915    2.1916 O   0  0  0  0  0  0  0  0  0  0  0  0
  -83.5804   28.1137    2.7879 C   0  0  0  0  0  0  0  0  0  0  0  0
  -84.5561   28.1132    1.7508 O   0  0  0  0  0  0  0  0  0  0  0  0
  -84.4960   29.4035    1.2083 C   0  0  0  0  0  0  0  0  0  0  0  0
  -85.3842   30.1934    0.5153 C   0  0  0  0  0  0  0  0  0  0  0  0
  -89.7079   32.2651   -1.1281 N   0  0  0  0  0  0  0  0  0  0  0  0
  -90.3225   32.9015   -0.5835 H   0  0  0  0  0  0  0  0  0  0  0  0
  -90.2258   31.0760   -1.7726 C   0  0  0  0  0  0  0  0  0  0  0  0
  -87.3242   26.1234    0.1403 Cl  0  0  0  0  0  0  0  0  0  0  0  0
  -88.1645   27.5583   -0.4152 C   0  0  0  0  0  0  0  0  0  0  0  0
  -88.0737   28.0176   -1.7112 C   0  0  0  0  0  0  0  0  0  0  0  0
  -88.7316   29.1456   -2.1561 C   0  0  0  0  0  0  0  0  0  0  0  0
  -89.5248   29.8661   -1.2811 C   0  0  0  0  0  0  0  0  0  0  0  0
  -89.6164   29.4072    0.0162 C   0  0  0  0  0  0  0  0  0  0  0  0
  -88.9588   28.2796    0.4613 C   0  0  0  0  0  0  0  0  0  0  0  0
  -89.0853   27.7174    2.0955 Cl  0  0  0  0  0  0  0  0  0  0  0  0
 19 20  1  0  0  0
 20 21  2  0  0  0
 21 22  1  0  0  0
 22 23  2  0  0  0
 23 18  1  0  0  0
 18 16  1  0  0  0
 16  1  1  0  0  0
  1  2  2  0  0  0
  2  3  1  0  0  0
  3  4  2  0  0  0
  4  5  1  0  0  0
  5  6  2  0  0  0
  5  7  1  0  0  0
  7  8  2  0  0  0
  8  9  1  0  0  0
  9 10  2  0  0  0
 10 11  1  0  0  0
 11 12  1  0  0  0
 12 13  1  0  0  0
 13 14  1  0  0  0
 14 15  2  0  0  0
 23 24  1  0  0  0
 24 25  2  0  0  0
 25 26  1  0  0  0
 25 20  1  0  0  0
  6  1  1  0  0  0
 15  7  1  0  0  0
 14 10  1  0  0  0
 16 17  1  0  0  0
M  END
> <minimizedAffinity>
-8.77372

> <CNNscore>
0.3050113022

> <CNNaffinity>
6.3963675499

> <CNN_VS>
1.9509644508

> <CNNaffinity_variance>
0.2807907760

$$$$
[H]c1nc(N([H])C([H])([H])c2c([H])c([H])c(Cl)c(Cl)c2[H])nc(-c2c([H])c([H])c3c(c2[H])OC([H])([H])O3)c1[H]


 26 29  0  0  0  0  0  0  0  0999 V2000
  -86.4591   33.0815   -1.6781 C   0  0  0  0  0  0  0  0  0  0  0  0
  -87.2941   33.9571   -2.2791 N   0  0  0  0  0  0  0  0  0  0  0  0
  -88.6247   33.7691   -2.3084 C   0  0  0  0  0  0  0  0  0  0  0  0
  -89.1198   32.6296   -1.6919 C   0  0  0  0  0  0  0  0  0  0  0  0
  -88.3085   31.7123   -1.0688 C   0  0  0  0  0  0  0  0  0  0  0  0
  -86.9769   31.9933   -1.0940 N   0  0  0  0  0  0  0  0  0  0  0  0
  -88.7828   30.5059   -0.4108 C   0  0  0  0  0  0  0  0  0  0  0  0
  -90.1091   30.2818   -0.1499 C   0  0  0  0  0  0  0  0  0  0  0  0
  -90.5443   29.1109    0.4859 C   0  0  0  0  0  0  0  0  0  0  0  0
  -89.6246   28.1581    0.8604 C   0  0  0  0  0  0  0  0  0  0  0  0
  -89.7273   26.9113    1.4968 O   0  0  0  0  0  0  0  0  0  0  0  0
  -88.5687   26.1998    1.0871 C   0  0  0  0  0  0  0  0  0  0  0  0
  -87.5961   27.2398    1.0931 O   0  0  0  0  0  0  0  0  0  0  0  0
  -88.2769   28.3633    0.6064 C   0  0  0  0  0  0  0  0  0  0  0  0
  -87.8847   29.5241   -0.0196 C   0  0  0  0  0  0  0  0  0  0  0  0
  -85.0692   33.3627   -1.6973 N   0  0  0  0  0  0  0  0  0  0  0  0
  -84.5937   33.3342   -2.6205 H   0  0  0  0  0  0  0  0  0  0  0  0
  -84.3484   33.6754   -0.4806 C   0  0  0  0  0  0  0  0  0  0  0  0
  -82.6056   28.6062    2.3250 Cl  0  0  0  0  0  0  0  0  0  0  0  0
  -83.1096   30.0750    1.5113 C   0  0  0  0  0  0  0  0  0  0  0  0
  -82.3825   30.6450    0.4889 C   0  0  0  0  0  0  0  0  0  0  0  0
  -82.7720   31.8003   -0.1564 C   0  0  0  0  0  0  0  0  0  0  0  0
  -83.9419   32.4349    0.2213 C   0  0  0  0  0  0  0  0  0  0  0  0
  -84.6705   31.8653    1.2444 C   0  0  0  0  0  0  0  0  0  0  0  0
  -84.2812   30.7103    1.8897 C   0  0  0  0  0  0  0  0  0  0  0  0
  -85.2092   30.0084    3.1737 Cl  0  0  0  0  0  0  0  0  0  0  0  0
 19 20  1  0  0  0
 20 21  2  0  0  0
 21 22  1  0  0  0
 22 23  2  0  0  0
 23 18  1  0  0  0
 18 16  1  0  0  0
 16  1  1  0  0  0
  1  2  2  0  0  0
  2  3  1  0  0  0
  3  4  2  0  0  0
  4  5  1  0  0  0
  5  6  2  0  0  0
  5  7  1  0  0  0
  7  8  2  0  0  0
  8  9  1  0  0  0
  9 10  2  0  0  0
 10 11  1  0  0  0
 11 12  1  0  0  0
 12 13  1  0  0  0
 13 14  1  0  0  0
 14 15  2  0  0  0
 23 24  1  0  0  0
 24 25  2  0  0  0
 25 26  1  0  0  0
 25 20  1  0  0  0
  6  1  1  0  0  0
 15  7  1  0  0  0
 14 10  1  0  0  0
 16 17  1  0  0  0
M  END
> <minimizedAffinity>
-9.11502

> <CNNscore>
0.2876833975

> <CNNaffinity>
6.5508475304

> <CNN_VS>
1.8845701218

> <CNNaffinity_variance>
0.2686168551

$$$$
[H]c1nc(N([H])C([H])([H])c2c([H])c([H])c(Cl)c(Cl)c2[H])nc(-c2c([H])c([H])c3c(c2[H])OC([H])([H])O3)c1[H]


 26 29  0  0  0  0  0  0  0  0999 V2000
  -88.5447   33.2066   -2.0139 C   0  0  0  0  0  0  0  0  0  0  0  0
  -89.7083   32.5503   -1.8127 N   0  0  0  0  0  0  0  0  0  0  0  0
  -89.7870   31.4609   -1.0292 C   0  0  0  0  0  0  0  0  0  0  0  0
  -88.6167   31.0263   -0.4250 C   0  0  0  0  0  0  0  0  0  0  0  0
  -87.4114   31.6621   -0.6010 C   0  0  0  0  0  0  0  0  0  0  0  0
  -87.4369   32.7548   -1.4122 N   0  0  0  0  0  0  0  0  0  0  0  0
  -86.1615   31.2426    0.0114 C   0  0  0  0  0  0  0  0  0  0  0  0
  -85.0989   32.0922    0.1736 C   0  0  0  0  0  0  0  0  0  0  0  0
  -83.9026   31.6663    0.7670 C   0  0  0  0  0  0  0  0  0  0  0  0
  -83.7836   30.3655    1.2002 C   0  0  0  0  0  0  0  0  0  0  0  0
  -82.7519   29.6417    1.8180 O   0  0  0  0  0  0  0  0  0  0  0  0
  -83.4107   28.5878    2.5048 C   0  0  0  0  0  0  0  0  0  0  0  0
  -84.4352   28.2562    1.5731 O   0  0  0  0  0  0  0  0  0  0  0  0
  -84.8461   29.4877    1.0465 C   0  0  0  0  0  0  0  0  0  0  0  0
  -86.0058   29.9394    0.4598 C   0  0  0  0  0  0  0  0  0  0  0  0
  -88.5578   34.3467   -2.8572 N   0  0  0  0  0  0  0  0  0  0  0  0
  -89.4869   34.7118   -3.1446 H   0  0  0  0  0  0  0  0  0  0  0  0
  -87.3270   34.9715   -3.2960 C   0  0  0  0  0  0  0  0  0  0  0  0
  -88.0705   37.9358   -8.5177 Cl  0  0  0  0  0  0  0  0  0  0  0  0
  -87.8540   37.0775   -7.0044 C   0  0  0  0  0  0  0  0  0  0  0  0
  -86.8117   37.3420   -6.1427 C   0  0  0  0  0  0  0  0  0  0  0  0
  -86.6343   36.6714   -4.9503 C   0  0  0  0  0  0  0  0  0  0  0  0
  -87.5297   35.6840   -4.5798 C   0  0  0  0  0  0  0  0  0  0  0  0
  -88.5732   35.4185   -5.4414 C   0  0  0  0  0  0  0  0  0  0  0  0
  -88.7508   36.0888   -6.6335 C   0  0  0  0  0  0  0  0  0  0  0  0
  -90.0683   35.7420   -7.7044 Cl  0  0  0  0  0  0  0  0  0  0  0  0
 19 20  1  0  0  0
 20 21  2  0  0  0
 21 22  1  0  0  0
 22 23  2  0  0  0
 23 18  1  0  0  0
 18 16  1  0  0  0
 16  1  1  0  0  0
  1  2  2  0  0  0
  2  3  1  0  0  0
  3  4  2  0  0  0
  4  5  1  0  0  0
  5  6  2  0  0  0
  5  7  1  0  0  0
  7  8  2  0  0  0
  8  9  1  0  0  0
  9 10  2  0  0  0
 10 11  1  0  0  0
 11 12  1  0  0  0
 12 13  1  0  0  0
 13 14  1  0  0  0
 14 15  2  0  0  0
 23 24  1  0  0  0
 24 25  2  0  0  0
 25 26  1  0  0  0
 25 20  1  0  0  0
  6  1  1  0  0  0
 15  7  1  0  0  0
 14 10  1  0  0  0
 16 17  1  0  0  0
M  END
> <minimizedAffinity>
-7.76797

> <CNNscore>
0.2609929144

> <CNNaffinity>
5.8716382980

> <CNN_VS>
1.5324560404

> <CNNaffinity_variance>
0.0883541331

$$$$
[H]c1nc(N([H])C([H])([H])c2c([H])c([H])c(Cl)c(Cl)c2[H])nc(-c2c([H])c([H])c3c(c2[H])OC([H])([H])O3)c1[H]


 26 29  0  0  0  0  0  0  0  0999 V2000
  -85.2874   27.4920    1.9273 C   0  0  0  0  0  0  0  0  0  0  0  0
  -84.1119   27.2937    2.5629 N   0  0  0  0  0  0  0  0  0  0  0  0
  -83.1347   28.2166    2.5605 C   0  0  0  0  0  0  0  0  0  0  0  0
  -83.3765   29.3971    1.8737 C   0  0  0  0  0  0  0  0  0  0  0  0
  -84.5564   29.6420    1.2135 C   0  0  0  0  0  0  0  0  0  0  0  0
  -85.4817   28.6456    1.2755 N   0  0  0  0  0  0  0  0  0  0  0  0
  -84.8532   30.8626    0.4820 C   0  0  0  0  0  0  0  0  0  0  0  0
  -83.8855   31.7706    0.1404 C   0  0  0  0  0  0  0  0  0  0  0  0
  -84.1941   32.9416   -0.5654 C   0  0  0  0  0  0  0  0  0  0  0  0
  -85.4975   33.1936   -0.9281 C   0  0  0  0  0  0  0  0  0  0  0  0
  -86.1242   34.2419   -1.6198 O   0  0  0  0  0  0  0  0  0  0  0  0
  -87.3064   33.6658   -2.1554 C   0  0  0  0  0  0  0  0  0  0  0  0
  -87.6971   32.8079   -1.0881 O   0  0  0  0  0  0  0  0  0  0  0  0
  -86.4936   32.2888   -0.5933 C   0  0  0  0  0  0  0  0  0  0  0  0
  -86.1552   31.1494    0.0999 C   0  0  0  0  0  0  0  0  0  0  0  0
  -86.2601   26.4614    1.9843 N   0  0  0  0  0  0  0  0  0  0  0  0
  -85.9195   25.4842    1.8934 H   0  0  0  0  0  0  0  0  0  0  0  0
  -87.6655   26.7630    2.1615 C   0  0  0  0  0  0  0  0  0  0  0  0
  -90.6181   26.4979   -3.1127 Cl  0  0  0  0  0  0  0  0  0  0  0  0
  -89.7627   26.5760   -1.5845 C   0  0  0  0  0  0  0  0  0  0  0  0
  -89.4496   27.7681   -0.9682 C   0  0  0  0  0  0  0  0  0  0  0  0
  -88.7769   27.8382    0.2340 C   0  0  0  0  0  0  0  0  0  0  0  0
  -88.3877   26.6730    0.8703 C   0  0  0  0  0  0  0  0  0  0  0  0
  -88.7004   25.4793    0.2545 C   0  0  0  0  0  0  0  0  0  0  0  0
  -89.3730   25.4090   -0.9475 C   0  0  0  0  0  0  0  0  0  0  0  0
  -89.7578   23.8999   -1.7072 Cl  0  0  0  0  0  0  0  0  0  0  0  0
 19 20  1  0  0  0
 20 21  2  0  0  0
 21 22  1  0  0  0
 22 23  2  0  0  0
 23 18  1  0  0  0
 18 16  1  0  0  0
 16  1  1  0  0  0
  1  2  2  0  0  0
  2  3  1  0  0  0
  3  4  2  0  0  0
  4  5  1  0  0  0
  5  6  2  0  0  0
  5  7  1  0  0  0
  7  8  2  0  0  0
  8  9  1  0  0  0
  9 10  2  0  0  0
 10 11  1  0  0  0
 11 12  1  0  0  0
 12 13  1  0  0  0
 13 14  1  0  0  0
 14 15  2  0  0  0
 23 24  1  0  0  0
 24 25  2  0  0  0
 25 26  1  0  0  0
 25 20  1  0  0  0
  6  1  1  0  0  0
 15  7  1  0  0  0
 14 10  1  0  0  0
 16 17  1  0  0  0
M  END
> <minimizedAffinity>
-8.76396

> <CNNscore>
0.2224914581

> <CNNaffinity>
6.2980418205

> <CNN_VS>
1.4012604952

> <CNNaffinity_variance>
0.2328273952

$$$$
[H]c1nc(N([H])C([H])([H])c2c([H])c([H])c(Cl)c(Cl)c2[H])nc(-c2c([H])c([H])c3c(c2[H])OC([H])([H])O3)c1[H]


 26 29  0  0  0  0  0  0  0  0999 V2000
  -88.4500   32.5271   -1.1853 C   0  0  0  0  0  0  0  0  0  0  0  0
  -88.1248   33.5740   -1.9747 N   0  0  0  0  0  0  0  0  0  0  0  0
  -86.8531   33.9789   -2.1352 C   0  0  0  0  0  0  0  0  0  0  0  0
  -85.8709   33.2758   -1.4536 C   0  0  0  0  0  0  0  0  0  0  0  0
  -86.1552   32.2052   -0.6404 C   0  0  0  0  0  0  0  0  0  0  0  0
  -87.4720   31.8743   -0.5442 N   0  0  0  0  0  0  0  0  0  0  0  0
  -85.1598   31.4400    0.0921 C   0  0  0  0  0  0  0  0  0  0  0  0
  -83.9271   31.9473    0.4092 C   0  0  0  0  0  0  0  0  0  0  0  0
  -82.9821   31.1915    1.1166 C   0  0  0  0  0  0  0  0  0  0  0  0
  -83.2912   29.9082    1.5060 C   0  0  0  0  0  0  0  0  0  0  0  0
  -82.5903   28.9141    2.2066 O   0  0  0  0  0  0  0  0  0  0  0  0
  -83.5996   28.0891    2.7696 C   0  0  0  0  0  0  0  0  0  0  0  0
  -84.5556   28.0724    1.7146 O   0  0  0  0  0  0  0  0  0  0  0  0
  -84.5327   29.3738    1.1963 C   0  0  0  0  0  0  0  0  0  0  0  0
  -85.4364   30.1438    0.5008 C   0  0  0  0  0  0  0  0  0  0  0  0
  -89.8187   32.1720   -1.0764 N   0  0  0  0  0  0  0  0  0  0  0  0
  -90.3669   32.6281   -0.3211 H   0  0  0  0  0  0  0  0  0  0  0  0
  -90.4214   31.2150   -1.9811 C   0  0  0  0  0  0  0  0  0  0  0  0
  -91.1016   25.8961    0.8212 Cl  0  0  0  0  0  0  0  0  0  0  0  0
  -90.9043   27.4379    0.0103 C   0  0  0  0  0  0  0  0  0  0  0  0
  -90.6848   28.6141    0.6937 C   0  0  0  0  0  0  0  0  0  0  0  0
  -90.5286   29.8312    0.0634 C   0  0  0  0  0  0  0  0  0  0  0  0
  -90.5909   29.9009   -1.3170 C   0  0  0  0  0  0  0  0  0  0  0  0
  -90.8106   28.7242   -2.0020 C   0  0  0  0  0  0  0  0  0  0  0  0
  -90.9668   27.5074   -1.3720 C   0  0  0  0  0  0  0  0  0  0  0  0
  -91.2423   26.0384   -2.2489 Cl  0  0  0  0  0  0  0  0  0  0  0  0
 19 20  1  0  0  0
 20 21  2  0  0  0
 21 22  1  0  0  0
 22 23  2  0  0  0
 23 18  1  0  0  0
 18 16  1  0  0  0
 16  1  1  0  0  0
  1  2  2  0  0  0
  2  3  1  0  0  0
  3  4  2  0  0  0
  4  5  1  0  0  0
  5  6  2  0  0  0
  5  7  1  0  0  0
  7  8  2  0  0  0
  8  9  1  0  0  0
  9 10  2  0  0  0
 10 11  1  0  0  0
 11 12  1  0  0  0
 12 13  1  0  0  0
 13 14  1  0  0  0
 14 15  2  0  0  0
 23 24  1  0  0  0
 24 25  2  0  0  0
 25 26  1  0  0  0
 25 20  1  0  0  0
  6  1  1  0  0  0
 15  7  1  0  0  0
 14 10  1  0  0  0
 16 17  1  0  0  0
M  END
> <minimizedAffinity>
-8.25998

> <CNNscore>
0.2180762440

> <CNNaffinity>
6.0365352631

> <CNN_VS>
1.3164249659

> <CNNaffinity_variance>
0.2223220617

$$$$
[H]/C(=C1/SC(=S)N([H])C1=O)c1c([H])c([H])c2nc([H])sc2c1[H]


 18 20  0  0  0  0  0  0  0  0999 V2000
  -83.0409   33.7549   -0.4330 O   0  0  0  0  0  0  0  0  0  0  0  0
  -83.6085   32.6821   -0.0072 C   0  0  0  0  0  0  0  0  0  0  0  0
  -82.9987   31.7360    0.7988 N   0  0  0  0  0  0  0  0  0  0  0  0
  -83.7689   30.6262    1.1688 C   0  0  0  0  0  0  0  0  0  0  0  0
  -83.3081   29.2932    1.9370 S   0  0  0  0  0  0  0  0  0  0  0  0
  -85.4210   30.9682    0.6133 S   0  0  0  0  0  0  0  0  0  0  0  0
  -84.9876   32.4180   -0.3828 C   0  0  0  0  0  0  0  0  0  0  0  0
  -85.7720   33.0542   -1.2202 C   0  0  0  0  0  0  0  0  0  0  0  0
  -81.9888   31.8296    1.1336 H   0  0  0  0  0  0  0  0  0  0  0  0
  -87.1390   32.6549   -1.4855 C   0  0  0  0  0  0  0  0  0  0  0  0
  -88.1697   32.6679   -0.5775 C   0  0  0  0  0  0  0  0  0  0  0  0
  -89.4612   32.2965   -0.8574 C   0  0  0  0  0  0  0  0  0  0  0  0
  -89.7990   31.8634   -2.1562 C   0  0  0  0  0  0  0  0  0  0  0  0
  -90.9880   31.4829   -2.5541 N   0  0  0  0  0  0  0  0  0  0  0  0
  -91.1697   31.0996   -3.8011 C   0  0  0  0  0  0  0  0  0  0  0  0
  -89.6054   31.2738   -4.4679 S   0  0  0  0  0  0  0  0  0  0  0  0
  -88.7904   31.8406   -3.0793 C   0  0  0  0  0  0  0  0  0  0  0  0
  -87.4790   32.2235   -2.7752 C   0  0  0  0  0  0  0  0  0  0  0  0
  1  2  2  0  0  0
  2  3  1  0  0  0
  3  4  1  0  0  0
  4  5  2  0  0  0
  4  6  1  0  0  0
  6  7  1  0  0  0
  7  8  2  0  0  0
  8 10  1  0  0  0
 10 11  2  0  0  0
 11 12  1  0  0  0
 12 13  2  0  0  0
 13 14  1  0  0  0
 14 15  2  0  0  0
 15 16  1  0  0  0
 16 17  1  0  0  0
 17 18  2  0  0  0
  7  2  1  0  0  0
 18 10  1  0  0  0
 17 13  1  0  0  0
  3  9  1  0  0  0
M  END
> <minimizedAffinity>
-6.63163

> <CNNscore>
0.8217446804

> <CNNaffinity>
5.7899312973

> <CNN_VS>
4.7578454018

> <CNNaffinity_variance>
0.0865757242

$$$$
[H]/C(=C1/SC(=S)N([H])C1=O)c1c([H])c([H])c2nc([H])sc2c1[H]


 18 20  0  0  0  0  0  0  0  0999 V2000
  -83.2300   33.5728   -0.4528 O   0  0  0  0  0  0  0  0  0  0  0  0
  -83.6364   32.4603    0.0486 C   0  0  0  0  0  0  0  0  0  0  0  0
  -82.8548   31.6079    0.8094 N   0  0  0  0  0  0  0  0  0  0  0  0
  -83.4632   30.4359    1.2761 C   0  0  0  0  0  0  0  0  0  0  0  0
  -82.7913   29.1822    2.0220 S   0  0  0  0  0  0  0  0  0  0  0  0
  -85.1879   30.5869    0.8797 S   0  0  0  0  0  0  0  0  0  0  0  0
  -85.0092   32.0428   -0.1836 C   0  0  0  0  0  0  0  0  0  0  0  0
  -85.9337   32.5680   -0.9522 C   0  0  0  0  0  0  0  0  0  0  0  0
  -81.8331   31.8163    1.0409 H   0  0  0  0  0  0  0  0  0  0  0  0
  -87.2695   32.0206   -1.0730 C   0  0  0  0  0  0  0  0  0  0  0  0
  -88.4308   32.6450   -0.6875 C   0  0  0  0  0  0  0  0  0  0  0  0
  -89.6874   32.1097   -0.8247 C   0  0  0  0  0  0  0  0  0  0  0  0
  -89.8444   30.8303   -1.3965 C   0  0  0  0  0  0  0  0  0  0  0  0
  -90.9818   30.2071   -1.5841 N   0  0  0  0  0  0  0  0  0  0  0  0
  -90.9895   29.0091   -2.1313 C   0  0  0  0  0  0  0  0  0  0  0  0
  -89.3267   28.7222   -2.4048 S   0  0  0  0  0  0  0  0  0  0  0  0
  -88.7033   30.1869   -1.7884 C   0  0  0  0  0  0  0  0  0  0  0  0
  -87.4301   30.7490   -1.6405 C   0  0  0  0  0  0  0  0  0  0  0  0
  1  2  2  0  0  0
  2  3  1  0  0  0
  3  4  1  0  0  0
  4  5  2  0  0  0
  4  6  1  0  0  0
  6  7  1  0  0  0
  7  8  2  0  0  0
  8 10  1  0  0  0
 10 11  2  0  0  0
 11 12  1  0  0  0
 12 13  2  0  0  0
 13 14  1  0  0  0
 14 15  2  0  0  0
 15 16  1  0  0  0
 16 17  1  0  0  0
 17 18  2  0  0  0
  7  2  1  0  0  0
 18 10  1  0  0  0
 17 13  1  0  0  0
  3  9  1  0  0  0
M  END
> <minimizedAffinity>
-6.54522

> <CNNscore>
0.7581534386

> <CNNaffinity>
5.7532382011

> <CNN_VS>
4.3618373871

> <CNNaffinity_variance>
0.0554173663

$$$$
[H]/C(=C1/SC(=S)N([H])C1=O)c1c([H])c([H])c2nc([H])sc2c1[H]


 18 20  0  0  0  0  0  0  0  0999 V2000
  -84.2115   28.2400    2.9990 O   0  0  0  0  0  0  0  0  0  0  0  0
  -85.1469   28.1217    2.1242 C   0  0  0  0  0  0  0  0  0  0  0  0
  -85.8923   26.9733    1.9195 N   0  0  0  0  0  0  0  0  0  0  0  0
  -86.8735   27.0230    0.9214 C   0  0  0  0  0  0  0  0  0  0  0  0
  -87.7696   25.8278    0.3314 S   0  0  0  0  0  0  0  0  0  0  0  0
  -86.9563   28.7185    0.3987 S   0  0  0  0  0  0  0  0  0  0  0  0
  -85.4662   29.2583    1.2762 C   0  0  0  0  0  0  0  0  0  0  0  0
  -84.8630   30.4169    1.1534 C   0  0  0  0  0  0  0  0  0  0  0  0
  -85.7414   26.0804    2.4860 H   0  0  0  0  0  0  0  0  0  0  0  0
  -85.3150   31.4543    0.2490 C   0  0  0  0  0  0  0  0  0  0  0  0
  -84.5232   32.4174   -0.3278 C   0  0  0  0  0  0  0  0  0  0  0  0
  -84.9740   33.3830   -1.1931 C   0  0  0  0  0  0  0  0  0  0  0  0
  -86.3395   33.4275   -1.5422 C   0  0  0  0  0  0  0  0  0  0  0  0
  -86.8973   34.2928   -2.3529 N   0  0  0  0  0  0  0  0  0  0  0  0
  -88.1900   34.2238   -2.5955 C   0  0  0  0  0  0  0  0  0  0  0  0
  -88.6680   32.8835   -1.6482 S   0  0  0  0  0  0  0  0  0  0  0  0
  -87.1497   32.4797   -0.9809 C   0  0  0  0  0  0  0  0  0  0  0  0
  -86.6716   31.5024   -0.1004 C   0  0  0  0  0  0  0  0  0  0  0  0
  1  2  2  0  0  0
  2  3  1  0  0  0
  3  4  1  0  0  0
  4  5  2  0  0  0
  4  6  1  0  0  0
  6  7  1  0  0  0
  7  8  2  0  0  0
  8 10  1  0  0  0
 10 11  2  0  0  0
 11 12  1  0  0  0
 12 13  2  0  0  0
 13 14  1  0  0  0
 14 15  2  0  0  0
 15 16  1  0  0  0
 16 17  1  0  0  0
 17 18  2  0  0  0
  7  2  1  0  0  0
 18 10  1  0  0  0
 17 13  1  0  0  0
  3  9  1  0  0  0
M  END
> <minimizedAffinity>
-6.91759

> <CNNscore>
0.5772460699

> <CNNaffinity>
5.8261818886

> <CNN_VS>
3.3631405830

> <CNNaffinity_variance>
0.2096592933

$$$$
[H]/C(=C1/SC(=S)N([H])C1=O)c1c([H])c([H])c2nc([H])sc2c1[H]


 18 20  0  0  0  0  0  0  0  0999 V2000
  -83.7045   33.7226   -0.8093 O   0  0  0  0  0  0  0  0  0  0  0  0
  -84.9097   33.3490   -1.0586 C   0  0  0  0  0  0  0  0  0  0  0  0
  -85.7994   34.0444   -1.8594 N   0  0  0  0  0  0  0  0  0  0  0  0
  -87.0748   33.4888   -2.0220 C   0  0  0  0  0  0  0  0  0  0  0  0
  -88.3666   34.1266   -2.7318 S   0  0  0  0  0  0  0  0  0  0  0  0
  -87.0091   31.8809   -1.2703 S   0  0  0  0  0  0  0  0  0  0  0  0
  -85.3997   32.1128   -0.4715 C   0  0  0  0  0  0  0  0  0  0  0  0
  -84.8430   31.3176    0.4111 C   0  0  0  0  0  0  0  0  0  0  0  0
  -85.5444   34.9636   -2.3397 H   0  0  0  0  0  0  0  0  0  0  0  0
  -85.4746   30.1087    0.8991 C   0  0  0  0  0  0  0  0  0  0  0  0
  -85.4717   29.6707    2.2011 C   0  0  0  0  0  0  0  0  0  0  0  0
  -86.0895   28.5266    2.6410 C   0  0  0  0  0  0  0  0  0  0  0  0
  -86.7882   27.7124    1.7260 C   0  0  0  0  0  0  0  0  0  0  0  0
  -87.4184   26.6000    2.0132 N   0  0  0  0  0  0  0  0  0  0  0  0
  -88.0344   25.9315    1.0601 C   0  0  0  0  0  0  0  0  0  0  0  0
  -87.7267   26.8945   -0.3183 S   0  0  0  0  0  0  0  0  0  0  0  0
  -86.8058   28.1260    0.4227 C   0  0  0  0  0  0  0  0  0  0  0  0
  -86.1699   29.2962   -0.0073 C   0  0  0  0  0  0  0  0  0  0  0  0
  1  2  2  0  0  0
  2  3  1  0  0  0
  3  4  1  0  0  0
  4  5  2  0  0  0
  4  6  1  0  0  0
  6  7  1  0  0  0
  7  8  2  0  0  0
  8 10  1  0  0  0
 10 11  2  0  0  0
 11 12  1  0  0  0
 12 13  2  0  0  0
 13 14  1  0  0  0
 14 15  2  0  0  0
 15 16  1  0  0  0
 16 17  1  0  0  0
 17 18  2  0  0  0
  7  2  1  0  0  0
 18 10  1  0  0  0
 17 13  1  0  0  0
  3  9  1  0  0  0
M  END
> <minimizedAffinity>
-6.60152

> <CNNscore>
0.5084860325

> <CNNaffinity>
5.7305502892

> <CNN_VS>
2.9139046669

> <CNNaffinity_variance>
0.2285115719

$$$$
[H]/C(=C1/SC(=S)N([H])C1=O)c1c([H])c([H])c2nc([H])sc2c1[H]


 18 20  0  0  0  0  0  0  0  0999 V2000
  -88.3711   35.2179   -2.8401 O   0  0  0  0  0  0  0  0  0  0  0  0
  -88.5174   33.9701   -2.5651 C   0  0  0  0  0  0  0  0  0  0  0  0
  -89.6450   33.2251   -2.8650 N   0  0  0  0  0  0  0  0  0  0  0  0
  -89.6317   31.8753   -2.4915 C   0  0  0  0  0  0  0  0  0  0  0  0
  -90.8298   30.8067   -2.5391 S   0  0  0  0  0  0  0  0  0  0  0  0
  -87.9808   31.5377   -1.9300 S   0  0  0  0  0  0  0  0  0  0  0  0
  -87.4386   33.2659   -1.8920 C   0  0  0  0  0  0  0  0  0  0  0  0
  -86.3206   33.7235   -1.3802 C   0  0  0  0  0  0  0  0  0  0  0  0
  -90.4961   33.6418   -3.3578 H   0  0  0  0  0  0  0  0  0  0  0  0
  -85.3391   32.8764   -0.7338 C   0  0  0  0  0  0  0  0  0  0  0  0
  -83.9755   32.9957   -0.8489 C   0  0  0  0  0  0  0  0  0  0  0  0
  -83.0651   32.1873   -0.2149 C   0  0  0  0  0  0  0  0  0  0  0  0
  -83.5170   31.1474    0.6233 C   0  0  0  0  0  0  0  0  0  0  0  0
  -82.7577   30.3082    1.2839 N   0  0  0  0  0  0  0  0  0  0  0  0
  -83.3096   29.3780    2.0355 C   0  0  0  0  0  0  0  0  0  0  0  0
  -84.9787   29.6770    1.8194 S   0  0  0  0  0  0  0  0  0  0  0  0
  -84.8709   31.0067    0.7545 C   0  0  0  0  0  0  0  0  0  0  0  0
  -85.7841   31.8412    0.1000 C   0  0  0  0  0  0  0  0  0  0  0  0
  1  2  2  0  0  0
  2  3  1  0  0  0
  3  4  1  0  0  0
  4  5  2  0  0  0
  4  6  1  0  0  0
  6  7  1  0  0  0
  7  8  2  0  0  0
  8 10  1  0  0  0
 10 11  2  0  0  0
 11 12  1  0  0  0
 12 13  2  0  0  0
 13 14  1  0  0  0
 14 15  2  0  0  0
 15 16  1  0  0  0
 16 17  1  0  0  0
 17 18  2  0  0  0
  7  2  1  0  0  0
 18 10  1  0  0  0
 17 13  1  0  0  0
  3  9  1  0  0  0
M  END
> <minimizedAffinity>
-7.30246

> <CNNscore>
0.4968402684

> <CNNaffinity>
5.4892640114

> <CNN_VS>
2.7272872925

> <CNNaffinity_variance>
0.1165631562

$$$$
[H]/C(=C1/SC(=S)N([H])C1=O)c1c([H])c([H])c2nc([H])sc2c1[H]


 18 20  0  0  0  0  0  0  0  0999 V2000
  -87.9121   25.8289    3.0143 O   0  0  0  0  0  0  0  0  0  0  0  0
  -87.9025   26.1524    1.7695 C   0  0  0  0  0  0  0  0  0  0  0  0
  -88.6359   25.5130    0.7846 N   0  0  0  0  0  0  0  0  0  0  0  0
  -88.5042   26.0003   -0.5218 C   0  0  0  0  0  0  0  0  0  0  0  0
  -89.0739   25.3793   -1.8891 S   0  0  0  0  0  0  0  0  0  0  0  0
  -87.5523   27.4944   -0.3947 S   0  0  0  0  0  0  0  0  0  0  0  0
  -87.0723   27.2643    1.3369 C   0  0  0  0  0  0  0  0  0  0  0  0
  -86.1897   27.9695    2.0040 C   0  0  0  0  0  0  0  0  0  0  0  0
  -89.2779   24.6848    0.9911 H   0  0  0  0  0  0  0  0  0  0  0  0
  -85.4366   29.0585    1.4161 C   0  0  0  0  0  0  0  0  0  0  0  0
  -84.0731   29.2148    1.4742 C   0  0  0  0  0  0  0  0  0  0  0  0
  -83.3809   30.2501    0.8969 C   0  0  0  0  0  0  0  0  0  0  0  0
  -84.0786   31.2470    0.1843 C   0  0  0  0  0  0  0  0  0  0  0  0
  -83.5418   32.2834   -0.4114 N   0  0  0  0  0  0  0  0  0  0  0  0
  -84.3102   33.1447   -1.0459 C   0  0  0  0  0  0  0  0  0  0  0  0
  -85.8699   32.4866   -0.8076 S   0  0  0  0  0  0  0  0  0  0  0  0
  -85.4377   31.1150    0.1120 C   0  0  0  0  0  0  0  0  0  0  0  0
  -86.1263   30.0518    0.7071 C   0  0  0  0  0  0  0  0  0  0  0  0
  1  2  2  0  0  0
  2  3  1  0  0  0
  3  4  1  0  0  0
  4  5  2  0  0  0
  4  6  1  0  0  0
  6  7  1  0  0  0
  7  8  2  0  0  0
  8 10  1  0  0  0
 10 11  2  0  0  0
 11 12  1  0  0  0
 12 13  2  0  0  0
 13 14  1  0  0  0
 14 15  2  0  0  0
 15 16  1  0  0  0
 16 17  1  0  0  0
 17 18  2  0  0  0
  7  2  1  0  0  0
 18 10  1  0  0  0
 17 13  1  0  0  0
  3  9  1  0  0  0
M  END
> <minimizedAffinity>
-6.10800

> <CNNscore>
0.4242179394

> <CNNaffinity>
5.6116108894

> <CNN_VS>
2.3805460930

> <CNNaffinity_variance>
0.1791812479

$$$$
[H]/C(=C1/SC(=S)N([H])C1=O)c1c([H])c([H])c2nc([H])sc2c1[H]


 18 20  0  0  0  0  0  0  0  0999 V2000
  -82.8687   31.8036    1.2859 O   0  0  0  0  0  0  0  0  0  0  0  0
  -83.8865   31.0300    1.1451 C   0  0  0  0  0  0  0  0  0  0  0  0
  -83.9920   29.7614    1.6892 N   0  0  0  0  0  0  0  0  0  0  0  0
  -85.1758   29.0578    1.4337 C   0  0  0  0  0  0  0  0  0  0  0  0
  -85.5282   27.5271    1.7689 S   0  0  0  0  0  0  0  0  0  0  0  0
  -86.2688   30.2090    0.6371 S   0  0  0  0  0  0  0  0  0  0  0  0
  -85.0214   31.4941    0.3644 C   0  0  0  0  0  0  0  0  0  0  0  0
  -85.1608   32.5776   -0.3621 C   0  0  0  0  0  0  0  0  0  0  0  0
  -83.2178   29.3218    2.2792 H   0  0  0  0  0  0  0  0  0  0  0  0
  -86.3735   32.8948   -1.0884 C   0  0  0  0  0  0  0  0  0  0  0  0
  -87.6549   32.6601   -0.6525 C   0  0  0  0  0  0  0  0  0  0  0  0
  -88.7895   32.9822   -1.3548 C   0  0  0  0  0  0  0  0  0  0  0  0
  -88.6790   33.5988   -2.6182 C   0  0  0  0  0  0  0  0  0  0  0  0
  -89.6771   33.9563   -3.3883 N   0  0  0  0  0  0  0  0  0  0  0  0
  -89.4356   34.5260   -4.5510 C   0  0  0  0  0  0  0  0  0  0  0  0
  -87.7271   34.5727   -4.5865 S   0  0  0  0  0  0  0  0  0  0  0  0
  -87.4137   33.8431   -3.0755 C   0  0  0  0  0  0  0  0  0  0  0  0
  -86.2682   33.5075   -2.3447 C   0  0  0  0  0  0  0  0  0  0  0  0
  1  2  2  0  0  0
  2  3  1  0  0  0
  3  4  1  0  0  0
  4  5  2  0  0  0
  4  6  1  0  0  0
  6  7  1  0  0  0
  7  8  2  0  0  0
  8 10  1  0  0  0
 10 11  2  0  0  0
 11 12  1  0  0  0
 12 13  2  0  0  0
 13 14  1  0  0  0
 14 15  2  0  0  0
 15 16  1  0  0  0
 16 17  1  0  0  0
 17 18  2  0  0  0
  7  2  1  0  0  0
 18 10  1  0  0  0
 17 13  1  0  0  0
  3  9  1  0  0  0
M  END
> <minimizedAffinity>
-6.57501

> <CNNscore>
0.4120212793

> <CNNaffinity>
5.3941597939

> <CNN_VS>
2.2225086689

> <CNNaffinity_variance>
0.0386581719

$$$$
[H]/C(=C1/SC(=S)N([H])C1=O)c1c([H])c([H])c2nc([H])sc2c1[H]


 18 20  0  0  0  0  0  0  0  0999 V2000
  -88.6648   31.3079   -0.4326 O   0  0  0  0  0  0  0  0  0  0  0  0
  -87.5303   31.8757   -0.6443 C   0  0  0  0  0  0  0  0  0  0  0  0
  -86.3563   31.5591    0.0175 N   0  0  0  0  0  0  0  0  0  0  0  0
  -85.2110   32.2808   -0.3416 C   0  0  0  0  0  0  0  0  0  0  0  0
  -83.7607   32.2744    0.3485 S   0  0  0  0  0  0  0  0  0  0  0  0
  -85.6655   33.2489   -1.7597 S   0  0  0  0  0  0  0  0  0  0  0  0
  -87.4446   32.9276   -1.6438 C   0  0  0  0  0  0  0  0  0  0  0  0
  -88.3925   33.5194   -2.3312 C   0  0  0  0  0  0  0  0  0  0  0  0
  -86.3056   30.8029    0.7701 H   0  0  0  0  0  0  0  0  0  0  0  0
  -88.1345   34.5647   -3.3004 C   0  0  0  0  0  0  0  0  0  0  0  0
  -87.9681   34.3832   -4.6518 C   0  0  0  0  0  0  0  0  0  0  0  0
  -87.7372   35.3930   -5.5524 C   0  0  0  0  0  0  0  0  0  0  0  0
  -87.6571   36.7271   -5.1026 C   0  0  0  0  0  0  0  0  0  0  0  0
  -87.4423   37.7793   -5.8534 N   0  0  0  0  0  0  0  0  0  0  0  0
  -87.3902   38.9756   -5.3048 C   0  0  0  0  0  0  0  0  0  0  0  0
  -87.6535   38.6305   -3.6514 S   0  0  0  0  0  0  0  0  0  0  0  0
  -87.8189   36.9351   -3.7608 C   0  0  0  0  0  0  0  0  0  0  0  0
  -88.0538   35.8922   -2.8574 C   0  0  0  0  0  0  0  0  0  0  0  0
  1  2  2  0  0  0
  2  3  1  0  0  0
  3  4  1  0  0  0
  4  5  2  0  0  0
  4  6  1  0  0  0
  6  7  1  0  0  0
  7  8  2  0  0  0
  8 10  1  0  0  0
 10 11  2  0  0  0
 11 12  1  0  0  0
 12 13  2  0  0  0
 13 14  1  0  0  0
 14 15  2  0  0  0
 15 16  1  0  0  0
 16 17  1  0  0  0
 17 18  2  0  0  0
  7  2  1  0  0  0
 18 10  1  0  0  0
 17 13  1  0  0  0
  3  9  1  0  0  0
M  END
> <minimizedAffinity>
-5.04363

> <CNNscore>
0.3820599020

> <CNNaffinity>
4.9457416534

> <CNN_VS>
1.8895695210

> <CNNaffinity_variance>
0.1114745140

$$$$
[H]/C(=C1/SC(=S)N([H])C1=O)c1c([H])c([H])c2nc([H])sc2c1[H]


 18 20  0  0  0  0  0  0  0  0999 V2000
  -83.6303   33.7519   -0.5575 O   0  0  0  0  0  0  0  0  0  0  0  0
  -84.5453   32.8607   -0.4073 C   0  0  0  0  0  0  0  0  0  0  0  0
  -84.5236   31.8647    0.5540 N   0  0  0  0  0  0  0  0  0  0  0  0
  -85.6071   30.9774    0.5731 C   0  0  0  0  0  0  0  0  0  0  0  0
  -85.7920   29.6343    1.4341 S   0  0  0  0  0  0  0  0  0  0  0  0
  -86.7952   31.6288   -0.5752 S   0  0  0  0  0  0  0  0  0  0  0  0
  -85.6958   32.8757   -1.2955 C   0  0  0  0  0  0  0  0  0  0  0  0
  -85.9323   33.6055   -2.3598 C   0  0  0  0  0  0  0  0  0  0  0  0
  -83.7266   31.7609    1.2574 H   0  0  0  0  0  0  0  0  0  0  0  0
  -87.1451   33.4940   -3.1443 C   0  0  0  0  0  0  0  0  0  0  0  0
  -87.5115   32.4116   -3.9066 C   0  0  0  0  0  0  0  0  0  0  0  0
  -88.6738   32.3251   -4.6315 C   0  0  0  0  0  0  0  0  0  0  0  0
  -89.5858   33.4006   -4.6227 C   0  0  0  0  0  0  0  0  0  0  0  0
  -90.7256   33.4466   -5.2675 N   0  0  0  0  0  0  0  0  0  0  0  0
  -91.4881   34.5165   -5.1741 C   0  0  0  0  0  0  0  0  0  0  0  0
  -90.5790   35.5226   -4.1331 S   0  0  0  0  0  0  0  0  0  0  0  0
  -89.2443   34.4911   -3.8717 C   0  0  0  0  0  0  0  0  0  0  0  0
  -88.0542   34.5610   -3.1386 C   0  0  0  0  0  0  0  0  0  0  0  0
  1  2  2  0  0  0
  2  3  1  0  0  0
  3  4  1  0  0  0
  4  5  2  0  0  0
  4  6  1  0  0  0
  6  7  1  0  0  0
  7  8  2  0  0  0
  8 10  1  0  0  0
 10 11  2  0  0  0
 11 12  1  0  0  0
 12 13  2  0  0  0
 13 14  1  0  0  0
 14 15  2  0  0  0
 15 16  1  0  0  0
 16 17  1  0  0  0
 17 18  2  0  0  0
  7  2  1  0  0  0
 18 10  1  0  0  0
 17 13  1  0  0  0
  3  9  1  0  0  0
M  END
> <minimizedAffinity>
-5.73283

> <CNNscore>
0.3356347084

> <CNNaffinity>
5.0811605453

> <CNN_VS>
1.7054138184

> <CNNaffinity_variance>
0.0834819824

$$$$
[H]OC(=O)c1c([H])c([H])c2c(nc(N([H])c3c([H])c([H])c([H])c(Cl)c3[H])c3c([H])c([H])nc([H])c32)c1[H]


 27 30  0  0  0  0  0  0  0  0999 V2000
  -86.4702   33.0369   -1.5494 C   0  0  0  0  0  0  0  0  0  0  0  0
  -85.1722   33.2098   -1.1518 C   0  0  0  0  0  0  0  0  0  0  0  0
  -84.5271   32.2805   -0.3456 C   0  0  0  0  0  0  0  0  0  0  0  0
  -85.1915   31.1551    0.0727 C   0  0  0  0  0  0  0  0  0  0  0  0
  -86.5161   30.9685   -0.3269 C   0  0  0  0  0  0  0  0  0  0  0  0
  -87.1234   31.9103   -1.1261 C   0  0  0  0  0  0  0  0  0  0  0  0
  -87.1564   29.8727    0.0830 N   0  0  0  0  0  0  0  0  0  0  0  0
  -86.6471   28.9114    0.8562 C   0  0  0  0  0  0  0  0  0  0  0  0
  -85.3336   29.0666    1.2700 C   0  0  0  0  0  0  0  0  0  0  0  0
  -84.7228   28.1307    2.0646 C   0  0  0  0  0  0  0  0  0  0  0  0
  -83.4022   28.3423    2.4456 C   0  0  0  0  0  0  0  0  0  0  0  0
  -82.7324   29.4234    2.0563 N   0  0  0  0  0  0  0  0  0  0  0  0
  -83.2973   30.3761    1.2691 C   0  0  0  0  0  0  0  0  0  0  0  0
  -84.5968   30.1885    0.8818 C   0  0  0  0  0  0  0  0  0  0  0  0
  -86.5104   34.7551   -3.2870 O   0  0  0  0  0  0  0  0  0  0  0  0
  -87.1795   33.9827   -2.3904 C   0  0  0  0  0  0  0  0  0  0  0  0
  -88.4216   34.0745   -2.2747 O   0  0  0  0  0  0  0  0  0  0  0  0
  -86.6834   35.7214   -3.5108 H   0  0  0  0  0  0  0  0  0  0  0  0
  -87.3950   27.7966    1.2730 N   0  0  0  0  0  0  0  0  0  0  0  0
  -87.0263   26.8141    1.0869 H   0  0  0  0  0  0  0  0  0  0  0  0
  -88.6469   27.8098    1.9447 C   0  0  0  0  0  0  0  0  0  0  0  0
  -89.8228   28.2193    1.3934 C   0  0  0  0  0  0  0  0  0  0  0  0
  -91.0128   28.2308    2.1417 C   0  0  0  0  0  0  0  0  0  0  0  0
  -91.0515   27.8324    3.4550 C   0  0  0  0  0  0  0  0  0  0  0  0
  -89.8718   27.4151    4.0256 C   0  0  0  0  0  0  0  0  0  0  0  0
  -89.9074   26.9036    5.7003 Cl  0  0  0  0  0  0  0  0  0  0  0  0
  -88.7171   27.4071    3.2911 C   0  0  0  0  0  0  0  0  0  0  0  0
 15 16  1  0  0  0
 16 17  2  0  0  0
 16  1  1  0  0  0
  1  2  2  0  0  0
  2  3  1  0  0  0
  3  4  2  0  0  0
  4  5  1  0  0  0
  5  6  2  0  0  0
  5  7  1  0  0  0
  7  8  2  0  0  0
  8 19  1  0  0  0
 19 21  1  0  0  0
 21 22  2  0  0  0
 22 23  1  0  0  0
 23 24  2  0  0  0
 24 25  1  0  0  0
 25 26  1  0  0  0
 25 27  2  0  0  0
  8  9  1  0  0  0
  9 10  2  0  0  0
 10 11  1  0  0  0
 11 12  2  0  0  0
 12 13  1  0  0  0
 13 14  2  0  0  0
  6  1  1  0  0  0
 27 21  1  0  0  0
 14  9  1  0  0  0
 14  4  1  0  0  0
 15 18  1  0  0  0
 19 20  1  0  0  0
M  END
> <minimizedAffinity>
-9.63961

> <CNNscore>
0.5852304101

> <CNNaffinity>
6.6203546524

> <CNN_VS>
3.8744328022

> <CNNaffinity_variance>
0.0451563820

$$$$
[H]OC(=O)c1c([H])c([H])c2c(nc(N([H])c3c([H])c([H])c([H])c(Cl)c3[H])c3c([H])c([H])nc([H])c32)c1[H]


 27 30  0  0  0  0  0  0  0  0999 V2000
  -83.6562   28.8021    1.8958 C   0  0  0  0  0  0  0  0  0  0  0  0
  -82.9657   29.9528    1.6281 C   0  0  0  0  0  0  0  0  0  0  0  0
  -83.5552   31.0173    0.9582 C   0  0  0  0  0  0  0  0  0  0  0  0
  -84.8615   30.9316    0.5468 C   0  0  0  0  0  0  0  0  0  0  0  0
  -85.5756   29.7621    0.8146 C   0  0  0  0  0  0  0  0  0  0  0  0
  -84.9589   28.7274    1.4807 C   0  0  0  0  0  0  0  0  0  0  0  0
  -86.8448   29.6849    0.4122 N   0  0  0  0  0  0  0  0  0  0  0  0
  -87.5195   30.6357   -0.2373 C   0  0  0  0  0  0  0  0  0  0  0  0
  -86.8388   31.8098   -0.5183 C   0  0  0  0  0  0  0  0  0  0  0  0
  -87.4486   32.8447   -1.1799 C   0  0  0  0  0  0  0  0  0  0  0  0
  -86.7131   33.9978   -1.4314 C   0  0  0  0  0  0  0  0  0  0  0  0
  -85.4454   34.1104   -1.0452 N   0  0  0  0  0  0  0  0  0  0  0  0
  -84.8014   33.1110   -0.3872 C   0  0  0  0  0  0  0  0  0  0  0  0
  -85.5061   31.9662   -0.1288 C   0  0  0  0  0  0  0  0  0  0  0  0
  -81.7342   27.4602    2.5877 O   0  0  0  0  0  0  0  0  0  0  0  0
  -83.0776   27.6684    2.5923 C   0  0  0  0  0  0  0  0  0  0  0  0
  -83.8402   26.8839    3.1988 O   0  0  0  0  0  0  0  0  0  0  0  0
  -81.2522   26.5794    2.5124 H   0  0  0  0  0  0  0  0  0  0  0  0
  -88.8508   30.4700   -0.6568 N   0  0  0  0  0  0  0  0  0  0  0  0
  -89.5932   30.1730    0.0478 H   0  0  0  0  0  0  0  0  0  0  0  0
  -89.3628   30.6551   -1.9692 C   0  0  0  0  0  0  0  0  0  0  0  0
  -88.6339   30.5392   -3.1136 C   0  0  0  0  0  0  0  0  0  0  0  0
  -89.2137   30.7720   -4.3729 C   0  0  0  0  0  0  0  0  0  0  0  0
  -90.5332   31.1242   -4.5135 C   0  0  0  0  0  0  0  0  0  0  0  0
  -91.2827   31.2443   -3.3666 C   0  0  0  0  0  0  0  0  0  0  0  0
  -92.9677   31.6925   -3.5321 Cl  0  0  0  0  0  0  0  0  0  0  0  0
  -90.7113   31.0165   -2.1442 C   0  0  0  0  0  0  0  0  0  0  0  0
 15 16  1  0  0  0
 16 17  2  0  0  0
 16  1  1  0  0  0
  1  2  2  0  0  0
  2  3  1  0  0  0
  3  4  2  0  0  0
  4  5  1  0  0  0
  5  6  2  0  0  0
  5  7  1  0  0  0
  7  8  2  0  0  0
  8 19  1  0  0  0
 19 21  1  0  0  0
 21 22  2  0  0  0
 22 23  1  0  0  0
 23 24  2  0  0  0
 24 25  1  0  0  0
 25 26  1  0  0  0
 25 27  2  0  0  0
  8  9  1  0  0  0
  9 10  2  0  0  0
 10 11  1  0  0  0
 11 12  2  0  0  0
 12 13  1  0  0  0
 13 14  2  0  0  0
  6  1  1  0  0  0
 27 21  1  0  0  0
 14  9  1  0  0  0
 14  4  1  0  0  0
 15 18  1  0  0  0
 19 20  1  0  0  0
M  END
> <minimizedAffinity>
-8.60419

> <CNNscore>
0.3653039932

> <CNNaffinity>
6.3742570877

> <CNN_VS>
2.3285415173

> <CNNaffinity_variance>
0.1773820221

$$$$
[H]OC(=O)c1c([H])c([H])c2c(nc(N([H])c3c([H])c([H])c([H])c(Cl)c3[H])c3c([H])c([H])nc([H])c32)c1[H]


 27 30  0  0  0  0  0  0  0  0999 V2000
  -83.5719   28.7783    1.9246 C   0  0  0  0  0  0  0  0  0  0  0  0
  -82.9750   29.9731    1.6265 C   0  0  0  0  0  0  0  0  0  0  0  0
  -83.6558   30.9802    0.9544 C   0  0  0  0  0  0  0  0  0  0  0  0
  -84.9599   30.7909    0.5717 C   0  0  0  0  0  0  0  0  0  0  0  0
  -85.5789   29.5758    0.8706 C   0  0  0  0  0  0  0  0  0  0  0  0
  -84.8734   28.6003    1.5379 C   0  0  0  0  0  0  0  0  0  0  0  0
  -86.8465   29.3979    0.4959 N   0  0  0  0  0  0  0  0  0  0  0  0
  -87.6032   30.2857   -0.1524 C   0  0  0  0  0  0  0  0  0  0  0  0
  -87.0181   31.5028   -0.4639 C   0  0  0  0  0  0  0  0  0  0  0  0
  -87.7167   32.4790   -1.1269 C   0  0  0  0  0  0  0  0  0  0  0  0
  -87.0748   33.6797   -1.4096 C   0  0  0  0  0  0  0  0  0  0  0  0
  -85.8117   33.8925   -1.0517 N   0  0  0  0  0  0  0  0  0  0  0  0
  -85.0817   32.9542   -0.3935 C   0  0  0  0  0  0  0  0  0  0  0  0
  -85.6934   31.7642   -0.1046 C   0  0  0  0  0  0  0  0  0  0  0  0
  -83.5806   26.8797    3.4635 O   0  0  0  0  0  0  0  0  0  0  0  0
  -82.8964   27.7018    2.6245 C   0  0  0  0  0  0  0  0  0  0  0  0
  -81.6691   27.5438    2.4409 O   0  0  0  0  0  0  0  0  0  0  0  0
  -83.2694   26.5120    4.3477 H   0  0  0  0  0  0  0  0  0  0  0  0
  -88.9265   30.0147   -0.5416 N   0  0  0  0  0  0  0  0  0  0  0  0
  -89.4537   30.7175   -1.1449 H   0  0  0  0  0  0  0  0  0  0  0  0
  -89.6945   28.8645   -0.2164 C   0  0  0  0  0  0  0  0  0  0  0  0
  -90.4197   28.7089    0.9257 C   0  0  0  0  0  0  0  0  0  0  0  0
  -91.1265   27.5214    1.1834 C   0  0  0  0  0  0  0  0  0  0  0  0
  -91.1236   26.4666    0.3046 C   0  0  0  0  0  0  0  0  0  0  0  0
  -90.3964   26.6090   -0.8540 C   0  0  0  0  0  0  0  0  0  0  0  0
  -90.3848   25.2708   -1.9839 Cl  0  0  0  0  0  0  0  0  0  0  0  0
  -89.7104   27.7677   -1.0978 C   0  0  0  0  0  0  0  0  0  0  0  0
 15 16  1  0  0  0
 16 17  2  0  0  0
 16  1  1  0  0  0
  1  2  2  0  0  0
  2  3  1  0  0  0
  3  4  2  0  0  0
  4  5  1  0  0  0
  5  6  2  0  0  0
  5  7  1  0  0  0
  7  8  2  0  0  0
  8 19  1  0  0  0
 19 21  1  0  0  0
 21 22  2  0  0  0
 22 23  1  0  0  0
 23 24  2  0  0  0
 24 25  1  0  0  0
 25 26  1  0  0  0
 25 27  2  0  0  0
  8  9  1  0  0  0
  9 10  2  0  0  0
 10 11  1  0  0  0
 11 12  2  0  0  0
 12 13  1  0  0  0
 13 14  2  0  0  0
  6  1  1  0  0  0
 27 21  1  0  0  0
 14  9  1  0  0  0
 14  4  1  0  0  0
 15 18  1  0  0  0
 19 20  1  0  0  0
M  END
> <minimizedAffinity>
-9.10006

> <CNNscore>
0.3355278075

> <CNNaffinity>
6.3387575150

> <CNN_VS>
2.1268293858

> <CNNaffinity_variance>
0.1636514515

$$$$
[H]OC(=O)c1c([H])c([H])c2c(nc(N([H])c3c([H])c([H])c([H])c(Cl)c3[H])c3c([H])c([H])nc([H])c32)c1[H]


 27 30  0  0  0  0  0  0  0  0999 V2000
  -87.5099   34.9568   -3.8991 C   0  0  0  0  0  0  0  0  0  0  0  0
  -88.0115   34.0363   -4.7786 C   0  0  0  0  0  0  0  0  0  0  0  0
  -88.1165   32.6918   -4.4454 C   0  0  0  0  0  0  0  0  0  0  0  0
  -87.7124   32.2570   -3.2082 C   0  0  0  0  0  0  0  0  0  0  0  0
  -87.1990   33.1875   -2.3029 C   0  0  0  0  0  0  0  0  0  0  0  0
  -87.1096   34.5118   -2.6675 C   0  0  0  0  0  0  0  0  0  0  0  0
  -86.8078   32.7587   -1.1021 N   0  0  0  0  0  0  0  0  0  0  0  0
  -86.8582   31.4983   -0.6663 C   0  0  0  0  0  0  0  0  0  0  0  0
  -87.3633   30.5497   -1.5413 C   0  0  0  0  0  0  0  0  0  0  0  0
  -87.4564   29.2293   -1.1829 C   0  0  0  0  0  0  0  0  0  0  0  0
  -87.9733   28.3254   -2.1046 C   0  0  0  0  0  0  0  0  0  0  0  0
  -88.3730   28.7167   -3.3112 N   0  0  0  0  0  0  0  0  0  0  0  0
  -88.2992   30.0140   -3.7088 C   0  0  0  0  0  0  0  0  0  0  0  0
  -87.7936   30.9216   -2.8176 C   0  0  0  0  0  0  0  0  0  0  0  0
  -86.2196   36.8733   -4.6962 O   0  0  0  0  0  0  0  0  0  0  0  0
  -87.3837   36.3689   -4.2079 C   0  0  0  0  0  0  0  0  0  0  0  0
  -88.3688   37.1155   -4.0159 O   0  0  0  0  0  0  0  0  0  0  0  0
  -85.7892   37.7532   -4.4634 H   0  0  0  0  0  0  0  0  0  0  0  0
  -86.3984   31.1160    0.6059 N   0  0  0  0  0  0  0  0  0  0  0  0
  -87.0770   31.0928    1.4274 H   0  0  0  0  0  0  0  0  0  0  0  0
  -85.0750   30.7380    0.9585 C   0  0  0  0  0  0  0  0  0  0  0  0
  -83.9545   31.4512    0.6579 C   0  0  0  0  0  0  0  0  0  0  0  0
  -82.6774   30.9865    1.0173 C   0  0  0  0  0  0  0  0  0  0  0  0
  -82.4948   29.8008    1.6849 C   0  0  0  0  0  0  0  0  0  0  0  0
  -83.6172   29.0696    1.9963 C   0  0  0  0  0  0  0  0  0  0  0  0
  -83.3982   27.5551    2.8485 Cl  0  0  0  0  0  0  0  0  0  0  0  0
  -84.8571   29.5280    1.6428 C   0  0  0  0  0  0  0  0  0  0  0  0
 15 16  1  0  0  0
 16 17  2  0  0  0
 16  1  1  0  0  0
  1  2  2  0  0  0
  2  3  1  0  0  0
  3  4  2  0  0  0
  4  5  1  0  0  0
  5  6  2  0  0  0
  5  7  1  0  0  0
  7  8  2  0  0  0
  8 19  1  0  0  0
 19 21  1  0  0  0
 21 22  2  0  0  0
 22 23  1  0  0  0
 23 24  2  0  0  0
 24 25  1  0  0  0
 25 26  1  0  0  0
 25 27  2  0  0  0
  8  9  1  0  0  0
  9 10  2  0  0  0
 10 11  1  0  0  0
 11 12  2  0  0  0
 12 13  1  0  0  0
 13 14  2  0  0  0
  6  1  1  0  0  0
 27 21  1  0  0  0
 14  9  1  0  0  0
 14  4  1  0  0  0
 15 18  1  0  0  0
 19 20  1  0  0  0
M  END
> <minimizedAffinity>
-9.64488

> <CNNscore>
0.1978382766

> <CNNaffinity>
5.7605447769

> <CNN_VS>
1.1396563053

> <CNNaffinity_variance>
0.3116567731

$$$$
[H]OC(=O)c1c([H])c([H])c2c(nc(N([H])c3c([H])c([H])c([H])c(Cl)c3[H])c3c([H])c([H])nc([H])c32)c1[H]


 27 30  0  0  0  0  0  0  0  0999 V2000
  -92.3084   30.7937   -3.8626 C   0  0  0  0  0  0  0  0  0  0  0  0
  -92.1205   31.6165   -4.9397 C   0  0  0  0  0  0  0  0  0  0  0  0
  -91.0575   32.5089   -4.9984 C   0  0  0  0  0  0  0  0  0  0  0  0
  -90.1631   32.5814   -3.9601 C   0  0  0  0  0  0  0  0  0  0  0  0
  -90.3452   31.7465   -2.8561 C   0  0  0  0  0  0  0  0  0  0  0  0
  -91.4100   30.8746   -2.8323 C   0  0  0  0  0  0  0  0  0  0  0  0
  -89.4727   31.8218   -1.8502 N   0  0  0  0  0  0  0  0  0  0  0  0
  -88.4160   32.6348   -1.7895 C   0  0  0  0  0  0  0  0  0  0  0  0
  -88.2070   33.4766   -2.8704 C   0  0  0  0  0  0  0  0  0  0  0  0
  -87.1469   34.3460   -2.9005 C   0  0  0  0  0  0  0  0  0  0  0  0
  -86.9899   35.1642   -4.0138 C   0  0  0  0  0  0  0  0  0  0  0  0
  -87.8402   35.1168   -5.0354 N   0  0  0  0  0  0  0  0  0  0  0  0
  -88.9039   34.2713   -5.0485 C   0  0  0  0  0  0  0  0  0  0  0  0
  -89.0782   33.4563   -3.9626 C   0  0  0  0  0  0  0  0  0  0  0  0
  -93.9827   29.5777   -2.5622 O   0  0  0  0  0  0  0  0  0  0  0  0
  -93.4047   29.8487   -3.7624 C   0  0  0  0  0  0  0  0  0  0  0  0
  -93.8093   29.2863   -4.8040 O   0  0  0  0  0  0  0  0  0  0  0  0
  -94.2983   28.6835   -2.2235 H   0  0  0  0  0  0  0  0  0  0  0  0
  -87.5550   32.6789   -0.6793 N   0  0  0  0  0  0  0  0  0  0  0  0
  -87.6072   33.5010   -0.0031 H   0  0  0  0  0  0  0  0  0  0  0  0
  -86.5696   31.7193   -0.3232 C   0  0  0  0  0  0  0  0  0  0  0  0
  -86.7814   30.3762   -0.2474 C   0  0  0  0  0  0  0  0  0  0  0  0
  -85.7561   29.4985    0.1460 C   0  0  0  0  0  0  0  0  0  0  0  0
  -84.4991   29.9454    0.4703 C   0  0  0  0  0  0  0  0  0  0  0  0
  -84.2696   31.2994    0.3976 C   0  0  0  0  0  0  0  0  0  0  0  0
  -82.6699   31.8826    0.8081 Cl  0  0  0  0  0  0  0  0  0  0  0  0
  -85.2726   32.1478    0.0143 C   0  0  0  0  0  0  0  0  0  0  0  0
 15 16  1  0  0  0
 16 17  2  0  0  0
 16  1  1  0  0  0
  1  2  2  0  0  0
  2  3  1  0  0  0
  3  4  2  0  0  0
  4  5  1  0  0  0
  5  6  2  0  0  0
  5  7  1  0  0  0
  7  8  2  0  0  0
  8 19  1  0  0  0
 19 21  1  0  0  0
 21 22  2  0  0  0
 22 23  1  0  0  0
 23 24  2  0  0  0
 24 25  1  0  0  0
 25 26  1  0  0  0
 25 27  2  0  0  0
  8  9  1  0  0  0
  9 10  2  0  0  0
 10 11  1  0  0  0
 11 12  2  0  0  0
 12 13  1  0  0  0
 13 14  2  0  0  0
  6  1  1  0  0  0
 27 21  1  0  0  0
 14  9  1  0  0  0
 14  4  1  0  0  0
 15 18  1  0  0  0
 19 20  1  0  0  0
M  END
> <minimizedAffinity>
-7.29898

> <CNNscore>
0.1634674519

> <CNNaffinity>
5.5179595947

> <CNN_VS>
0.9020068049

> <CNNaffinity_variance>
0.0853310749

$$$$
[H]OC(=O)c1c([H])c([H])c2c(nc(N([H])c3c([H])c([H])c([H])c(Cl)c3[H])c3c([H])c([H])nc([H])c32)c1[H]


 27 30  0  0  0  0  0  0  0  0999 V2000
  -88.8887   24.8788    4.3001 C   0  0  0  0  0  0  0  0  0  0  0  0
  -90.1841   25.2994    4.1685 C   0  0  0  0  0  0  0  0  0  0  0  0
  -90.5403   26.2894    3.2614 C   0  0  0  0  0  0  0  0  0  0  0  0
  -89.5833   26.8718    2.4689 C   0  0  0  0  0  0  0  0  0  0  0  0
  -88.2583   26.4503    2.5948 C   0  0  0  0  0  0  0  0  0  0  0  0
  -87.9420   25.4668    3.5044 C   0  0  0  0  0  0  0  0  0  0  0  0
  -87.3328   27.0203    1.8219 N   0  0  0  0  0  0  0  0  0  0  0  0
  -87.5494   27.9771    0.9171 C   0  0  0  0  0  0  0  0  0  0  0  0
  -88.8549   28.4176    0.7675 C   0  0  0  0  0  0  0  0  0  0  0  0
  -89.1762   29.3957   -0.1384 C   0  0  0  0  0  0  0  0  0  0  0  0
  -90.5043   29.7942   -0.2430 C   0  0  0  0  0  0  0  0  0  0  0  0
  -91.4541   29.2485    0.5115 N   0  0  0  0  0  0  0  0  0  0  0  0
  -91.1816   28.2769    1.4214 C   0  0  0  0  0  0  0  0  0  0  0  0
  -89.8805   27.8689    1.5416 C   0  0  0  0  0  0  0  0  0  0  0  0
  -88.5504   22.5335    4.8986 O   0  0  0  0  0  0  0  0  0  0  0  0
  -88.4755   23.8486    5.2345 C   0  0  0  0  0  0  0  0  0  0  0  0
  -88.0480   24.1942    6.3582 O   0  0  0  0  0  0  0  0  0  0  0  0
  -88.8305   21.7668    5.4882 H   0  0  0  0  0  0  0  0  0  0  0  0
  -86.5154   28.5522    0.1581 N   0  0  0  0  0  0  0  0  0  0  0  0
  -86.6141   28.6222   -0.9008 H   0  0  0  0  0  0  0  0  0  0  0  0
  -85.2891   29.0791    0.6449 C   0  0  0  0  0  0  0  0  0  0  0  0
  -84.5697   28.5541    1.6752 C   0  0  0  0  0  0  0  0  0  0  0  0
  -83.3797   29.1596    2.1152 C   0  0  0  0  0  0  0  0  0  0  0  0
  -82.8847   30.3007    1.5340 C   0  0  0  0  0  0  0  0  0  0  0  0
  -83.5997   30.8422    0.4915 C   0  0  0  0  0  0  0  0  0  0  0  0
  -82.9788   32.2977   -0.2593 Cl  0  0  0  0  0  0  0  0  0  0  0  0
  -84.7575   30.2476    0.0688 C   0  0  0  0  0  0  0  0  0  0  0  0
 15 16  1  0  0  0
 16 17  2  0  0  0
 16  1  1  0  0  0
  1  2  2  0  0  0
  2  3  1  0  0  0
  3  4  2  0  0  0
  4  5  1  0  0  0
  5  6  2  0  0  0
  5  7  1  0  0  0
  7  8  2  0  0  0
  8 19  1  0  0  0
 19 21  1  0  0  0
 21 22  2  0  0  0
 22 23  1  0  0  0
 23 24  2  0  0  0
 24 25  1  0  0  0
 25 26  1  0  0  0
 25 27  2  0  0  0
  8  9  1  0  0  0
  9 10  2  0  0  0
 10 11  1  0  0  0
 11 12  2  0  0  0
 12 13  1  0  0  0
 13 14  2  0  0  0
  6  1  1  0  0  0
 27 21  1  0  0  0
 14  9  1  0  0  0
 14  4  1  0  0  0
 15 18  1  0  0  0
 19 20  1  0  0  0
M  END
> <minimizedAffinity>
-8.46859

> <CNNscore>
0.1564780325

> <CNNaffinity>
5.7335662842

> <CNN_VS>
0.8971771598

> <CNNaffinity_variance>
0.1620378792

$$$$
[H]OC(=O)c1c([H])c([H])c2c(nc(N([H])c3c([H])c([H])c([H])c(Cl)c3[H])c3c([H])c([H])nc([H])c32)c1[H]


 27 30  0  0  0  0  0  0  0  0999 V2000
  -84.6999   29.0575    1.4427 C   0  0  0  0  0  0  0  0  0  0  0  0
  -84.3100   30.3669    1.5195 C   0  0  0  0  0  0  0  0  0  0  0  0
  -84.9061   31.3515    0.7418 C   0  0  0  0  0  0  0  0  0  0  0  0
  -85.9126   31.0223   -0.1309 C   0  0  0  0  0  0  0  0  0  0  0  0
  -86.3184   29.6893   -0.2174 C   0  0  0  0  0  0  0  0  0  0  0  0
  -85.7050   28.7403    0.5686 C   0  0  0  0  0  0  0  0  0  0  0  0
  -87.2970   29.3756   -1.0676 N   0  0  0  0  0  0  0  0  0  0  0  0
  -87.9447   30.2278   -1.8647 C   0  0  0  0  0  0  0  0  0  0  0  0
  -87.5657   31.5594   -1.8025 C   0  0  0  0  0  0  0  0  0  0  0  0
  -88.1744   32.5094   -2.5818 C   0  0  0  0  0  0  0  0  0  0  0  0
  -87.7505   33.8294   -2.4730 C   0  0  0  0  0  0  0  0  0  0  0  0
  -86.7775   34.1791   -1.6365 N   0  0  0  0  0  0  0  0  0  0  0  0
  -86.1467   33.2718   -0.8458 C   0  0  0  0  0  0  0  0  0  0  0  0
  -86.5477   31.9661   -0.9361 C   0  0  0  0  0  0  0  0  0  0  0  0
  -84.7929   26.8600    2.5085 O   0  0  0  0  0  0  0  0  0  0  0  0
  -84.1035   27.9998    2.2369 C   0  0  0  0  0  0  0  0  0  0  0  0
  -82.9398   28.1566    2.6681 O   0  0  0  0  0  0  0  0  0  0  0  0
  -84.8052   26.3442    3.3731 H   0  0  0  0  0  0  0  0  0  0  0  0
  -88.9486   29.8172   -2.7589 N   0  0  0  0  0  0  0  0  0  0  0  0
  -88.7066   29.6490   -3.7831 H   0  0  0  0  0  0  0  0  0  0  0  0
  -90.3181   29.5864   -2.4592 C   0  0  0  0  0  0  0  0  0  0  0  0
  -90.8065   28.4658   -1.8591 C   0  0  0  0  0  0  0  0  0  0  0  0
  -92.1838   28.3047   -1.6286 C   0  0  0  0  0  0  0  0  0  0  0  0
  -93.1000   29.2603   -1.9923 C   0  0  0  0  0  0  0  0  0  0  0  0
  -92.6219   30.3984   -2.5986 C   0  0  0  0  0  0  0  0  0  0  0  0
  -93.7802   31.6258   -3.0670 Cl  0  0  0  0  0  0  0  0  0  0  0  0
  -91.2798   30.5481   -2.8201 C   0  0  0  0  0  0  0  0  0  0  0  0
 15 16  1  0  0  0
 16 17  2  0  0  0
 16  1  1  0  0  0
  1  2  2  0  0  0
  2  3  1  0  0  0
  3  4  2  0  0  0
  4  5  1  0  0  0
  5  6  2  0  0  0
  5  7  1  0  0  0
  7  8  2  0  0  0
  8 19  1  0  0  0
 19 21  1  0  0  0
 21 22  2  0  0  0
 22 23  1  0  0  0
 23 24  2  0  0  0
 24 25  1  0  0  0
 25 26  1  0  0  0
 25 27  2  0  0  0
  8  9  1  0  0  0
  9 10  2  0  0  0
 10 11  1  0  0  0
 11 12  2  0  0  0
 12 13  1  0  0  0
 13 14  2  0  0  0
  6  1  1  0  0  0
 27 21  1  0  0  0
 14  9  1  0  0  0
 14  4  1  0  0  0
 15 18  1  0  0  0
 19 20  1  0  0  0
M  END
> <minimizedAffinity>
-7.96124

> <CNNscore>
0.1518471688

> <CNNaffinity>
5.9841299057

> <CNN_VS>
0.9086731672

> <CNNaffinity_variance>
0.2759857774

$$$$
[H]OC(=O)c1c([H])c([H])c2c(nc(N([H])c3c([H])c([H])c([H])c(Cl)c3[H])c3c([H])c([H])nc([H])c32)c1[H]


 27 30  0  0  0  0  0  0  0  0999 V2000
  -85.3726   31.4859    0.7274 C   0  0  0  0  0  0  0  0  0  0  0  0
  -86.1963   30.4156    0.5070 C   0  0  0  0  0  0  0  0  0  0  0  0
  -87.0401   30.3602   -0.5952 C   0  0  0  0  0  0  0  0  0  0  0  0
  -87.0621   31.3948   -1.4963 C   0  0  0  0  0  0  0  0  0  0  0  0
  -86.2258   32.4919   -1.2813 C   0  0  0  0  0  0  0  0  0  0  0  0
  -85.4029   32.5126   -0.1781 C   0  0  0  0  0  0  0  0  0  0  0  0
  -86.2520   33.4943   -2.1607 N   0  0  0  0  0  0  0  0  0  0  0  0
  -87.0156   33.5576   -3.2534 C   0  0  0  0  0  0  0  0  0  0  0  0
  -87.8573   32.4835   -3.4957 C   0  0  0  0  0  0  0  0  0  0  0  0
  -88.6779   32.4566   -4.5941 C   0  0  0  0  0  0  0  0  0  0  0  0
  -89.4987   31.3501   -4.7833 C   0  0  0  0  0  0  0  0  0  0  0  0
  -89.4997   30.3323   -3.9272 N   0  0  0  0  0  0  0  0  0  0  0  0
  -88.7034   30.3163   -2.8263 C   0  0  0  0  0  0  0  0  0  0  0  0
  -87.8869   31.3954   -2.6198 C   0  0  0  0  0  0  0  0  0  0  0  0
  -84.9418   31.4186    3.1322 O   0  0  0  0  0  0  0  0  0  0  0  0
  -84.4774   31.5825    1.8651 C   0  0  0  0  0  0  0  0  0  0  0  0
  -83.2669   31.8200    1.6576 O   0  0  0  0  0  0  0  0  0  0  0  0
  -84.6730   31.9353    3.9535 H   0  0  0  0  0  0  0  0  0  0  0  0
  -87.0101   34.6640   -4.1203 N   0  0  0  0  0  0  0  0  0  0  0  0
  -86.4051   34.6442   -4.9976 H   0  0  0  0  0  0  0  0  0  0  0  0
  -87.7442   35.8711   -3.9703 C   0  0  0  0  0  0  0  0  0  0  0  0
  -89.0878   35.9941   -4.1544 C   0  0  0  0  0  0  0  0  0  0  0  0
  -89.7309   37.2366   -4.0169 C   0  0  0  0  0  0  0  0  0  0  0  0
  -89.0444   38.3802   -3.6918 C   0  0  0  0  0  0  0  0  0  0  0  0
  -87.6866   38.2718   -3.5017 C   0  0  0  0  0  0  0  0  0  0  0  0
  -86.7989   39.7232   -3.0859 Cl  0  0  0  0  0  0  0  0  0  0  0  0
  -87.0674   37.0591   -3.6377 C   0  0  0  0  0  0  0  0  0  0  0  0
 15 16  1  0  0  0
 16 17  2  0  0  0
 16  1  1  0  0  0
  1  2  2  0  0  0
  2  3  1  0  0  0
  3  4  2  0  0  0
  4  5  1  0  0  0
  5  6  2  0  0  0
  5  7  1  0  0  0
  7  8  2  0  0  0
  8 19  1  0  0  0
 19 21  1  0  0  0
 21 22  2  0  0  0
 22 23  1  0  0  0
 23 24  2  0  0  0
 24 25  1  0  0  0
 25 26  1  0  0  0
 25 27  2  0  0  0
  8  9  1  0  0  0
  9 10  2  0  0  0
 10 11  1  0  0  0
 11 12  2  0  0  0
 12 13  1  0  0  0
 13 14  2  0  0  0
  6  1  1  0  0  0
 27 21  1  0  0  0
 14  9  1  0  0  0
 14  4  1  0  0  0
 15 18  1  0  0  0
 19 20  1  0  0  0
M  END
> <minimizedAffinity>
-8.18008

> <CNNscore>
0.1501137763

> <CNNaffinity>
5.6527104378

> <CNN_VS>
0.8485497236

> <CNNaffinity_variance>
0.1753874570

$$$$
[H]OC(=O)c1c([H])c([H])c2c(nc(N([H])c3c([H])c([H])c([H])c(Cl)c3[H])c3c([H])c([H])nc([H])c32)c1[H]


 27 30  0  0  0  0  0  0  0  0999 V2000
  -90.6196   33.1684   -4.7217 C   0  0  0  0  0  0  0  0  0  0  0  0
  -91.0956   31.8976   -4.8980 C   0  0  0  0  0  0  0  0  0  0  0  0
  -90.7297   30.8585   -4.0518 C   0  0  0  0  0  0  0  0  0  0  0  0
  -89.8707   31.0927   -3.0076 C   0  0  0  0  0  0  0  0  0  0  0  0
  -89.3789   32.3855   -2.8184 C   0  0  0  0  0  0  0  0  0  0  0  0
  -89.7631   33.3906   -3.6767 C   0  0  0  0  0  0  0  0  0  0  0  0
  -88.5443   32.6067   -1.8018 N   0  0  0  0  0  0  0  0  0  0  0  0
  -88.1202   31.6949   -0.9244 C   0  0  0  0  0  0  0  0  0  0  0  0
  -88.5906   30.4012   -1.0845 C   0  0  0  0  0  0  0  0  0  0  0  0
  -88.2128   29.3962   -0.2314 C   0  0  0  0  0  0  0  0  0  0  0  0
  -88.7199   28.1189   -0.4434 C   0  0  0  0  0  0  0  0  0  0  0  0
  -89.5540   27.8610   -1.4467 N   0  0  0  0  0  0  0  0  0  0  0  0
  -89.9551   28.8254   -2.3159 C   0  0  0  0  0  0  0  0  0  0  0  0
  -89.4683   30.0907   -2.1264 C   0  0  0  0  0  0  0  0  0  0  0  0
  -90.0207   34.9782   -6.2512 O   0  0  0  0  0  0  0  0  0  0  0  0
  -90.9768   34.2805   -5.5824 C   0  0  0  0  0  0  0  0  0  0  0  0
  -92.1842   34.5862   -5.6978 O   0  0  0  0  0  0  0  0  0  0  0  0
  -89.9843   35.9726   -6.4046 H   0  0  0  0  0  0  0  0  0  0  0  0
  -87.2140   31.9976    0.1066 N   0  0  0  0  0  0  0  0  0  0  0  0
  -87.5785   32.1989    1.0877 H   0  0  0  0  0  0  0  0  0  0  0  0
  -85.7990   32.0760    0.0052 C   0  0  0  0  0  0  0  0  0  0  0  0
  -85.1209   32.9843   -0.7495 C   0  0  0  0  0  0  0  0  0  0  0  0
  -83.7169   32.9703   -0.8188 C   0  0  0  0  0  0  0  0  0  0  0  0
  -82.9629   32.0493   -0.1346 C   0  0  0  0  0  0  0  0  0  0  0  0
  -83.6335   31.1259    0.6329 C   0  0  0  0  0  0  0  0  0  0  0  0
  -82.6833   29.9455    1.5113 Cl  0  0  0  0  0  0  0  0  0  0  0  0
  -85.0004   31.1453    0.6951 C   0  0  0  0  0  0  0  0  0  0  0  0
 15 16  1  0  0  0
 16 17  2  0  0  0
 16  1  1  0  0  0
  1  2  2  0  0  0
  2  3  1  0  0  0
  3  4  2  0  0  0
  4  5  1  0  0  0
  5  6  2  0  0  0
  5  7  1  0  0  0
  7  8  2  0  0  0
  8 19  1  0  0  0
 19 21  1  0  0  0
 21 22  2  0  0  0
 22 23  1  0  0  0
 23 24  2  0  0  0
 24 25  1  0  0  0
 25 26  1  0  0  0
 25 27  2  0  0  0
  8  9  1  0  0  0
  9 10  2  0  0  0
 10 11  1  0  0  0
 11 12  2  0  0  0
 12 13  1  0  0  0
 13 14  2  0  0  0
  6  1  1  0  0  0
 27 21  1  0  0  0
 14  9  1  0  0  0
 14  4  1  0  0  0
 15 18  1  0  0  0
 19 20  1  0  0  0
M  END
> <minimizedAffinity>
-7.35959

> <CNNscore>
0.1337561309

> <CNNaffinity>
5.4999823570

> <CNN_VS>
0.7356563807

> <CNNaffinity_variance>
0.1859887093

$$$$
[H]c1sc(-c2c([H])c([H])c3c(c2[H])C([H])([H])C([H])([H])O3)nc1C(=O)N([H])c1nc2c([H])c(OC([H])([H])[H])c([H])c([H])c2n1[H]


 30 34  0  0  0  0  0  0  0  0999 V2000
  -83.7308   32.2959   -0.1214 N   0  0  0  0  0  0  0  0  0  0  0  0
  -83.1522   31.3750    0.7019 C   0  0  0  0  0  0  0  0  0  0  0  0
  -81.9077   31.6599    1.0546 O   0  0  0  0  0  0  0  0  0  0  0  0
  -83.0166   33.1368   -0.3783 H   0  0  0  0  0  0  0  0  0  0  0  0
  -88.7171   34.1569   -2.6987 C   0  0  0  0  0  0  0  0  0  0  0  0
  -89.2956   33.2235   -1.8643 C   0  0  0  0  0  0  0  0  0  0  0  0
  -88.5493   32.4509   -1.0103 C   0  0  0  0  0  0  0  0  0  0  0  0
  -87.1765   32.6224   -0.9945 C   0  0  0  0  0  0  0  0  0  0  0  0
  -86.1891   32.0032   -0.2574 N   0  0  0  0  0  0  0  0  0  0  0  0
  -85.0286   32.5285   -0.6173 C   0  0  0  0  0  0  0  0  0  0  0  0
  -85.2773   33.4863   -1.5853 N   0  0  0  0  0  0  0  0  0  0  0  0
  -86.5874   33.5409   -1.8129 C   0  0  0  0  0  0  0  0  0  0  0  0
  -87.3519   34.3289   -2.6846 C   0  0  0  0  0  0  0  0  0  0  0  0
  -86.4329   31.2898    0.4424 H   0  0  0  0  0  0  0  0  0  0  0  0
  -89.1665   36.2956   -3.7216 C   0  0  0  0  0  0  0  0  0  0  0  0
  -89.5014   34.9327   -3.5611 O   0  0  0  0  0  0  0  0  0  0  0  0
  -83.6576   30.1113    1.2742 C   0  0  0  0  0  0  0  0  0  0  0  0
  -82.8666   29.2764    2.0228 C   0  0  0  0  0  0  0  0  0  0  0  0
  -83.9276   27.9935    2.3847 S   0  0  0  0  0  0  0  0  0  0  0  0
  -85.3103   28.5801    1.5728 C   0  0  0  0  0  0  0  0  0  0  0  0
  -84.8926   29.7170    1.0712 N   0  0  0  0  0  0  0  0  0  0  0  0
  -86.6568   27.9579    1.4576 C   0  0  0  0  0  0  0  0  0  0  0  0
  -86.9176   26.7372    1.9927 C   0  0  0  0  0  0  0  0  0  0  0  0
  -88.1757   26.1944    1.8656 C   0  0  0  0  0  0  0  0  0  0  0  0
  -89.1968   26.8768    1.1934 C   0  0  0  0  0  0  0  0  0  0  0  0
  -90.5361   26.5834    0.9138 O   0  0  0  0  0  0  0  0  0  0  0  0
  -91.2251   27.8036    0.7190 C   0  0  0  0  0  0  0  0  0  0  0  0
  -90.1543   28.6326   -0.0021 C   0  0  0  0  0  0  0  0  0  0  0  0
  -88.9276   28.1160    0.6515 C   0  0  0  0  0  0  0  0  0  0  0  0
  -87.6560   28.6344    0.7953 C   0  0  0  0  0  0  0  0  0  0  0  0
 15 16  1  0  0  0
 16  5  1  0  0  0
  5  6  2  0  0  0
  6  7  1  0  0  0
  7  8  2  0  0  0
  8  9  1  0  0  0
  9 10  1  0  0  0
 10  1  1  0  0  0
  1  2  1  0  0  0
  2  3  2  0  0  0
  2 17  1  0  0  0
 17 18  2  0  0  0
 18 19  1  0  0  0
 19 20  1  0  0  0
 20 21  2  0  0  0
 20 22  1  0  0  0
 22 23  2  0  0  0
 23 24  1  0  0  0
 24 25  2  0  0  0
 25 26  1  0  0  0
 26 27  1  0  0  0
 27 28  1  0  0  0
 28 29  1  0  0  0
 29 30  2  0  0  0
 10 11  2  0  0  0
 11 12  1  0  0  0
 12 13  2  0  0  0
 13  5  1  0  0  0
 12  8  1  0  0  0
 21 17  1  0  0  0
 30 22  1  0  0  0
 29 25  1  0  0  0
  9 14  1  0  0  0
  1  4  1  0  0  0
M  END
> <minimizedAffinity>
-8.64694

> <CNNscore>
0.8463280201

> <CNNaffinity>
7.3461456299

> <CNN_VS>
6.2172489166

> <CNNaffinity_variance>
0.0457929112

$$$$
[H]c1sc(-c2c([H])c([H])c3c(c2[H])C([H])([H])C([H])([H])O3)nc1C(=O)N([H])c1nc2c([H])c(OC([H])([H])[H])c([H])c([H])c2n1[H]


 30 34  0  0  0  0  0  0  0  0999 V2000
  -85.1621   33.5850   -1.7074 N   0  0  0  0  0  0  0  0  0  0  0  0
  -84.2810   33.1960   -0.7414 C   0  0  0  0  0  0  0  0  0  0  0  0
  -83.3513   34.0944   -0.4531 O   0  0  0  0  0  0  0  0  0  0  0  0
  -84.9145   34.6138   -2.1117 H   0  0  0  0  0  0  0  0  0  0  0  0
  -90.5303   31.3657   -2.8145 C   0  0  0  0  0  0  0  0  0  0  0  0
  -90.0429   31.2810   -4.1020 C   0  0  0  0  0  0  0  0  0  0  0  0
  -88.7768   31.6978   -4.4284 C   0  0  0  0  0  0  0  0  0  0  0  0
  -87.9745   32.2167   -3.4277 C   0  0  0  0  0  0  0  0  0  0  0  0
  -86.6851   32.7051   -3.4547 N   0  0  0  0  0  0  0  0  0  0  0  0
  -86.3727   33.0855   -2.2259 C   0  0  0  0  0  0  0  0  0  0  0  0
  -87.4656   32.8373   -1.4133 N   0  0  0  0  0  0  0  0  0  0  0  0
  -88.4400   32.3079   -2.1490 C   0  0  0  0  0  0  0  0  0  0  0  0
  -89.7339   31.8815   -1.8180 C   0  0  0  0  0  0  0  0  0  0  0  0
  -86.1454   32.6997   -4.3305 H   0  0  0  0  0  0  0  0  0  0  0  0
  -92.0258   29.5596   -2.2455 C   0  0  0  0  0  0  0  0  0  0  0  0
  -91.8263   30.9333   -2.5078 O   0  0  0  0  0  0  0  0  0  0  0  0
  -84.1691   31.9517    0.0452 C   0  0  0  0  0  0  0  0  0  0  0  0
  -83.0311   31.6203    0.7369 C   0  0  0  0  0  0  0  0  0  0  0  0
  -83.4401   30.1115    1.4139 S   0  0  0  0  0  0  0  0  0  0  0  0
  -85.0233   29.9810    0.7882 C   0  0  0  0  0  0  0  0  0  0  0  0
  -85.1561   31.0887    0.0998 N   0  0  0  0  0  0  0  0  0  0  0  0
  -86.0105   28.8833    0.9730 C   0  0  0  0  0  0  0  0  0  0  0  0
  -85.6888   27.7530    1.6536 C   0  0  0  0  0  0  0  0  0  0  0  0
  -86.6291   26.7595    1.8037 C   0  0  0  0  0  0  0  0  0  0  0  0
  -87.9157   26.8899    1.2673 C   0  0  0  0  0  0  0  0  0  0  0  0
  -89.0493   26.0697    1.2602 O   0  0  0  0  0  0  0  0  0  0  0  0
  -90.1882   26.8902    1.0836 C   0  0  0  0  0  0  0  0  0  0  0  0
  -89.6424   27.9432    0.1106 C   0  0  0  0  0  0  0  0  0  0  0  0
  -88.2380   28.0395    0.5769 C   0  0  0  0  0  0  0  0  0  0  0  0
  -87.2736   29.0183    0.4429 C   0  0  0  0  0  0  0  0  0  0  0  0
 15 16  1  0  0  0
 16  5  1  0  0  0
  5  6  2  0  0  0
  6  7  1  0  0  0
  7  8  2  0  0  0
  8  9  1  0  0  0
  9 10  1  0  0  0
 10  1  1  0  0  0
  1  2  1  0  0  0
  2  3  2  0  0  0
  2 17  1  0  0  0
 17 18  2  0  0  0
 18 19  1  0  0  0
 19 20  1  0  0  0
 20 21  2  0  0  0
 20 22  1  0  0  0
 22 23  2  0  0  0
 23 24  1  0  0  0
 24 25  2  0  0  0
 25 26  1  0  0  0
 26 27  1  0  0  0
 27 28  1  0  0  0
 28 29  1  0  0  0
 29 30  2  0  0  0
 10 11  2  0  0  0
 11 12  1  0  0  0
 12 13  2  0  0  0
 13  5  1  0  0  0
 12  8  1  0  0  0
 21 17  1  0  0  0
 30 22  1  0  0  0
 29 25  1  0  0  0
  9 14  1  0  0  0
  1  4  1  0  0  0
M  END
> <minimizedAffinity>
-8.66606

> <CNNscore>
0.8112116456

> <CNNaffinity>
7.1669664383

> <CNN_VS>
5.8139266968

> <CNNaffinity_variance>
0.0869483203

$$$$
[H]c1sc(-c2c([H])c([H])c3c(c2[H])C([H])([H])C([H])([H])O3)nc1C(=O)N([H])c1nc2c([H])c(OC([H])([H])[H])c([H])c([H])c2n1[H]


 30 34  0  0  0  0  0  0  0  0999 V2000
  -85.0428   33.4846   -1.5116 N   0  0  0  0  0  0  0  0  0  0  0  0
  -84.1155   33.0495   -0.6107 C   0  0  0  0  0  0  0  0  0  0  0  0
  -83.1059   33.8846   -0.4162 O   0  0  0  0  0  0  0  0  0  0  0  0
  -84.7583   34.4871   -1.9559 H   0  0  0  0  0  0  0  0  0  0  0  0
  -90.2250   32.3553   -4.1265 C   0  0  0  0  0  0  0  0  0  0  0  0
  -90.5296   31.8019   -2.9005 C   0  0  0  0  0  0  0  0  0  0  0  0
  -89.6254   31.7805   -1.8683 C   0  0  0  0  0  0  0  0  0  0  0  0
  -88.3742   32.3335   -2.0756 C   0  0  0  0  0  0  0  0  0  0  0  0
  -87.2823   32.4554   -1.2421 N   0  0  0  0  0  0  0  0  0  0  0  0
  -86.3228   33.0636   -1.9218 C   0  0  0  0  0  0  0  0  0  0  0  0
  -86.8054   33.3316   -3.1913 N   0  0  0  0  0  0  0  0  0  0  0  0
  -88.0559   32.8852   -3.2816 C   0  0  0  0  0  0  0  0  0  0  0  0
  -88.9812   32.9058   -4.3346 C   0  0  0  0  0  0  0  0  0  0  0  0
  -87.3296   32.1199   -0.2709 H   0  0  0  0  0  0  0  0  0  0  0  0
  -92.3839   31.6772   -4.9642 C   0  0  0  0  0  0  0  0  0  0  0  0
  -91.1659   32.3643   -5.1635 O   0  0  0  0  0  0  0  0  0  0  0  0
  -84.0265   31.8127    0.1905 C   0  0  0  0  0  0  0  0  0  0  0  0
  -82.9069   31.4853    0.9134 C   0  0  0  0  0  0  0  0  0  0  0  0
  -83.3367   29.9841    1.5947 S   0  0  0  0  0  0  0  0  0  0  0  0
  -84.9042   29.8515    0.9312 C   0  0  0  0  0  0  0  0  0  0  0  0
  -85.0169   30.9527    0.2290 N   0  0  0  0  0  0  0  0  0  0  0  0
  -85.8987   28.7581    1.1022 C   0  0  0  0  0  0  0  0  0  0  0  0
  -85.5882   27.6221    1.7785 C   0  0  0  0  0  0  0  0  0  0  0  0
  -86.5349   26.6329    1.9158 C   0  0  0  0  0  0  0  0  0  0  0  0
  -87.8168   26.7734    1.3705 C   0  0  0  0  0  0  0  0  0  0  0  0
  -88.9547   25.9594    1.3502 O   0  0  0  0  0  0  0  0  0  0  0  0
  -90.0878   26.7871    1.1699 C   0  0  0  0  0  0  0  0  0  0  0  0
  -89.5291   27.8428    0.2071 C   0  0  0  0  0  0  0  0  0  0  0  0
  -88.1277   27.9287    0.6845 C   0  0  0  0  0  0  0  0  0  0  0  0
  -87.1570   28.9031    0.5635 C   0  0  0  0  0  0  0  0  0  0  0  0
 15 16  1  0  0  0
 16  5  1  0  0  0
  5  6  2  0  0  0
  6  7  1  0  0  0
  7  8  2  0  0  0
  8  9  1  0  0  0
  9 10  1  0  0  0
 10  1  1  0  0  0
  1  2  1  0  0  0
  2  3  2  0  0  0
  2 17  1  0  0  0
 17 18  2  0  0  0
 18 19  1  0  0  0
 19 20  1  0  0  0
 20 21  2  0  0  0
 20 22  1  0  0  0
 22 23  2  0  0  0
 23 24  1  0  0  0
 24 25  2  0  0  0
 25 26  1  0  0  0
 26 27  1  0  0  0
 27 28  1  0  0  0
 28 29  1  0  0  0
 29 30  2  0  0  0
 10 11  2  0  0  0
 11 12  1  0  0  0
 12 13  2  0  0  0
 13  5  1  0  0  0
 12  8  1  0  0  0
 21 17  1  0  0  0
 30 22  1  0  0  0
 29 25  1  0  0  0
  9 14  1  0  0  0
  1  4  1  0  0  0
M  END
> <minimizedAffinity>
-8.42738

> <CNNscore>
0.7732270360

> <CNNaffinity>
7.1861023903

> <CNN_VS>
5.5564885139

> <CNNaffinity_variance>
0.1438266784

$$$$
[H]c1sc(-c2c([H])c([H])c3c(c2[H])C([H])([H])C([H])([H])O3)nc1C(=O)N([H])c1nc2c([H])c(OC([H])([H])[H])c([H])c([H])c2n1[H]


 30 34  0  0  0  0  0  0  0  0999 V2000
  -83.7053   32.4547   -0.3466 N   0  0  0  0  0  0  0  0  0  0  0  0
  -83.1169   31.5524    0.4904 C   0  0  0  0  0  0  0  0  0  0  0  0
  -81.8678   31.8444    0.8208 O   0  0  0  0  0  0  0  0  0  0  0  0
  -82.9938   33.2888   -0.6318 H   0  0  0  0  0  0  0  0  0  0  0  0
  -89.3902   32.3731   -1.9726 C   0  0  0  0  0  0  0  0  0  0  0  0
  -89.0240   33.4911   -2.6923 C   0  0  0  0  0  0  0  0  0  0  0  0
  -87.7447   33.9871   -2.6631 C   0  0  0  0  0  0  0  0  0  0  0  0
  -86.8029   33.3377   -1.8850 C   0  0  0  0  0  0  0  0  0  0  0  0
  -85.4670   33.5988   -1.6636 N   0  0  0  0  0  0  0  0  0  0  0  0
  -85.0090   32.6768   -0.8315 C   0  0  0  0  0  0  0  0  0  0  0  0
  -86.0555   31.8248   -0.5231 N   0  0  0  0  0  0  0  0  0  0  0  0
  -87.1474   32.2306   -1.1667 C   0  0  0  0  0  0  0  0  0  0  0  0
  -88.4549   31.7258   -1.1981 C   0  0  0  0  0  0  0  0  0  0  0  0
  -85.0054   34.3856   -2.1390 H   0  0  0  0  0  0  0  0  0  0  0  0
  -91.0358   30.9653   -3.0368 C   0  0  0  0  0  0  0  0  0  0  0  0
  -90.7026   31.8872   -2.0197 O   0  0  0  0  0  0  0  0  0  0  0  0
  -83.6157   30.3028    1.0980 C   0  0  0  0  0  0  0  0  0  0  0  0
  -82.8514   29.5438    1.9482 C   0  0  0  0  0  0  0  0  0  0  0  0
  -83.8878   28.2405    2.3080 S   0  0  0  0  0  0  0  0  0  0  0  0
  -85.2281   28.7238    1.3671 C   0  0  0  0  0  0  0  0  0  0  0  0
  -84.8171   29.8473    0.8311 N   0  0  0  0  0  0  0  0  0  0  0  0
  -86.5386   28.0413    1.1930 C   0  0  0  0  0  0  0  0  0  0  0  0
  -86.6991   26.7311    1.5120 C   0  0  0  0  0  0  0  0  0  0  0  0
  -87.9268   26.1347    1.3370 C   0  0  0  0  0  0  0  0  0  0  0  0
  -89.0185   26.8531    0.8348 C   0  0  0  0  0  0  0  0  0  0  0  0
  -90.3497   26.5229    0.5572 O   0  0  0  0  0  0  0  0  0  0  0  0
  -91.1196   27.7087    0.6078 C   0  0  0  0  0  0  0  0  0  0  0  0
  -90.1369   28.7218    0.0064 C   0  0  0  0  0  0  0  0  0  0  0  0
  -88.8510   28.1834    0.5121 C   0  0  0  0  0  0  0  0  0  0  0  0
  -87.6076   28.7538    0.6987 C   0  0  0  0  0  0  0  0  0  0  0  0
 15 16  1  0  0  0
 16  5  1  0  0  0
  5  6  2  0  0  0
  6  7  1  0  0  0
  7  8  2  0  0  0
  8  9  1  0  0  0
  9 10  1  0  0  0
 10  1  1  0  0  0
  1  2  1  0  0  0
  2  3  2  0  0  0
  2 17  1  0  0  0
 17 18  2  0  0  0
 18 19  1  0  0  0
 19 20  1  0  0  0
 20 21  2  0  0  0
 20 22  1  0  0  0
 22 23  2  0  0  0
 23 24  1  0  0  0
 24 25  2  0  0  0
 25 26  1  0  0  0
 26 27  1  0  0  0
 27 28  1  0  0  0
 28 29  1  0  0  0
 29 30  2  0  0  0
 10 11  2  0  0  0
 11 12  1  0  0  0
 12 13  2  0  0  0
 13  5  1  0  0  0
 12  8  1  0  0  0
 21 17  1  0  0  0
 30 22  1  0  0  0
 29 25  1  0  0  0
  9 14  1  0  0  0
  1  4  1  0  0  0
M  END
> <minimizedAffinity>
-8.25990

> <CNNscore>
0.7373412251

> <CNNaffinity>
7.1543359756

> <CNN_VS>
5.2751870155

> <CNNaffinity_variance>
0.0677168742

$$$$
[H]c1sc(-c2c([H])c([H])c3c(c2[H])C([H])([H])C([H])([H])O3)nc1C(=O)N([H])c1nc2c([H])c(OC([H])([H])[H])c([H])c([H])c2n1[H]


 30 34  0  0  0  0  0  0  0  0999 V2000
  -84.4968   28.3502    2.1446 N   0  0  0  0  0  0  0  0  0  0  0  0
  -83.5922   29.2855    1.7351 C   0  0  0  0  0  0  0  0  0  0  0  0
  -82.3432   29.0369    2.0996 O   0  0  0  0  0  0  0  0  0  0  0  0
  -84.0071   27.5320    2.7561 H   0  0  0  0  0  0  0  0  0  0  0  0
  -89.9547   26.1943    1.4153 C   0  0  0  0  0  0  0  0  0  0  0  0
  -90.1441   27.3727    0.7241 C   0  0  0  0  0  0  0  0  0  0  0  0
  -89.1452   28.3038    0.5884 C   0  0  0  0  0  0  0  0  0  0  0  0
  -87.9158   28.0417    1.1663 C   0  0  0  0  0  0  0  0  0  0  0  0
  -86.7477   28.7742    1.1954 N   0  0  0  0  0  0  0  0  0  0  0  0
  -85.8544   28.0805    1.8831 C   0  0  0  0  0  0  0  0  0  0  0  0
  -86.4543   26.9018    2.2919 N   0  0  0  0  0  0  0  0  0  0  0  0
  -87.7107   26.8815    1.8534 C   0  0  0  0  0  0  0  0  0  0  0  0
  -88.7327   25.9318    1.9908 C   0  0  0  0  0  0  0  0  0  0  0  0
  -86.6887   29.6782    0.7081 H   0  0  0  0  0  0  0  0  0  0  0  0
  -90.7350   24.0734    2.2611 C   0  0  0  0  0  0  0  0  0  0  0  0
  -90.9907   25.2604    1.5393 O   0  0  0  0  0  0  0  0  0  0  0  0
  -83.7478   30.5315    0.9587 C   0  0  0  0  0  0  0  0  0  0  0  0
  -82.7095   31.4062    0.7585 C   0  0  0  0  0  0  0  0  0  0  0  0
  -83.4447   32.6459   -0.1499 S   0  0  0  0  0  0  0  0  0  0  0  0
  -85.0206   31.9935   -0.2278 C   0  0  0  0  0  0  0  0  0  0  0  0
  -84.9040   30.8710    0.4392 N   0  0  0  0  0  0  0  0  0  0  0  0
  -86.2304   32.5566   -0.8858 C   0  0  0  0  0  0  0  0  0  0  0  0
  -87.4767   32.1344   -0.5499 C   0  0  0  0  0  0  0  0  0  0  0  0
  -88.5716   32.6791   -1.1808 C   0  0  0  0  0  0  0  0  0  0  0  0
  -88.4273   33.6636   -2.1658 C   0  0  0  0  0  0  0  0  0  0  0  0
  -89.3312   34.3809   -2.9573 O   0  0  0  0  0  0  0  0  0  0  0  0
  -88.7123   35.5911   -3.3495 C   0  0  0  0  0  0  0  0  0  0  0  0
  -87.2656   35.1258   -3.5591 C   0  0  0  0  0  0  0  0  0  0  0  0
  -87.1599   34.0894   -2.5037 C   0  0  0  0  0  0  0  0  0  0  0  0
  -86.0811   33.5242   -1.8533 C   0  0  0  0  0  0  0  0  0  0  0  0
 15 16  1  0  0  0
 16  5  1  0  0  0
  5  6  2  0  0  0
  6  7  1  0  0  0
  7  8  2  0  0  0
  8  9  1  0  0  0
  9 10  1  0  0  0
 10  1  1  0  0  0
  1  2  1  0  0  0
  2  3  2  0  0  0
  2 17  1  0  0  0
 17 18  2  0  0  0
 18 19  1  0  0  0
 19 20  1  0  0  0
 20 21  2  0  0  0
 20 22  1  0  0  0
 22 23  2  0  0  0
 23 24  1  0  0  0
 24 25  2  0  0  0
 25 26  1  0  0  0
 26 27  1  0  0  0
 27 28  1  0  0  0
 28 29  1  0  0  0
 29 30  2  0  0  0
 10 11  2  0  0  0
 11 12  1  0  0  0
 12 13  2  0  0  0
 13  5  1  0  0  0
 12  8  1  0  0  0
 21 17  1  0  0  0
 30 22  1  0  0  0
 29 25  1  0  0  0
  9 14  1  0  0  0
  1  4  1  0  0  0
M  END
> <minimizedAffinity>
-9.16413

> <CNNscore>
0.5543264747

> <CNNaffinity>
7.0330848694

> <CNN_VS>
3.8986251354

> <CNNaffinity_variance>
0.1432090104

$$$$
[H]c1sc(-c2c([H])c([H])c3c(c2[H])C([H])([H])C([H])([H])O3)nc1C(=O)N([H])c1nc2c([H])c(OC([H])([H])[H])c([H])c([H])c2n1[H]


 30 34  0  0  0  0  0  0  0  0999 V2000
  -85.1678   33.7151   -1.9424 N   0  0  0  0  0  0  0  0  0  0  0  0
  -84.5641   33.1180   -0.8747 C   0  0  0  0  0  0  0  0  0  0  0  0
  -83.4071   33.6599   -0.5252 O   0  0  0  0  0  0  0  0  0  0  0  0
  -84.5425   34.5633   -2.3580 H   0  0  0  0  0  0  0  0  0  0  0  0
  -90.5598   34.4137   -4.2677 C   0  0  0  0  0  0  0  0  0  0  0  0
  -90.5078   33.0393   -4.3699 C   0  0  0  0  0  0  0  0  0  0  0  0
  -89.4108   32.3216   -3.9640 C   0  0  0  0  0  0  0  0  0  0  0  0
  -88.3309   33.0081   -3.4381 C   0  0  0  0  0  0  0  0  0  0  0  0
  -87.1167   32.5658   -2.9563 N   0  0  0  0  0  0  0  0  0  0  0  0
  -86.4278   33.6265   -2.5658 C   0  0  0  0  0  0  0  0  0  0  0  0
  -87.2059   34.7478   -2.7977 N   0  0  0  0  0  0  0  0  0  0  0  0
  -88.3650   34.3673   -3.3295 C   0  0  0  0  0  0  0  0  0  0  0  0
  -89.4867   35.0983   -3.7449 C   0  0  0  0  0  0  0  0  0  0  0  0
  -86.9038   31.5598   -2.9285 H   0  0  0  0  0  0  0  0  0  0  0  0
  -91.5033   36.4039   -5.2531 C   0  0  0  0  0  0  0  0  0  0  0  0
  -91.6914   35.1225   -4.6893 O   0  0  0  0  0  0  0  0  0  0  0  0
  -84.9620   31.9721   -0.0331 C   0  0  0  0  0  0  0  0  0  0  0  0
  -84.4496   31.7718    1.2240 C   0  0  0  0  0  0  0  0  0  0  0  0
  -85.2127   30.3265    1.7047 S   0  0  0  0  0  0  0  0  0  0  0  0
  -86.1361   30.0540    0.2947 C   0  0  0  0  0  0  0  0  0  0  0  0
  -85.8158   31.0737   -0.4642 N   0  0  0  0  0  0  0  0  0  0  0  0
  -87.0716   28.9365   -0.0046 C   0  0  0  0  0  0  0  0  0  0  0  0
  -87.3461   28.5701   -1.2832 C   0  0  0  0  0  0  0  0  0  0  0  0
  -88.2169   27.5313   -1.5202 C   0  0  0  0  0  0  0  0  0  0  0  0
  -88.8284   26.8412   -0.4666 C   0  0  0  0  0  0  0  0  0  0  0  0
  -89.7313   25.7740   -0.4032 O   0  0  0  0  0  0  0  0  0  0  0  0
  -89.5787   25.1392    0.8519 C   0  0  0  0  0  0  0  0  0  0  0  0
  -89.3069   26.3460    1.7593 C   0  0  0  0  0  0  0  0  0  0  0  0
  -88.5467   27.2166    0.8302 C   0  0  0  0  0  0  0  0  0  0  0  0
  -87.6692   28.2625    1.0361 C   0  0  0  0  0  0  0  0  0  0  0  0
 15 16  1  0  0  0
 16  5  1  0  0  0
  5  6  2  0  0  0
  6  7  1  0  0  0
  7  8  2  0  0  0
  8  9  1  0  0  0
  9 10  1  0  0  0
 10  1  1  0  0  0
  1  2  1  0  0  0
  2  3  2  0  0  0
  2 17  1  0  0  0
 17 18  2  0  0  0
 18 19  1  0  0  0
 19 20  1  0  0  0
 20 21  2  0  0  0
 20 22  1  0  0  0
 22 23  2  0  0  0
 23 24  1  0  0  0
 24 25  2  0  0  0
 25 26  1  0  0  0
 26 27  1  0  0  0
 27 28  1  0  0  0
 28 29  1  0  0  0
 29 30  2  0  0  0
 10 11  2  0  0  0
 11 12  1  0  0  0
 12 13  2  0  0  0
 13  5  1  0  0  0
 12  8  1  0  0  0
 21 17  1  0  0  0
 30 22  1  0  0  0
 29 25  1  0  0  0
  9 14  1  0  0  0
  1  4  1  0  0  0
M  END
> <minimizedAffinity>
-7.76565

> <CNNscore>
0.3802469671

> <CNNaffinity>
6.7463822365

> <CNN_VS>
2.5652914047

> <CNNaffinity_variance>
0.2922647297

$$$$
[H]c1sc(-c2c([H])c([H])c3c(c2[H])C([H])([H])C([H])([H])O3)nc1C(=O)N([H])c1nc2c([H])c(OC([H])([H])[H])c([H])c([H])c2n1[H]


 30 34  0  0  0  0  0  0  0  0999 V2000
  -86.7571   34.1960   -1.5785 N   0  0  0  0  0  0  0  0  0  0  0  0
  -87.6732   34.0838   -2.5830 C   0  0  0  0  0  0  0  0  0  0  0  0
  -88.1826   35.2361   -2.9919 O   0  0  0  0  0  0  0  0  0  0  0  0
  -86.6190   35.2727   -1.2547 H   0  0  0  0  0  0  0  0  0  0  0  0
  -83.8561   30.0894    1.5342 C   0  0  0  0  0  0  0  0  0  0  0  0
  -82.7566   30.8446    1.1836 C   0  0  0  0  0  0  0  0  0  0  0  0
  -82.8665   31.9707    0.4070 C   0  0  0  0  0  0  0  0  0  0  0  0
  -84.1227   32.3500   -0.0313 C   0  0  0  0  0  0  0  0  0  0  0  0
  -84.5346   33.4125   -0.8081 N   0  0  0  0  0  0  0  0  0  0  0  0
  -85.8487   33.3273   -0.9427 C   0  0  0  0  0  0  0  0  0  0  0  0
  -86.2756   32.2084   -0.2484 N   0  0  0  0  0  0  0  0  0  0  0  0
  -85.2211   31.6150    0.3057 C   0  0  0  0  0  0  0  0  0  0  0  0
  -85.1064   30.4649    1.0991 C   0  0  0  0  0  0  0  0  0  0  0  0
  -83.8527   34.1046   -1.1459 H   0  0  0  0  0  0  0  0  0  0  0  0
  -84.6452   27.8942    2.1513 C   0  0  0  0  0  0  0  0  0  0  0  0
  -83.7169   28.9442    2.3278 O   0  0  0  0  0  0  0  0  0  0  0  0
  -88.2070   32.9098   -3.3016 C   0  0  0  0  0  0  0  0  0  0  0  0
  -87.4579   32.1993   -4.2055 C   0  0  0  0  0  0  0  0  0  0  0  0
  -88.5551   31.0083   -4.7349 S   0  0  0  0  0  0  0  0  0  0  0  0
  -89.8980   31.4711   -3.7875 C   0  0  0  0  0  0  0  0  0  0  0  0
  -89.4417   32.5036   -3.1210 N   0  0  0  0  0  0  0  0  0  0  0  0
  -91.2530   30.8594   -3.7308 C   0  0  0  0  0  0  0  0  0  0  0  0
  -91.9912   30.8854   -2.5912 C   0  0  0  0  0  0  0  0  0  0  0  0
  -93.2406   30.3089   -2.5777 C   0  0  0  0  0  0  0  0  0  0  0  0
  -93.7691   29.6934   -3.7188 C   0  0  0  0  0  0  0  0  0  0  0  0
  -94.9761   29.0422   -3.9963 O   0  0  0  0  0  0  0  0  0  0  0  0
  -95.2091   29.1170   -5.3897 C   0  0  0  0  0  0  0  0  0  0  0  0
  -93.7822   28.9698   -5.9335 C   0  0  0  0  0  0  0  0  0  0  0  0
  -93.0160   29.6692   -4.8738 C   0  0  0  0  0  0  0  0  0  0  0  0
  -91.7663   30.2559   -4.8564 C   0  0  0  0  0  0  0  0  0  0  0  0
 15 16  1  0  0  0
 16  5  1  0  0  0
  5  6  2  0  0  0
  6  7  1  0  0  0
  7  8  2  0  0  0
  8  9  1  0  0  0
  9 10  1  0  0  0
 10  1  1  0  0  0
  1  2  1  0  0  0
  2  3  2  0  0  0
  2 17  1  0  0  0
 17 18  2  0  0  0
 18 19  1  0  0  0
 19 20  1  0  0  0
 20 21  2  0  0  0
 20 22  1  0  0  0
 22 23  2  0  0  0
 23 24  1  0  0  0
 24 25  2  0  0  0
 25 26  1  0  0  0
 26 27  1  0  0  0
 27 28  1  0  0  0
 28 29  1  0  0  0
 29 30  2  0  0  0
 10 11  2  0  0  0
 11 12  1  0  0  0
 12 13  2  0  0  0
 13  5  1  0  0  0
 12  8  1  0  0  0
 21 17  1  0  0  0
 30 22  1  0  0  0
 29 25  1  0  0  0
  9 14  1  0  0  0
  1  4  1  0  0  0
M  END
> <minimizedAffinity>
-7.79554

> <CNNscore>
0.3463580608

> <CNNaffinity>
6.3141837120

> <CNN_VS>
2.1869683266

> <CNNaffinity_variance>
0.1980367899

$$$$
[H]c1sc(-c2c([H])c([H])c3c(c2[H])C([H])([H])C([H])([H])O3)nc1C(=O)N([H])c1nc2c([H])c(OC([H])([H])[H])c([H])c([H])c2n1[H]


 30 34  0  0  0  0  0  0  0  0999 V2000
  -86.9699   34.0550   -1.8110 N   0  0  0  0  0  0  0  0  0  0  0  0
  -88.2077   33.7774   -2.3126 C   0  0  0  0  0  0  0  0  0  0  0  0
  -88.7723   34.7814   -2.9665 O   0  0  0  0  0  0  0  0  0  0  0  0
  -86.6591   35.1227   -2.0272 H   0  0  0  0  0  0  0  0  0  0  0  0
  -83.4415   30.4775    1.3068 C   0  0  0  0  0  0  0  0  0  0  0  0
  -82.4454   31.2354    0.7275 C   0  0  0  0  0  0  0  0  0  0  0  0
  -82.7244   32.2565   -0.1459 C   0  0  0  0  0  0  0  0  0  0  0  0
  -84.0480   32.5245   -0.4466 C   0  0  0  0  0  0  0  0  0  0  0  0
  -84.6220   33.4687   -1.2717 N   0  0  0  0  0  0  0  0  0  0  0  0
  -85.9348   33.3089   -1.2143 C   0  0  0  0  0  0  0  0  0  0  0  0
  -86.1982   32.2610   -0.3489 N   0  0  0  0  0  0  0  0  0  0  0  0
  -85.0460   31.7851    0.1170 C   0  0  0  0  0  0  0  0  0  0  0  0
  -84.7586   30.7424    1.0089 C   0  0  0  0  0  0  0  0  0  0  0  0
  -84.0336   34.1466   -1.7741 H   0  0  0  0  0  0  0  0  0  0  0  0
  -84.1016   28.4399    2.4181 C   0  0  0  0  0  0  0  0  0  0  0  0
  -83.1300   29.4408    2.1950 O   0  0  0  0  0  0  0  0  0  0  0  0
  -89.0406   32.5595   -2.2597 C   0  0  0  0  0  0  0  0  0  0  0  0
  -89.9258   32.2318   -3.2557 C   0  0  0  0  0  0  0  0  0  0  0  0
  -90.6166   30.7882   -2.6715 S   0  0  0  0  0  0  0  0  0  0  0  0
  -89.7514   30.6767   -1.2038 C   0  0  0  0  0  0  0  0  0  0  0  0
  -88.9856   31.7401   -1.2362 N   0  0  0  0  0  0  0  0  0  0  0  0
  -89.8424   29.6347   -0.1457 C   0  0  0  0  0  0  0  0  0  0  0  0
  -91.0407   29.2528    0.3667 C   0  0  0  0  0  0  0  0  0  0  0  0
  -91.0844   28.2856    1.3444 C   0  0  0  0  0  0  0  0  0  0  0  0
  -89.9146   27.6842    1.8242 C   0  0  0  0  0  0  0  0  0  0  0  0
  -89.6557   26.7011    2.7857 O   0  0  0  0  0  0  0  0  0  0  0  0
  -88.4150   26.0956    2.4765 C   0  0  0  0  0  0  0  0  0  0  0  0
  -87.6202   27.3028    1.9621 C   0  0  0  0  0  0  0  0  0  0  0  0
  -88.6999   28.0750    1.3011 C   0  0  0  0  0  0  0  0  0  0  0  0
  -88.6883   29.0477    0.3213 C   0  0  0  0  0  0  0  0  0  0  0  0
 15 16  1  0  0  0
 16  5  1  0  0  0
  5  6  2  0  0  0
  6  7  1  0  0  0
  7  8  2  0  0  0
  8  9  1  0  0  0
  9 10  1  0  0  0
 10  1  1  0  0  0
  1  2  1  0  0  0
  2  3  2  0  0  0
  2 17  1  0  0  0
 17 18  2  0  0  0
 18 19  1  0  0  0
 19 20  1  0  0  0
 20 21  2  0  0  0
 20 22  1  0  0  0
 22 23  2  0  0  0
 23 24  1  0  0  0
 24 25  2  0  0  0
 25 26  1  0  0  0
 26 27  1  0  0  0
 27 28  1  0  0  0
 28 29  1  0  0  0
 29 30  2  0  0  0
 10 11  2  0  0  0
 11 12  1  0  0  0
 12 13  2  0  0  0
 13  5  1  0  0  0
 12  8  1  0  0  0
 21 17  1  0  0  0
 30 22  1  0  0  0
 29 25  1  0  0  0
  9 14  1  0  0  0
  1  4  1  0  0  0
M  END
> <minimizedAffinity>
-9.18734

> <CNNscore>
0.3372808099

> <CNNaffinity>
6.5718398094

> <CNN_VS>
2.2165553570

> <CNNaffinity_variance>
0.3927682638

$$$$
[H]c1sc(-c2c([H])c([H])c3c(c2[H])C([H])([H])C([H])([H])O3)nc1C(=O)N([H])c1nc2c([H])c(OC([H])([H])[H])c([H])c([H])c2n1[H]


 30 34  0  0  0  0  0  0  0  0999 V2000
  -86.1026   33.8620   -1.3567 N   0  0  0  0  0  0  0  0  0  0  0  0
  -86.9605   33.8938   -2.4169 C   0  0  0  0  0  0  0  0  0  0  0  0
  -87.2335   35.1100   -2.8651 O   0  0  0  0  0  0  0  0  0  0  0  0
  -85.7978   34.9035   -1.0319 H   0  0  0  0  0  0  0  0  0  0  0  0
  -84.1497   29.4284    2.0341 C   0  0  0  0  0  0  0  0  0  0  0  0
  -82.9138   29.9063    1.6515 C   0  0  0  0  0  0  0  0  0  0  0  0
  -82.7796   30.9794    0.8067 C   0  0  0  0  0  0  0  0  0  0  0  0
  -83.9254   31.5921    0.3311 C   0  0  0  0  0  0  0  0  0  0  0  0
  -84.0999   32.6681   -0.5136 N   0  0  0  0  0  0  0  0  0  0  0  0
  -85.4017   32.8593   -0.6586 C   0  0  0  0  0  0  0  0  0  0  0  0
  -86.0586   31.9036    0.0973 N   0  0  0  0  0  0  0  0  0  0  0  0
  -85.1558   31.1328    0.6991 C   0  0  0  0  0  0  0  0  0  0  0  0
  -85.2903   30.0363    1.5621 C   0  0  0  0  0  0  0  0  0  0  0  0
  -83.2854   33.1751   -0.8847 H   0  0  0  0  0  0  0  0  0  0  0  0
  -83.2180   27.3766    2.8972 C   0  0  0  0  0  0  0  0  0  0  0  0
  -84.2591   28.3314    2.8975 O   0  0  0  0  0  0  0  0  0  0  0  0
  -87.6468   32.8185   -3.1602 C   0  0  0  0  0  0  0  0  0  0  0  0
  -87.8991   32.9023   -4.5064 C   0  0  0  0  0  0  0  0  0  0  0  0
  -88.7163   31.4403   -4.8177 S   0  0  0  0  0  0  0  0  0  0  0  0
  -88.6949   30.8033   -3.2338 C   0  0  0  0  0  0  0  0  0  0  0  0
  -88.0692   31.7337   -2.5546 N   0  0  0  0  0  0  0  0  0  0  0  0
  -89.2499   29.5139   -2.7407 C   0  0  0  0  0  0  0  0  0  0  0  0
  -90.5569   29.1932   -2.9228 C   0  0  0  0  0  0  0  0  0  0  0  0
  -91.0334   27.9911   -2.4524 C   0  0  0  0  0  0  0  0  0  0  0  0
  -90.1957   27.0877   -1.7873 C   0  0  0  0  0  0  0  0  0  0  0  0
  -90.3927   25.8262   -1.2148 O   0  0  0  0  0  0  0  0  0  0  0  0
  -89.1490   25.1523   -1.1901 C   0  0  0  0  0  0  0  0  0  0  0  0
  -88.1934   26.3124   -0.8825 C   0  0  0  0  0  0  0  0  0  0  0  0
  -88.8691   27.4174   -1.6047 C   0  0  0  0  0  0  0  0  0  0  0  0
  -88.4205   28.6305   -2.0877 C   0  0  0  0  0  0  0  0  0  0  0  0
 15 16  1  0  0  0
 16  5  1  0  0  0
  5  6  2  0  0  0
  6  7  1  0  0  0
  7  8  2  0  0  0
  8  9  1  0  0  0
  9 10  1  0  0  0
 10  1  1  0  0  0
  1  2  1  0  0  0
  2  3  2  0  0  0
  2 17  1  0  0  0
 17 18  2  0  0  0
 18 19  1  0  0  0
 19 20  1  0  0  0
 20 21  2  0  0  0
 20 22  1  0  0  0
 22 23  2  0  0  0
 23 24  1  0  0  0
 24 25  2  0  0  0
 25 26  1  0  0  0
 26 27  1  0  0  0
 27 28  1  0  0  0
 28 29  1  0  0  0
 29 30  2  0  0  0
 10 11  2  0  0  0
 11 12  1  0  0  0
 12 13  2  0  0  0
 13  5  1  0  0  0
 12  8  1  0  0  0
 21 17  1  0  0  0
 30 22  1  0  0  0
 29 25  1  0  0  0
  9 14  1  0  0  0
  1  4  1  0  0  0
M  END
> <minimizedAffinity>
-8.84075

> <CNNscore>
0.3248566389

> <CNNaffinity>
6.7993440628

> <CNN_VS>
2.2088119984

> <CNNaffinity_variance>
0.2351797819

$$$$
[H]c1sc(-c2c([H])c([H])c3c(c2[H])C([H])([H])C([H])([H])O3)nc1C(=O)N([H])c1nc(SC([H])([H])C([H])(C([H])([H])[H])C([H])([H])[H])nn1[H]


 29 32  0  0  0  0  0  0  0  0999 V2000
  -86.9535   34.6611   -3.8428 N   0  0  0  0  0  0  0  0  0  0  0  0
  -88.0551   34.2962   -3.0358 C   0  0  0  0  0  0  0  0  0  0  0  0
  -89.1363   34.8899   -3.1676 O   0  0  0  0  0  0  0  0  0  0  0  0
  -86.0529   34.1230   -3.6894 H   0  0  0  0  0  0  0  0  0  0  0  0
  -86.5856   37.5633   -5.8408 C   0  0  0  0  0  0  0  0  0  0  0  0
  -87.4295   36.8213   -6.5694 N   0  0  0  0  0  0  0  0  0  0  0  0
  -87.6903   35.6723   -5.9714 N   0  0  0  0  0  0  0  0  0  0  0  0
  -86.9914   35.6735   -4.8184 C   0  0  0  0  0  0  0  0  0  0  0  0
  -86.3162   36.8339   -4.7434 N   0  0  0  0  0  0  0  0  0  0  0  0
  -88.3225   34.8876   -6.3127 H   0  0  0  0  0  0  0  0  0  0  0  0
  -85.9221   39.1807   -6.1829 S   0  0  0  0  0  0  0  0  0  0  0  0
  -84.4088   39.0979   -7.1430 C   0  0  0  0  0  0  0  0  0  0  0  0
  -81.9263   39.0097   -6.9432 C   0  0  0  0  0  0  0  0  0  0  0  0
  -83.2021   39.5057   -6.3118 C   0  0  0  0  0  0  0  0  0  0  0  0
  -83.3412   38.9623   -4.9254 C   0  0  0  0  0  0  0  0  0  0  0  0
  -87.9520   33.2134   -2.0284 C   0  0  0  0  0  0  0  0  0  0  0  0
  -89.0650   32.5409   -1.5778 C   0  0  0  0  0  0  0  0  0  0  0  0
  -88.3798   31.4335   -0.4706 S   0  0  0  0  0  0  0  0  0  0  0  0
  -86.7278   31.8945   -0.6501 C   0  0  0  0  0  0  0  0  0  0  0  0
  -86.8061   32.8482   -1.5294 N   0  0  0  0  0  0  0  0  0  0  0  0
  -85.5656   31.3104    0.0441 C   0  0  0  0  0  0  0  0  0  0  0  0
  -84.3320   31.8264   -0.1772 C   0  0  0  0  0  0  0  0  0  0  0  0
  -83.2015   31.2956    0.4599 C   0  0  0  0  0  0  0  0  0  0  0  0
  -83.3528   30.2256    1.3298 C   0  0  0  0  0  0  0  0  0  0  0  0
  -82.4502   29.4804    2.1075 O   0  0  0  0  0  0  0  0  0  0  0  0
  -83.0179   28.1947    2.3246 C   0  0  0  0  0  0  0  0  0  0  0  0
  -84.4776   28.5703    2.5200 C   0  0  0  0  0  0  0  0  0  0  0  0
  -84.6048   29.6958    1.5593 C   0  0  0  0  0  0  0  0  0  0  0  0
  -85.7107   30.2518    0.9053 C   0  0  0  0  0  0  0  0  0  0  0  0
 13 14  1  0  0  0
 14 15  1  0  0  0
 14 12  1  0  0  0
 12 11  1  0  0  0
 11  5  1  0  0  0
  5  6  2  0  0  0
  6  7  1  0  0  0
  7  8  1  0  0  0
  8  1  1  0  0  0
  1  2  1  0  0  0
  2  3  2  0  0  0
  2 16  1  0  0  0
 16 17  2  0  0  0
 17 18  1  0  0  0
 18 19  1  0  0  0
 19 20  2  0  0  0
 19 21  1  0  0  0
 21 22  2  0  0  0
 22 23  1  0  0  0
 23 24  2  0  0  0
 24 25  1  0  0  0
 25 26  1  0  0  0
 26 27  1  0  0  0
 27 28  1  0  0  0
 28 29  2  0  0  0
  8  9  2  0  0  0
  9  5  1  0  0  0
 20 16  1  0  0  0
 29 21  1  0  0  0
 28 24  1  0  0  0
  7 10  1  0  0  0
  1  4  1  0  0  0
M  END
> <minimizedAffinity>
-8.18445

> <CNNscore>
0.3258298337

> <CNNaffinity>
6.1732029915

> <CNN_VS>
2.0114138126

> <CNNaffinity_variance>
0.0666344315

$$$$
[H]c1sc(-c2c([H])c([H])c3c(c2[H])C([H])([H])C([H])([H])O3)nc1C(=O)N([H])c1nc(SC([H])([H])C([H])(C([H])([H])[H])C([H])([H])[H])nn1[H]


 29 32  0  0  0  0  0  0  0  0999 V2000
  -87.1138   32.6553   -1.8709 N   0  0  0  0  0  0  0  0  0  0  0  0
  -86.1449   32.6172   -0.8426 C   0  0  0  0  0  0  0  0  0  0  0  0
  -85.4064   33.5967   -0.6579 O   0  0  0  0  0  0  0  0  0  0  0  0
  -87.7182   31.7919   -1.9869 H   0  0  0  0  0  0  0  0  0  0  0  0
  -88.3272   35.3685   -3.7988 C   0  0  0  0  0  0  0  0  0  0  0  0
  -87.0269   35.3513   -4.1185 N   0  0  0  0  0  0  0  0  0  0  0  0
  -86.3930   34.3832   -3.4806 N   0  0  0  0  0  0  0  0  0  0  0  0
  -87.3155   33.7549   -2.7243 C   0  0  0  0  0  0  0  0  0  0  0  0
  -88.4986   34.3625   -2.9226 N   0  0  0  0  0  0  0  0  0  0  0  0
  -85.3609   34.1310   -3.5369 H   0  0  0  0  0  0  0  0  0  0  0  0
  -89.6160   36.4557   -4.3735 S   0  0  0  0  0  0  0  0  0  0  0  0
  -88.9853   37.7230   -5.4757 C   0  0  0  0  0  0  0  0  0  0  0  0
  -89.6552   35.9371   -7.0794 C   0  0  0  0  0  0  0  0  0  0  0  0
  -88.8627   37.2070   -6.9011 C   0  0  0  0  0  0  0  0  0  0  0  0
  -87.4223   36.9706   -7.2269 C   0  0  0  0  0  0  0  0  0  0  0  0
  -85.9870   31.4282    0.0289 C   0  0  0  0  0  0  0  0  0  0  0  0
  -84.9511   31.3281    0.9295 C   0  0  0  0  0  0  0  0  0  0  0  0
  -85.2558   29.8059    1.6449 S   0  0  0  0  0  0  0  0  0  0  0  0
  -86.6757   29.3949    0.7566 C   0  0  0  0  0  0  0  0  0  0  0  0
  -86.8218   30.4299   -0.0156 N   0  0  0  0  0  0  0  0  0  0  0  0
  -87.4786   28.1656    0.8906 C   0  0  0  0  0  0  0  0  0  0  0  0
  -87.6697   27.6285    2.1203 C   0  0  0  0  0  0  0  0  0  0  0  0
  -88.4227   26.4579    2.2886 C   0  0  0  0  0  0  0  0  0  0  0  0
  -88.9791   25.8433    1.1762 C   0  0  0  0  0  0  0  0  0  0  0  0
  -89.7654   24.6914    1.0036 O   0  0  0  0  0  0  0  0  0  0  0  0
  -89.5588   24.2153   -0.3203 C   0  0  0  0  0  0  0  0  0  0  0  0
  -89.4840   25.5323   -1.0754 C   0  0  0  0  0  0  0  0  0  0  0  0
  -88.7884   26.3844   -0.0774 C   0  0  0  0  0  0  0  0  0  0  0  0
  -88.0306   27.5543   -0.2070 C   0  0  0  0  0  0  0  0  0  0  0  0
 13 14  1  0  0  0
 14 15  1  0  0  0
 14 12  1  0  0  0
 12 11  1  0  0  0
 11  5  1  0  0  0
  5  6  2  0  0  0
  6  7  1  0  0  0
  7  8  1  0  0  0
  8  1  1  0  0  0
  1  2  1  0  0  0
  2  3  2  0  0  0
  2 16  1  0  0  0
 16 17  2  0  0  0
 17 18  1  0  0  0
 18 19  1  0  0  0
 19 20  2  0  0  0
 19 21  1  0  0  0
 21 22  2  0  0  0
 22 23  1  0  0  0
 23 24  2  0  0  0
 24 25  1  0  0  0
 25 26  1  0  0  0
 26 27  1  0  0  0
 27 28  1  0  0  0
 28 29  2  0  0  0
  8  9  2  0  0  0
  9  5  1  0  0  0
 20 16  1  0  0  0
 29 21  1  0  0  0
 28 24  1  0  0  0
  7 10  1  0  0  0
  1  4  1  0  0  0
M  END
> <minimizedAffinity>
-7.07773

> <CNNscore>
0.1157656237

> <CNNaffinity>
6.0893421173

> <CNN_VS>
0.7049365044

> <CNNaffinity_variance>
0.1534779221

$$$$
[H]c1sc(-c2c([H])c([H])c3c(c2[H])C([H])([H])C([H])([H])O3)nc1C(=O)N([H])c1nc(SC([H])([H])C([H])(C([H])([H])[H])C([H])([H])[H])nn1[H]


 29 32  0  0  0  0  0  0  0  0999 V2000
  -89.4933   26.8938    1.2385 N   0  0  0  0  0  0  0  0  0  0  0  0
  -90.3811   27.9323    0.8761 C   0  0  0  0  0  0  0  0  0  0  0  0
  -91.5422   27.9281    1.3129 O   0  0  0  0  0  0  0  0  0  0  0  0
  -88.5133   26.9446    0.8371 H   0  0  0  0  0  0  0  0  0  0  0  0
  -89.6557   24.2791    3.6233 C   0  0  0  0  0  0  0  0  0  0  0  0
  -90.8799   24.2464    3.0813 N   0  0  0  0  0  0  0  0  0  0  0  0
  -91.0122   25.1733    2.1489 N   0  0  0  0  0  0  0  0  0  0  0  0
  -89.8338   25.8254    2.0874 C   0  0  0  0  0  0  0  0  0  0  0  0
  -89.0064   25.2740    2.9927 N   0  0  0  0  0  0  0  0  0  0  0  0
  -91.8683   25.3818    1.5527 H   0  0  0  0  0  0  0  0  0  0  0  0
  -88.9611   23.2539    4.9038 S   0  0  0  0  0  0  0  0  0  0  0  0
  -87.8014   24.1563    5.9332 C   0  0  0  0  0  0  0  0  0  0  0  0
  -86.1444   23.8599    7.7709 C   0  0  0  0  0  0  0  0  0  0  0  0
  -87.4449   23.3710    7.1859 C   0  0  0  0  0  0  0  0  0  0  0  0
  -87.3514   21.9153    6.8558 C   0  0  0  0  0  0  0  0  0  0  0  0
  -89.9577   29.0359   -0.0188 C   0  0  0  0  0  0  0  0  0  0  0  0
  -90.7484   29.4604   -1.0622 C   0  0  0  0  0  0  0  0  0  0  0  0
  -89.8015   30.7173   -1.7295 S   0  0  0  0  0  0  0  0  0  0  0  0
  -88.4652   30.6234   -0.6435 C   0  0  0  0  0  0  0  0  0  0  0  0
  -88.8235   29.6543    0.1447 N   0  0  0  0  0  0  0  0  0  0  0  0
  -87.2538   31.4637   -0.6563 C   0  0  0  0  0  0  0  0  0  0  0  0
  -87.2476   32.6083   -1.3821 C   0  0  0  0  0  0  0  0  0  0  0  0
  -86.1136   33.4317   -1.4236 C   0  0  0  0  0  0  0  0  0  0  0  0
  -84.9825   33.0652   -0.7090 C   0  0  0  0  0  0  0  0  0  0  0  0
  -83.7157   33.6503   -0.5424 O   0  0  0  0  0  0  0  0  0  0  0  0
  -82.7946   32.6154   -0.2217 C   0  0  0  0  0  0  0  0  0  0  0  0
  -83.6573   31.7542    0.6862 C   0  0  0  0  0  0  0  0  0  0  0  0
  -84.9820   31.9021    0.0312 C   0  0  0  0  0  0  0  0  0  0  0  0
  -86.1326   31.1048    0.0491 C   0  0  0  0  0  0  0  0  0  0  0  0
 13 14  1  0  0  0
 14 15  1  0  0  0
 14 12  1  0  0  0
 12 11  1  0  0  0
 11  5  1  0  0  0
  5  6  2  0  0  0
  6  7  1  0  0  0
  7  8  1  0  0  0
  8  1  1  0  0  0
  1  2  1  0  0  0
  2  3  2  0  0  0
  2 16  1  0  0  0
 16 17  2  0  0  0
 17 18  1  0  0  0
 18 19  1  0  0  0
 19 20  2  0  0  0
 19 21  1  0  0  0
 21 22  2  0  0  0
 22 23  1  0  0  0
 23 24  2  0  0  0
 24 25  1  0  0  0
 25 26  1  0  0  0
 26 27  1  0  0  0
 27 28  1  0  0  0
 28 29  2  0  0  0
  8  9  2  0  0  0
  9  5  1  0  0  0
 20 16  1  0  0  0
 29 21  1  0  0  0
 28 24  1  0  0  0
  7 10  1  0  0  0
  1  4  1  0  0  0
M  END
> <minimizedAffinity>
-7.11417

> <CNNscore>
0.0993151888

> <CNNaffinity>
6.0137000084

> <CNN_VS>
0.5972517729

> <CNNaffinity_variance>
0.1095550060

$$$$
[H]c1sc(-c2c([H])c([H])c3c(c2[H])C([H])([H])C([H])([H])O3)nc1C(=O)N([H])c1nc(SC([H])([H])C([H])(C([H])([H])[H])C([H])([H])[H])nn1[H]


 29 32  0  0  0  0  0  0  0  0999 V2000
  -87.8253   26.3228    1.0417 N   0  0  0  0  0  0  0  0  0  0  0  0
  -88.1238   26.2222   -0.3362 C   0  0  0  0  0  0  0  0  0  0  0  0
  -87.3992   26.7942   -1.1649 O   0  0  0  0  0  0  0  0  0  0  0  0
  -88.4766   25.8160    1.7074 H   0  0  0  0  0  0  0  0  0  0  0  0
  -85.5059   28.7179    2.2390 C   0  0  0  0  0  0  0  0  0  0  0  0
  -84.8298   27.5708    2.3820 N   0  0  0  0  0  0  0  0  0  0  0  0
  -85.5515   26.5399    1.9790 N   0  0  0  0  0  0  0  0  0  0  0  0
  -86.7324   27.0391    1.5618 C   0  0  0  0  0  0  0  0  0  0  0  0
  -86.6994   28.3736    1.7235 N   0  0  0  0  0  0  0  0  0  0  0  0
  -85.2763   25.5122    1.9751 H   0  0  0  0  0  0  0  0  0  0  0  0
  -84.9979   30.3819    2.6215 S   0  0  0  0  0  0  0  0  0  0  0  0
  -83.7209   30.9688    1.5064 C   0  0  0  0  0  0  0  0  0  0  0  0
  -85.5198   31.7738   -0.0188 C   0  0  0  0  0  0  0  0  0  0  0  0
  -84.2181   32.1266    0.6547 C   0  0  0  0  0  0  0  0  0  0  0  0
  -83.1836   32.4788   -0.3663 C   0  0  0  0  0  0  0  0  0  0  0  0
  -89.2890   25.4445   -0.8214 C   0  0  0  0  0  0  0  0  0  0  0  0
  -89.6260   24.2309   -0.2666 C   0  0  0  0  0  0  0  0  0  0  0  0
  -91.0070   23.8015   -1.1778 S   0  0  0  0  0  0  0  0  0  0  0  0
  -91.0678   25.1871   -2.2026 C   0  0  0  0  0  0  0  0  0  0  0  0
  -90.0463   25.8758   -1.7888 N   0  0  0  0  0  0  0  0  0  0  0  0
  -92.0584   25.4637   -3.2590 C   0  0  0  0  0  0  0  0  0  0  0  0
  -92.9578   24.5062   -3.5926 C   0  0  0  0  0  0  0  0  0  0  0  0
  -93.9123   24.7290   -4.5951 C   0  0  0  0  0  0  0  0  0  0  0  0
  -93.9327   25.9501   -5.2531 C   0  0  0  0  0  0  0  0  0  0  0  0
  -94.7365   26.4803   -6.2767 O   0  0  0  0  0  0  0  0  0  0  0  0
  -93.9838   27.4820   -6.9493 C   0  0  0  0  0  0  0  0  0  0  0  0
  -93.2644   28.1194   -5.7718 C   0  0  0  0  0  0  0  0  0  0  0  0
  -93.0206   26.9283   -4.9188 C   0  0  0  0  0  0  0  0  0  0  0  0
  -92.0821   26.6702   -3.9126 C   0  0  0  0  0  0  0  0  0  0  0  0
 13 14  1  0  0  0
 14 15  1  0  0  0
 14 12  1  0  0  0
 12 11  1  0  0  0
 11  5  1  0  0  0
  5  6  2  0  0  0
  6  7  1  0  0  0
  7  8  1  0  0  0
  8  1  1  0  0  0
  1  2  1  0  0  0
  2  3  2  0  0  0
  2 16  1  0  0  0
 16 17  2  0  0  0
 17 18  1  0  0  0
 18 19  1  0  0  0
 19 20  2  0  0  0
 19 21  1  0  0  0
 21 22  2  0  0  0
 22 23  1  0  0  0
 23 24  2  0  0  0
 24 25  1  0  0  0
 25 26  1  0  0  0
 26 27  1  0  0  0
 27 28  1  0  0  0
 28 29  2  0  0  0
  8  9  2  0  0  0
  9  5  1  0  0  0
 20 16  1  0  0  0
 29 21  1  0  0  0
 28 24  1  0  0  0
  7 10  1  0  0  0
  1  4  1  0  0  0
M  END
> <minimizedAffinity>
-6.82830

> <CNNscore>
0.0925638676

> <CNNaffinity>
5.7328748703

> <CNN_VS>
0.5306570530

> <CNNaffinity_variance>
0.0693198591

$$$$
[H]c1sc(-c2c([H])c([H])c3c(c2[H])C([H])([H])C([H])([H])O3)nc1C(=O)N([H])c1nc(SC([H])([H])C([H])(C([H])([H])[H])C([H])([H])[H])nn1[H]


 29 32  0  0  0  0  0  0  0  0999 V2000
  -87.9582   32.1763   -3.1857 N   0  0  0  0  0  0  0  0  0  0  0  0
  -87.9554   30.8855   -3.7617 C   0  0  0  0  0  0  0  0  0  0  0  0
  -87.8326   30.7613   -4.9898 O   0  0  0  0  0  0  0  0  0  0  0  0
  -88.0669   32.2265   -2.1322 H   0  0  0  0  0  0  0  0  0  0  0  0
  -88.2691   34.9817   -5.3266 C   0  0  0  0  0  0  0  0  0  0  0  0
  -87.0934   35.2099   -4.7272 N   0  0  0  0  0  0  0  0  0  0  0  0
  -86.8011   34.2469   -3.8710 N   0  0  0  0  0  0  0  0  0  0  0  0
  -87.8223   33.3681   -3.9201 C   0  0  0  0  0  0  0  0  0  0  0  0
  -88.7190   33.8229   -4.8130 N   0  0  0  0  0  0  0  0  0  0  0  0
  -85.9379   34.1611   -3.2551 H   0  0  0  0  0  0  0  0  0  0  0  0
  -89.1171   35.9545   -6.5545 S   0  0  0  0  0  0  0  0  0  0  0  0
  -90.8258   35.4455   -6.7538 C   0  0  0  0  0  0  0  0  0  0  0  0
  -91.1553   34.2666   -8.9245 C   0  0  0  0  0  0  0  0  0  0  0  0
  -91.2798   35.5820   -8.1989 C   0  0  0  0  0  0  0  0  0  0  0  0
  -90.4645   36.6323   -8.8838 C   0  0  0  0  0  0  0  0  0  0  0  0
  -88.0959   29.6662   -2.9301 C   0  0  0  0  0  0  0  0  0  0  0  0
  -87.2673   29.4268   -1.8576 C   0  0  0  0  0  0  0  0  0  0  0  0
  -87.8655   27.9332   -1.2803 S   0  0  0  0  0  0  0  0  0  0  0  0
  -89.1264   27.7089   -2.4351 C   0  0  0  0  0  0  0  0  0  0  0  0
  -89.0101   28.7716   -3.1739 N   0  0  0  0  0  0  0  0  0  0  0  0
  -90.0684   26.5771   -2.5081 C   0  0  0  0  0  0  0  0  0  0  0  0
  -91.1756   26.6839   -3.2826 C   0  0  0  0  0  0  0  0  0  0  0  0
  -92.0977   25.6317   -3.3744 C   0  0  0  0  0  0  0  0  0  0  0  0
  -91.8691   24.4650   -2.6596 C   0  0  0  0  0  0  0  0  0  0  0  0
  -92.5757   23.2566   -2.5350 O   0  0  0  0  0  0  0  0  0  0  0  0
  -92.2325   22.6764   -1.2829 C   0  0  0  0  0  0  0  0  0  0  0  0
  -90.7515   23.0128   -1.2230 C   0  0  0  0  0  0  0  0  0  0  0  0
  -90.7450   24.3498   -1.8699 C   0  0  0  0  0  0  0  0  0  0  0  0
  -89.8463   25.4211   -1.8026 C   0  0  0  0  0  0  0  0  0  0  0  0
 13 14  1  0  0  0
 14 15  1  0  0  0
 14 12  1  0  0  0
 12 11  1  0  0  0
 11  5  1  0  0  0
  5  6  2  0  0  0
  6  7  1  0  0  0
  7  8  1  0  0  0
  8  1  1  0  0  0
  1  2  1  0  0  0
  2  3  2  0  0  0
  2 16  1  0  0  0
 16 17  2  0  0  0
 17 18  1  0  0  0
 18 19  1  0  0  0
 19 20  2  0  0  0
 19 21  1  0  0  0
 21 22  2  0  0  0
 22 23  1  0  0  0
 23 24  2  0  0  0
 24 25  1  0  0  0
 25 26  1  0  0  0
 26 27  1  0  0  0
 27 28  1  0  0  0
 28 29  2  0  0  0
  8  9  2  0  0  0
  9  5  1  0  0  0
 20 16  1  0  0  0
 29 21  1  0  0  0
 28 24  1  0  0  0
  7 10  1  0  0  0
  1  4  1  0  0  0
M  END
> <minimizedAffinity>
-6.97416

> <CNNscore>
0.0888259783

> <CNNaffinity>
5.2362203598

> <CNN_VS>
0.4651123881

> <CNNaffinity_variance>
0.1198020428

$$$$
[H]c1sc(-c2c([H])c([H])c3c(c2[H])C([H])([H])C([H])([H])O3)nc1C(=O)N([H])c1nc(SC([H])([H])C([H])(C([H])([H])[H])C([H])([H])[H])nn1[H]


 29 32  0  0  0  0  0  0  0  0999 V2000
  -88.8807   34.3110   -3.4867 N   0  0  0  0  0  0  0  0  0  0  0  0
  -88.0465   33.1769   -3.3612 C   0  0  0  0  0  0  0  0  0  0  0  0
  -88.0364   32.3196   -4.2578 O   0  0  0  0  0  0  0  0  0  0  0  0
  -88.8521   35.0125   -2.6922 H   0  0  0  0  0  0  0  0  0  0  0  0
  -91.5455   34.8246   -5.7639 C   0  0  0  0  0  0  0  0  0  0  0  0
  -90.4694   34.9657   -6.5485 N   0  0  0  0  0  0  0  0  0  0  0  0
  -89.3537   34.8059   -5.8590 N   0  0  0  0  0  0  0  0  0  0  0  0
  -89.7226   34.5530   -4.5871 C   0  0  0  0  0  0  0  0  0  0  0  0
  -91.0662   34.5659   -4.5341 N   0  0  0  0  0  0  0  0  0  0  0  0
  -88.3527   34.8611   -6.2151 H   0  0  0  0  0  0  0  0  0  0  0  0
  -93.2724   34.9357   -6.1867 S   0  0  0  0  0  0  0  0  0  0  0  0
  -94.1958   33.5031   -5.6264 C   0  0  0  0  0  0  0  0  0  0  0  0
  -93.8090   31.1441   -6.3303 C   0  0  0  0  0  0  0  0  0  0  0  0
  -94.3665   32.4830   -6.7413 C   0  0  0  0  0  0  0  0  0  0  0  0
  -93.6834   32.9727   -7.9784 C   0  0  0  0  0  0  0  0  0  0  0  0
  -87.1755   32.9836   -2.1772 C   0  0  0  0  0  0  0  0  0  0  0  0
  -86.5454   34.0436   -1.5660 C   0  0  0  0  0  0  0  0  0  0  0  0
  -85.7076   33.2665   -0.2948 S   0  0  0  0  0  0  0  0  0  0  0  0
  -86.2096   31.6491   -0.6201 C   0  0  0  0  0  0  0  0  0  0  0  0
  -86.9717   31.8056   -1.6610 N   0  0  0  0  0  0  0  0  0  0  0  0
  -85.8371   30.4383    0.1342 C   0  0  0  0  0  0  0  0  0  0  0  0
  -86.7474   29.4460    0.2884 C   0  0  0  0  0  0  0  0  0  0  0  0
  -86.4331   28.2814    1.0029 C   0  0  0  0  0  0  0  0  0  0  0  0
  -85.1693   28.1469    1.5589 C   0  0  0  0  0  0  0  0  0  0  0  0
  -84.5504   27.1353    2.3130 O   0  0  0  0  0  0  0  0  0  0  0  0
  -83.5229   27.7362    3.0910 C   0  0  0  0  0  0  0  0  0  0  0  0
  -82.9859   28.7519    2.0959 C   0  0  0  0  0  0  0  0  0  0  0  0
  -84.2386   29.1525    1.4059 C   0  0  0  0  0  0  0  0  0  0  0  0
  -84.5881   30.3011    0.6860 C   0  0  0  0  0  0  0  0  0  0  0  0
 13 14  1  0  0  0
 14 15  1  0  0  0
 14 12  1  0  0  0
 12 11  1  0  0  0
 11  5  1  0  0  0
  5  6  2  0  0  0
  6  7  1  0  0  0
  7  8  1  0  0  0
  8  1  1  0  0  0
  1  2  1  0  0  0
  2  3  2  0  0  0
  2 16  1  0  0  0
 16 17  2  0  0  0
 17 18  1  0  0  0
 18 19  1  0  0  0
 19 20  2  0  0  0
 19 21  1  0  0  0
 21 22  2  0  0  0
 22 23  1  0  0  0
 23 24  2  0  0  0
 24 25  1  0  0  0
 25 26  1  0  0  0
 26 27  1  0  0  0
 27 28  1  0  0  0
 28 29  2  0  0  0
  8  9  2  0  0  0
  9  5  1  0  0  0
 20 16  1  0  0  0
 29 21  1  0  0  0
 28 24  1  0  0  0
  7 10  1  0  0  0
  1  4  1  0  0  0
M  END
> <minimizedAffinity>
-6.46152

> <CNNscore>
0.0814745501

> <CNNaffinity>
5.8785777092

> <CNN_VS>
0.4789544642

> <CNNaffinity_variance>
0.4572073817

$$$$
[H]c1sc(-c2c([H])c([H])c3c(c2[H])C([H])([H])C([H])([H])O3)nc1C(=O)N([H])c1nc(SC([H])([H])C([H])(C([H])([H])[H])C([H])([H])[H])nn1[H]


 29 32  0  0  0  0  0  0  0  0999 V2000
  -88.2207   31.8217   -1.5817 N   0  0  0  0  0  0  0  0  0  0  0  0
  -88.4751   31.6922   -2.9660 C   0  0  0  0  0  0  0  0  0  0  0  0
  -87.5691   31.9236   -3.7812 O   0  0  0  0  0  0  0  0  0  0  0  0
  -89.0293   31.6131   -0.9282 H   0  0  0  0  0  0  0  0  0  0  0  0
  -85.1835   32.1709    0.2082 C   0  0  0  0  0  0  0  0  0  0  0  0
  -85.1524   33.2275   -0.6141 N   0  0  0  0  0  0  0  0  0  0  0  0
  -86.2285   33.2662   -1.3798 N   0  0  0  0  0  0  0  0  0  0  0  0
  -86.9789   32.1989   -1.0397 C   0  0  0  0  0  0  0  0  0  0  0  0
  -86.3342   31.5311   -0.0668 N   0  0  0  0  0  0  0  0  0  0  0  0
  -86.4751   33.9862   -2.1232 H   0  0  0  0  0  0  0  0  0  0  0  0
  -83.9962   31.6600    1.4339 S   0  0  0  0  0  0  0  0  0  0  0  0
  -83.4664   29.9631    1.1914 C   0  0  0  0  0  0  0  0  0  0  0  0
  -82.8107   27.9221    2.4620 C   0  0  0  0  0  0  0  0  0  0  0  0
  -83.7267   29.1189    2.4293 C   0  0  0  0  0  0  0  0  0  0  0  0
  -85.1563   28.6796    2.4454 C   0  0  0  0  0  0  0  0  0  0  0  0
  -89.8066   31.2832   -3.4737 C   0  0  0  0  0  0  0  0  0  0  0  0
  -90.7093   32.2055   -3.9519 C   0  0  0  0  0  0  0  0  0  0  0  0
  -92.0256   31.2091   -4.3950 S   0  0  0  0  0  0  0  0  0  0  0  0
  -91.3471   29.6887   -3.9456 C   0  0  0  0  0  0  0  0  0  0  0  0
  -90.1789   30.0356   -3.4940 N   0  0  0  0  0  0  0  0  0  0  0  0
  -91.9819   28.3641   -4.0726 C   0  0  0  0  0  0  0  0  0  0  0  0
  -91.5694   27.3508   -3.2726 C   0  0  0  0  0  0  0  0  0  0  0  0
  -92.1447   26.0758   -3.3663 C   0  0  0  0  0  0  0  0  0  0  0  0
  -93.1518   25.8524   -4.2940 C   0  0  0  0  0  0  0  0  0  0  0  0
  -93.9165   24.7233   -4.6336 O   0  0  0  0  0  0  0  0  0  0  0  0
  -94.3502   24.8776   -5.9792 C   0  0  0  0  0  0  0  0  0  0  0  0
  -94.6503   26.3674   -6.0000 C   0  0  0  0  0  0  0  0  0  0  0  0
  -93.5760   26.8786   -5.1109 C   0  0  0  0  0  0  0  0  0  0  0  0
  -92.9784   28.1387   -4.9890 C   0  0  0  0  0  0  0  0  0  0  0  0
 13 14  1  0  0  0
 14 15  1  0  0  0
 14 12  1  0  0  0
 12 11  1  0  0  0
 11  5  1  0  0  0
  5  6  2  0  0  0
  6  7  1  0  0  0
  7  8  1  0  0  0
  8  1  1  0  0  0
  1  2  1  0  0  0
  2  3  2  0  0  0
  2 16  1  0  0  0
 16 17  2  0  0  0
 17 18  1  0  0  0
 18 19  1  0  0  0
 19 20  2  0  0  0
 19 21  1  0  0  0
 21 22  2  0  0  0
 22 23  1  0  0  0
 23 24  2  0  0  0
 24 25  1  0  0  0
 25 26  1  0  0  0
 26 27  1  0  0  0
 27 28  1  0  0  0
 28 29  2  0  0  0
  8  9  2  0  0  0
  9  5  1  0  0  0
 20 16  1  0  0  0
 29 21  1  0  0  0
 28 24  1  0  0  0
  7 10  1  0  0  0
  1  4  1  0  0  0
M  END
> <minimizedAffinity>
-6.92046

> <CNNscore>
0.0648874789

> <CNNaffinity>
5.6588873863

> <CNN_VS>
0.3671909273

> <CNNaffinity_variance>
0.3039897382

$$$$
[H]c1sc(-c2c([H])c([H])c3c(c2[H])C([H])([H])C([H])([H])O3)nc1C(=O)N([H])c1nc(SC([H])([H])C([H])(C([H])([H])[H])C([H])([H])[H])nn1[H]


 29 32  0  0  0  0  0  0  0  0999 V2000
  -87.9245   32.1546   -3.2445 N   0  0  0  0  0  0  0  0  0  0  0  0
  -87.9769   31.8289   -1.8701 C   0  0  0  0  0  0  0  0  0  0  0  0
  -87.8620   32.7264   -1.0215 O   0  0  0  0  0  0  0  0  0  0  0  0
  -88.0270   31.3505   -3.9279 H   0  0  0  0  0  0  0  0  0  0  0  0
  -88.1875   35.3585   -4.7332 C   0  0  0  0  0  0  0  0  0  0  0  0
  -86.9381   35.3704   -4.2512 N   0  0  0  0  0  0  0  0  0  0  0  0
  -86.6512   34.2317   -3.6453 N   0  0  0  0  0  0  0  0  0  0  0  0
  -87.7525   33.4597   -3.7399 C   0  0  0  0  0  0  0  0  0  0  0  0
  -88.6907   34.1547   -4.4070 N   0  0  0  0  0  0  0  0  0  0  0  0
  -85.7398   33.9566   -3.1704 H   0  0  0  0  0  0  0  0  0  0  0  0
  -89.0629   36.6248   -5.6296 S   0  0  0  0  0  0  0  0  0  0  0  0
  -89.1647   36.2596   -7.3832 C   0  0  0  0  0  0  0  0  0  0  0  0
  -90.9083   34.5336   -7.8199 C   0  0  0  0  0  0  0  0  0  0  0  0
  -90.6014   36.0095   -7.8147 C   0  0  0  0  0  0  0  0  0  0  0  0
  -90.8256   36.5915   -9.1740 C   0  0  0  0  0  0  0  0  0  0  0  0
  -88.1678   30.4318   -1.4122 C   0  0  0  0  0  0  0  0  0  0  0  0
  -87.7282   29.3628   -2.1592 C   0  0  0  0  0  0  0  0  0  0  0  0
  -88.1915   28.0393   -1.1818 S   0  0  0  0  0  0  0  0  0  0  0  0
  -88.9123   28.9260    0.1097 C   0  0  0  0  0  0  0  0  0  0  0  0
  -88.7546   30.1546   -0.2833 N   0  0  0  0  0  0  0  0  0  0  0  0
  -89.5296   28.3706    1.3280 C   0  0  0  0  0  0  0  0  0  0  0  0
  -90.6089   28.9891    1.8663 C   0  0  0  0  0  0  0  0  0  0  0  0
  -91.2211   28.4948    3.0267 C   0  0  0  0  0  0  0  0  0  0  0  0
  -90.7108   27.3545    3.6299 C   0  0  0  0  0  0  0  0  0  0  0  0
  -91.0789   26.6200    4.7700 O   0  0  0  0  0  0  0  0  0  0  0  0
  -89.9232   25.9410    5.2448 C   0  0  0  0  0  0  0  0  0  0  0  0
  -89.2810   25.5409    3.9266 C   0  0  0  0  0  0  0  0  0  0  0  0
  -89.6132   26.7206    3.0876 C   0  0  0  0  0  0  0  0  0  0  0  0
  -89.0281   27.2429    1.9280 C   0  0  0  0  0  0  0  0  0  0  0  0
 13 14  1  0  0  0
 14 15  1  0  0  0
 14 12  1  0  0  0
 12 11  1  0  0  0
 11  5  1  0  0  0
  5  6  2  0  0  0
  6  7  1  0  0  0
  7  8  1  0  0  0
  8  1  1  0  0  0
  1  2  1  0  0  0
  2  3  2  0  0  0
  2 16  1  0  0  0
 16 17  2  0  0  0
 17 18  1  0  0  0
 18 19  1  0  0  0
 19 20  2  0  0  0
 19 21  1  0  0  0
 21 22  2  0  0  0
 22 23  1  0  0  0
 23 24  2  0  0  0
 24 25  1  0  0  0
 25 26  1  0  0  0
 26 27  1  0  0  0
 27 28  1  0  0  0
 28 29  2  0  0  0
  8  9  2  0  0  0
  9  5  1  0  0  0
 20 16  1  0  0  0
 29 21  1  0  0  0
 28 24  1  0  0  0
  7 10  1  0  0  0
  1  4  1  0  0  0
M  END
> <minimizedAffinity>
-6.73993

> <CNNscore>
0.0512502268

> <CNNaffinity>
5.4609804153

> <CNN_VS>
0.2798764706

> <CNNaffinity_variance>
0.0652854741

$$$$
[H]c1sc(-c2c([H])c([H])c3c(c2[H])C([H])([H])C([H])([H])O3)nc1C(=O)N([H])c1nc(SC([H])([H])C([H])(C([H])([H])[H])C([H])([H])[H])nn1[H]


 29 32  0  0  0  0  0  0  0  0999 V2000
  -87.5602   31.3985   -1.9926 N   0  0  0  0  0  0  0  0  0  0  0  0
  -88.4940   32.4393   -2.1991 C   0  0  0  0  0  0  0  0  0  0  0  0
  -89.5168   32.4946   -1.4992 O   0  0  0  0  0  0  0  0  0  0  0  0
  -86.7041   31.3970   -2.6181 H   0  0  0  0  0  0  0  0  0  0  0  0
  -87.1851   28.9377    0.5281 C   0  0  0  0  0  0  0  0  0  0  0  0
  -88.5025   28.9025    0.2899 N   0  0  0  0  0  0  0  0  0  0  0  0
  -88.8405   29.7743   -0.6439 N   0  0  0  0  0  0  0  0  0  0  0  0
  -87.7028   30.3921   -1.0205 C   0  0  0  0  0  0  0  0  0  0  0  0
  -86.6918   29.8762   -0.2994 N   0  0  0  0  0  0  0  0  0  0  0  0
  -89.8103   29.9675   -1.0361 H   0  0  0  0  0  0  0  0  0  0  0  0
  -86.2200   27.9750    1.6749 S   0  0  0  0  0  0  0  0  0  0  0  0
  -85.0838   28.9933    2.6187 C   0  0  0  0  0  0  0  0  0  0  0  0
  -82.6339   28.8911    2.1741 C   0  0  0  0  0  0  0  0  0  0  0  0
  -83.9444   29.5035    1.7501 C   0  0  0  0  0  0  0  0  0  0  0  0
  -83.8742   30.9948    1.8396 C   0  0  0  0  0  0  0  0  0  0  0  0
  -88.2814   33.4756   -3.2377 C   0  0  0  0  0  0  0  0  0  0  0  0
  -87.1078   34.1906   -3.3119 C   0  0  0  0  0  0  0  0  0  0  0  0
  -87.4015   35.2062   -4.6550 S   0  0  0  0  0  0  0  0  0  0  0  0
  -88.9921   34.6593   -5.0355 C   0  0  0  0  0  0  0  0  0  0  0  0
  -89.1917   33.7519   -4.1269 N   0  0  0  0  0  0  0  0  0  0  0  0
  -89.8536   35.1377   -6.1321 C   0  0  0  0  0  0  0  0  0  0  0  0
  -89.6768   36.3911   -6.6166 C   0  0  0  0  0  0  0  0  0  0  0  0
  -90.4790   36.8843   -7.6553 C   0  0  0  0  0  0  0  0  0  0  0  0
  -91.4679   36.0732   -8.1925 C   0  0  0  0  0  0  0  0  0  0  0  0
  -92.4172   36.2571   -9.2124 O   0  0  0  0  0  0  0  0  0  0  0  0
  -93.5101   35.3845   -8.9549 C   0  0  0  0  0  0  0  0  0  0  0  0
  -92.7673   34.1583   -8.4501 C   0  0  0  0  0  0  0  0  0  0  0  0
  -91.6532   34.7973   -7.7042 C   0  0  0  0  0  0  0  0  0  0  0  0
  -90.8332   34.3387   -6.6664 C   0  0  0  0  0  0  0  0  0  0  0  0
 13 14  1  0  0  0
 14 15  1  0  0  0
 14 12  1  0  0  0
 12 11  1  0  0  0
 11  5  1  0  0  0
  5  6  2  0  0  0
  6  7  1  0  0  0
  7  8  1  0  0  0
  8  1  1  0  0  0
  1  2  1  0  0  0
  2  3  2  0  0  0
  2 16  1  0  0  0
 16 17  2  0  0  0
 17 18  1  0  0  0
 18 19  1  0  0  0
 19 20  2  0  0  0
 19 21  1  0  0  0
 21 22  2  0  0  0
 22 23  1  0  0  0
 23 24  2  0  0  0
 24 25  1  0  0  0
 25 26  1  0  0  0
 26 27  1  0  0  0
 27 28  1  0  0  0
 28 29  2  0  0  0
  8  9  2  0  0  0
  9  5  1  0  0  0
 20 16  1  0  0  0
 29 21  1  0  0  0
 28 24  1  0  0  0
  7 10  1  0  0  0
  1  4  1  0  0  0
M  END
> <minimizedAffinity>
-6.59395

> <CNNscore>
0.0480906852

> <CNNaffinity>
5.4403181076

> <CNN_VS>
0.2616286278

> <CNNaffinity_variance>
0.1396331489

$$$$
[H]c1c([H])c([H])c(C([H])(N([H])C(=O)c2c([H])c([H])c(Cl)c(N([H])C(=O)c3c([H])c4c([H])nc(N5C([H])([H])C([H])([H])C([H])(N([H])[H])C([H])([H])C5([H])[H])nc4n([H])c3=O)c2[H])C([H])([H])C([H])([H])N([H])[H])c([H])c1[H]


 48 52  0  0  0  0  0  0  0  0999 V2000
  -85.6455   31.6618   -1.2013 N   0  0  0  0  0  0  0  0  0  0  0  0
  -86.8818   32.2647   -1.3222 C   0  0  0  0  0  0  0  0  0  0  0  0
  -87.7777   32.1875   -0.4202 O   0  0  0  0  0  0  0  0  0  0  0  0
  -84.9602   31.8198   -2.0023 H   0  0  0  0  0  0  0  0  0  0  0  0
  -87.2937   33.0542   -2.4854 C   0  0  0  0  0  0  0  0  0  0  0  0
  -87.4008   34.4511   -2.3563 C   0  0  0  0  0  0  0  0  0  0  0  0
  -87.7413   35.1957   -3.4492 C   0  0  0  0  0  0  0  0  0  0  0  0
  -87.8388   36.5813   -3.3139 C   0  0  0  0  0  0  0  0  0  0  0  0
  -88.1657   37.2950   -4.3866 N   0  0  0  0  0  0  0  0  0  0  0  0
  -88.4136   36.7764   -5.6100 C   0  0  0  0  0  0  0  0  0  0  0  0
  -88.3246   35.4386   -5.7610 N   0  0  0  0  0  0  0  0  0  0  0  0
  -87.9927   34.6676   -4.6917 C   0  0  0  0  0  0  0  0  0  0  0  0
  -87.8874   33.3329   -4.7985 N   0  0  0  0  0  0  0  0  0  0  0  0
  -87.5479   32.5543   -3.7238 C   0  0  0  0  0  0  0  0  0  0  0  0
  -87.4940   31.3182   -3.9858 O   0  0  0  0  0  0  0  0  0  0  0  0
  -88.0727   32.8836   -5.7347 H   0  0  0  0  0  0  0  0  0  0  0  0
  -88.7486   37.6269   -6.6977 N   0  0  0  0  0  0  0  0  0  0  0  0
  -87.8474   37.8779   -7.7819 C   0  0  0  0  0  0  0  0  0  0  0  0
  -88.6687   38.4632   -8.9180 C   0  0  0  0  0  0  0  0  0  0  0  0
  -89.9748   37.7503   -9.1220 C   0  0  0  0  0  0  0  0  0  0  0  0
  -90.7148   38.4391  -10.1494 N   0  0  0  0  0  0  0  0  0  0  0  0
  -90.8234   37.7022   -7.8659 C   0  0  0  0  0  0  0  0  0  0  0  0
  -90.0463   38.2667   -6.7013 C   0  0  0  0  0  0  0  0  0  0  0  0
  -90.2366   39.3165  -10.4250 H   0  0  0  0  0  0  0  0  0  0  0  0
  -91.6673   38.7013   -9.8116 H   0  0  0  0  0  0  0  0  0  0  0  0
  -85.2019   28.9395    1.3456 C   0  0  0  0  0  0  0  0  0  0  0  0
  -84.0750   29.4125    1.9814 C   0  0  0  0  0  0  0  0  0  0  0  0
  -83.4996   30.5931    1.5673 C   0  0  0  0  0  0  0  0  0  0  0  0
  -84.0083   31.3330    0.5302 C   0  0  0  0  0  0  0  0  0  0  0  0
  -83.2320   32.8230    0.0525 Cl  0  0  0  0  0  0  0  0  0  0  0  0
  -85.1595   30.8835   -0.1451 C   0  0  0  0  0  0  0  0  0  0  0  0
  -85.7043   29.7042    0.2948 C   0  0  0  0  0  0  0  0  0  0  0  0
  -87.2155   27.4434    1.4290 N   0  0  0  0  0  0  0  0  0  0  0  0
  -85.8720   27.7004    1.7177 C   0  0  0  0  0  0  0  0  0  0  0  0
  -85.2000   26.8349    2.3257 O   0  0  0  0  0  0  0  0  0  0  0  0
  -87.7440   28.2039    0.9040 H   0  0  0  0  0  0  0  0  0  0  0  0
  -87.9406   26.2603    1.7701 C   0  0  0  0  0  0  0  0  0  0  0  0
  -88.8060   26.4739    2.9680 C   0  0  0  0  0  0  0  0  0  0  0  0
  -89.2564   27.7365    3.3013 C   0  0  0  0  0  0  0  0  0  0  0  0
  -90.0567   27.8808    4.4226 C   0  0  0  0  0  0  0  0  0  0  0  0
  -90.3748   26.7539    5.1670 C   0  0  0  0  0  0  0  0  0  0  0  0
  -89.9125   25.4890    4.8168 C   0  0  0  0  0  0  0  0  0  0  0  0
  -89.1170   25.3523    3.7004 C   0  0  0  0  0  0  0  0  0  0  0  0
  -88.7343   25.7781    0.5964 C   0  0  0  0  0  0  0  0  0  0  0  0
  -87.5566   26.1752   -1.5430 N   0  0  0  0  0  0  0  0  0  0  0  0
  -88.5998   26.6135   -0.6479 C   0  0  0  0  0  0  0  0  0  0  0  0
  -87.8881   26.2169   -2.5467 H   0  0  0  0  0  0  0  0  0  0  0  0
  -86.6856   26.7355   -1.4749 H   0  0  0  0  0  0  0  0  0  0  0  0
 45 46  1  0  0  0
 46 44  1  0  0  0
 44 37  1  0  0  0
 37 33  1  0  0  0
 33 34  1  0  0  0
 34 35  2  0  0  0
 34 26  1  0  0  0
 26 27  2  0  0  0
 27 28  1  0  0  0
 28 29  2  0  0  0
 29 30  1  0  0  0
 29 31  1  0  0  0
 31  1  1  0  0  0
  1  2  1  0  0  0
  2  3  2  0  0  0
  2  5  1  0  0  0
  5  6  2  0  0  0
  6  7  1  0  0  0
  7  8  2  0  0  0
  8  9  1  0  0  0
  9 10  2  0  0  0
 10 11  1  0  0  0
 11 12  2  0  0  0
 12 13  1  0  0  0
 13 14  1  0  0  0
 14 15  2  0  0  0
 10 17  1  0  0  0
 17 18  1  0  0  0
 18 19  1  0  0  0
 19 20  1  0  0  0
 20 21  1  0  0  0
 20 22  1  0  0  0
 22 23  1  0  0  0
 31 32  2  0  0  0
 37 38  1  0  0  0
 38 39  2  0  0  0
 39 40  1  0  0  0
 40 41  2  0  0  0
 41 42  1  0  0  0
 42 43  2  0  0  0
 32 26  1  0  0  0
 43 38  1  0  0  0
 14  5  1  0  0  0
 23 17  1  0  0  0
 12  7  1  0  0  0
 45 47  1  0  0  0
 45 48  1  0  0  0
 33 36  1  0  0  0
  1  4  1  0  0  0
 13 16  1  0  0  0
 21 24  1  0  0  0
 21 25  1  0  0  0
M  END
> <minimizedAffinity>
-9.85164

> <CNNscore>
0.6181830764

> <CNNaffinity>
7.3390326500

> <CNN_VS>
4.5368657112

> <CNNaffinity_variance>
0.0603772886

$$$$
[H]c1c([H])c([H])c(C([H])(N([H])C(=O)c2c([H])c([H])c(Cl)c(N([H])C(=O)c3c([H])c4c([H])nc(N5C([H])([H])C([H])([H])C([H])(N([H])[H])C([H])([H])C5([H])[H])nc4n([H])c3=O)c2[H])C([H])([H])C([H])([H])N([H])[H])c([H])c1[H]


 48 52  0  0  0  0  0  0  0  0999 V2000
  -85.7863   31.7875   -0.6782 N   0  0  0  0  0  0  0  0  0  0  0  0
  -86.8503   31.6029   -1.5386 C   0  0  0  0  0  0  0  0  0  0  0  0
  -87.4548   30.4882   -1.6584 O   0  0  0  0  0  0  0  0  0  0  0  0
  -85.3772   32.7707   -0.6338 H   0  0  0  0  0  0  0  0  0  0  0  0
  -87.3983   32.6571   -2.3958 C   0  0  0  0  0  0  0  0  0  0  0  0
  -88.3050   32.3049   -3.4122 C   0  0  0  0  0  0  0  0  0  0  0  0
  -88.8525   33.2887   -4.1850 C   0  0  0  0  0  0  0  0  0  0  0  0
  -89.7560   32.9311   -5.1868 C   0  0  0  0  0  0  0  0  0  0  0  0
  -90.2859   33.8988   -5.9283 N   0  0  0  0  0  0  0  0  0  0  0  0
  -90.0138   35.2150   -5.7852 C   0  0  0  0  0  0  0  0  0  0  0  0
  -89.1423   35.5808   -4.8221 N   0  0  0  0  0  0  0  0  0  0  0  0
  -88.5752   34.6257   -4.0385 C   0  0  0  0  0  0  0  0  0  0  0  0
  -87.7073   34.9456   -3.0647 N   0  0  0  0  0  0  0  0  0  0  0  0
  -87.1386   33.9856   -2.2701 C   0  0  0  0  0  0  0  0  0  0  0  0
  -86.3412   34.4468   -1.4036 O   0  0  0  0  0  0  0  0  0  0  0  0
  -87.4642   35.9613   -2.9166 H   0  0  0  0  0  0  0  0  0  0  0  0
  -90.6400   36.1748   -6.6250 N   0  0  0  0  0  0  0  0  0  0  0  0
  -91.4650   37.2251   -6.1084 C   0  0  0  0  0  0  0  0  0  0  0  0
  -91.6061   38.2632   -7.2084 C   0  0  0  0  0  0  0  0  0  0  0  0
  -90.3107   38.5471   -7.9133 C   0  0  0  0  0  0  0  0  0  0  0  0
  -90.5709   39.4645   -8.9941 N   0  0  0  0  0  0  0  0  0  0  0  0
  -89.6638   37.2997   -8.4842 C   0  0  0  0  0  0  0  0  0  0  0  0
  -90.4400   36.0784   -8.0547 C   0  0  0  0  0  0  0  0  0  0  0  0
  -91.5888   39.6247   -9.1067 H   0  0  0  0  0  0  0  0  0  0  0  0
  -90.2177   39.0843   -9.9001 H   0  0  0  0  0  0  0  0  0  0  0  0
  -85.1234   28.7440    1.4175 C   0  0  0  0  0  0  0  0  0  0  0  0
  -83.8584   29.0550    1.8659 C   0  0  0  0  0  0  0  0  0  0  0  0
  -83.2653   30.2357    1.4778 C   0  0  0  0  0  0  0  0  0  0  0  0
  -83.8898   31.1328    0.6490 C   0  0  0  0  0  0  0  0  0  0  0  0
  -83.0839   32.6138    0.1931 Cl  0  0  0  0  0  0  0  0  0  0  0  0
  -85.1838   30.8516    0.1696 C   0  0  0  0  0  0  0  0  0  0  0  0
  -85.7421   29.6669    0.5768 C   0  0  0  0  0  0  0  0  0  0  0  0
  -87.1779   27.3053    1.5091 N   0  0  0  0  0  0  0  0  0  0  0  0
  -85.8224   27.5172    1.7770 C   0  0  0  0  0  0  0  0  0  0  0  0
  -85.1647   26.6201    2.3540 O   0  0  0  0  0  0  0  0  0  0  0  0
  -87.6937   28.0916    1.0101 H   0  0  0  0  0  0  0  0  0  0  0  0
  -87.9309   26.1367    1.8398 C   0  0  0  0  0  0  0  0  0  0  0  0
  -88.7497   26.3423    3.0713 C   0  0  0  0  0  0  0  0  0  0  0  0
  -89.0110   25.2940    3.9322 C   0  0  0  0  0  0  0  0  0  0  0  0
  -89.7759   25.5375    5.0610 C   0  0  0  0  0  0  0  0  0  0  0  0
  -90.2497   26.8225    5.2837 C   0  0  0  0  0  0  0  0  0  0  0  0
  -89.9769   27.8672    4.4059 C   0  0  0  0  0  0  0  0  0  0  0  0
  -89.2155   27.6184    3.2851 C   0  0  0  0  0  0  0  0  0  0  0  0
  -88.7776   25.7158    0.6796 C   0  0  0  0  0  0  0  0  0  0  0  0
  -87.5435   26.1185   -1.4267 N   0  0  0  0  0  0  0  0  0  0  0  0
  -88.6145   26.5504   -0.5618 C   0  0  0  0  0  0  0  0  0  0  0  0
  -87.8471   26.1564   -2.4393 H   0  0  0  0  0  0  0  0  0  0  0  0
  -86.6789   26.6854   -1.3352 H   0  0  0  0  0  0  0  0  0  0  0  0
 45 46  1  0  0  0
 46 44  1  0  0  0
 44 37  1  0  0  0
 37 33  1  0  0  0
 33 34  1  0  0  0
 34 35  2  0  0  0
 34 26  1  0  0  0
 26 27  2  0  0  0
 27 28  1  0  0  0
 28 29  2  0  0  0
 29 30  1  0  0  0
 29 31  1  0  0  0
 31  1  1  0  0  0
  1  2  1  0  0  0
  2  3  2  0  0  0
  2  5  1  0  0  0
  5  6  2  0  0  0
  6  7  1  0  0  0
  7  8  2  0  0  0
  8  9  1  0  0  0
  9 10  2  0  0  0
 10 11  1  0  0  0
 11 12  2  0  0  0
 12 13  1  0  0  0
 13 14  1  0  0  0
 14 15  2  0  0  0
 10 17  1  0  0  0
 17 18  1  0  0  0
 18 19  1  0  0  0
 19 20  1  0  0  0
 20 21  1  0  0  0
 20 22  1  0  0  0
 22 23  1  0  0  0
 31 32  2  0  0  0
 37 38  1  0  0  0
 38 39  2  0  0  0
 39 40  1  0  0  0
 40 41  2  0  0  0
 41 42  1  0  0  0
 42 43  2  0  0  0
 32 26  1  0  0  0
 43 38  1  0  0  0
 14  5  1  0  0  0
 23 17  1  0  0  0
 12  7  1  0  0  0
 45 47  1  0  0  0
 45 48  1  0  0  0
 33 36  1  0  0  0
  1  4  1  0  0  0
 13 16  1  0  0  0
 21 24  1  0  0  0
 21 25  1  0  0  0
M  END
> <minimizedAffinity>
-9.69164

> <CNNscore>
0.5198786855

> <CNNaffinity>
7.4079308510

> <CNN_VS>
3.8512253761

> <CNNaffinity_variance>
0.0660598278

$$$$
[H]c1c([H])c([H])c(C([H])(N([H])C(=O)c2c([H])c([H])c(Cl)c(N([H])C(=O)c3c([H])c4c([H])nc(N5C([H])([H])C([H])([H])C([H])(N([H])[H])C([H])([H])C5([H])[H])nc4n([H])c3=O)c2[H])C([H])([H])C([H])([H])N([H])[H])c([H])c1[H]


 48 52  0  0  0  0  0  0  0  0999 V2000
  -87.0498   32.0938   -0.9999 N   0  0  0  0  0  0  0  0  0  0  0  0
  -87.7008   31.8019   -2.1820 C   0  0  0  0  0  0  0  0  0  0  0  0
  -87.6118   30.6687   -2.7566 O   0  0  0  0  0  0  0  0  0  0  0  0
  -87.2220   33.0626   -0.5901 H   0  0  0  0  0  0  0  0  0  0  0  0
  -88.5594   32.7504   -2.8958 C   0  0  0  0  0  0  0  0  0  0  0  0
  -89.7307   32.2757   -3.5140 C   0  0  0  0  0  0  0  0  0  0  0  0
  -90.5571   33.1628   -4.1426 C   0  0  0  0  0  0  0  0  0  0  0  0
  -91.7202   32.6844   -4.7475 C   0  0  0  0  0  0  0  0  0  0  0  0
  -92.5187   33.5590   -5.3513 N   0  0  0  0  0  0  0  0  0  0  0  0
  -92.2879   34.8888   -5.4251 C   0  0  0  0  0  0  0  0  0  0  0  0
  -91.1683   35.3707   -4.8464 N   0  0  0  0  0  0  0  0  0  0  0  0
  -90.3215   34.5137   -4.2168 C   0  0  0  0  0  0  0  0  0  0  0  0
  -89.1990   34.9510   -3.6227 N   0  0  0  0  0  0  0  0  0  0  0  0
  -88.3468   34.0902   -2.9829 C   0  0  0  0  0  0  0  0  0  0  0  0
  -87.3343   34.6555   -2.4784 O   0  0  0  0  0  0  0  0  0  0  0  0
  -88.9773   35.9817   -3.6554 H   0  0  0  0  0  0  0  0  0  0  0  0
  -93.2093   35.7433   -6.0881 N   0  0  0  0  0  0  0  0  0  0  0  0
  -94.3461   36.3084   -5.4253 C   0  0  0  0  0  0  0  0  0  0  0  0
  -94.8399   37.4569   -6.2882 C   0  0  0  0  0  0  0  0  0  0  0  0
  -93.7242   38.3124   -6.8162 C   0  0  0  0  0  0  0  0  0  0  0  0
  -94.2880   39.3062   -7.6951 N   0  0  0  0  0  0  0  0  0  0  0  0
  -92.6864   37.5194   -7.5871 C   0  0  0  0  0  0  0  0  0  0  0  0
  -92.9908   36.0443   -7.4863 C   0  0  0  0  0  0  0  0  0  0  0  0
  -95.2986   39.1340   -7.8485 H   0  0  0  0  0  0  0  0  0  0  0  0
  -93.8266   39.2817   -8.6313 H   0  0  0  0  0  0  0  0  0  0  0  0
  -85.6802   29.2346    1.0109 C   0  0  0  0  0  0  0  0  0  0  0  0
  -84.4065   29.7103    1.2334 C   0  0  0  0  0  0  0  0  0  0  0  0
  -84.0356   30.9366    0.7286 C   0  0  0  0  0  0  0  0  0  0  0  0
  -84.8941   31.7204    0.0003 C   0  0  0  0  0  0  0  0  0  0  0  0
  -84.3630   33.2673   -0.6129 Cl  0  0  0  0  0  0  0  0  0  0  0  0
  -86.2049   31.2697   -0.2485 C   0  0  0  0  0  0  0  0  0  0  0  0
  -86.5381   30.0442    0.2695 C   0  0  0  0  0  0  0  0  0  0  0  0
  -87.4425   27.4652    1.2621 N   0  0  0  0  0  0  0  0  0  0  0  0
  -86.1538   27.9489    1.5063 C   0  0  0  0  0  0  0  0  0  0  0  0
  -85.3577   27.2563    2.1824 O   0  0  0  0  0  0  0  0  0  0  0  0
  -88.0806   28.0840    0.6764 H   0  0  0  0  0  0  0  0  0  0  0  0
  -87.9790   26.2233    1.7222 C   0  0  0  0  0  0  0  0  0  0  0  0
  -88.8437   26.4115    2.9249 C   0  0  0  0  0  0  0  0  0  0  0  0
  -89.1760   25.3420    3.7335 C   0  0  0  0  0  0  0  0  0  0  0  0
  -89.9812   25.5700    4.8373 C   0  0  0  0  0  0  0  0  0  0  0  0
  -90.4226   26.8613    5.0882 C   0  0  0  0  0  0  0  0  0  0  0  0
  -90.0781   27.9274    4.2629 C   0  0  0  0  0  0  0  0  0  0  0  0
  -89.2770   27.6940    3.1668 C   0  0  0  0  0  0  0  0  0  0  0  0
  -88.7150   25.5316    0.6178 C   0  0  0  0  0  0  0  0  0  0  0  0
  -87.8622   26.1321   -1.6259 N   0  0  0  0  0  0  0  0  0  0  0  0
  -88.8900   26.3451   -0.6360 C   0  0  0  0  0  0  0  0  0  0  0  0
  -88.2863   26.0734   -2.5933 H   0  0  0  0  0  0  0  0  0  0  0  0
  -87.1389   26.8762   -1.6433 H   0  0  0  0  0  0  0  0  0  0  0  0
 45 46  1  0  0  0
 46 44  1  0  0  0
 44 37  1  0  0  0
 37 33  1  0  0  0
 33 34  1  0  0  0
 34 35  2  0  0  0
 34 26  1  0  0  0
 26 27  2  0  0  0
 27 28  1  0  0  0
 28 29  2  0  0  0
 29 30  1  0  0  0
 29 31  1  0  0  0
 31  1  1  0  0  0
  1  2  1  0  0  0
  2  3  2  0  0  0
  2  5  1  0  0  0
  5  6  2  0  0  0
  6  7  1  0  0  0
  7  8  2  0  0  0
  8  9  1  0  0  0
  9 10  2  0  0  0
 10 11  1  0  0  0
 11 12  2  0  0  0
 12 13  1  0  0  0
 13 14  1  0  0  0
 14 15  2  0  0  0
 10 17  1  0  0  0
 17 18  1  0  0  0
 18 19  1  0  0  0
 19 20  1  0  0  0
 20 21  1  0  0  0
 20 22  1  0  0  0
 22 23  1  0  0  0
 31 32  2  0  0  0
 37 38  1  0  0  0
 38 39  2  0  0  0
 39 40  1  0  0  0
 40 41  2  0  0  0
 41 42  1  0  0  0
 42 43  2  0  0  0
 32 26  1  0  0  0
 43 38  1  0  0  0
 14  5  1  0  0  0
 23 17  1  0  0  0
 12  7  1  0  0  0
 45 47  1  0  0  0
 45 48  1  0  0  0
 33 36  1  0  0  0
  1  4  1  0  0  0
 13 16  1  0  0  0
 21 24  1  0  0  0
 21 25  1  0  0  0
M  END
> <minimizedAffinity>
-8.87422

> <CNNscore>
0.1641045362

> <CNNaffinity>
6.9558525085

> <CNN_VS>
1.1414870024

> <CNNaffinity_variance>
0.0855159536

$$$$
[H]c1c([H])c([H])c(C([H])(N([H])C(=O)c2c([H])c([H])c(Cl)c(N([H])C(=O)c3c([H])c4c([H])nc(N5C([H])([H])C([H])([H])C([H])(N([H])[H])C([H])([H])C5([H])[H])nc4n([H])c3=O)c2[H])C([H])([H])C([H])([H])N([H])[H])c([H])c1[H]


 48 52  0  0  0  0  0  0  0  0999 V2000
  -86.6453   29.9872   -0.7315 N   0  0  0  0  0  0  0  0  0  0  0  0
  -87.5896   30.9784   -0.9108 C   0  0  0  0  0  0  0  0  0  0  0  0
  -88.7223   30.9651   -0.3285 O   0  0  0  0  0  0  0  0  0  0  0  0
  -85.7187   30.1167   -1.2421 H   0  0  0  0  0  0  0  0  0  0  0  0
  -87.3943   32.1436   -1.7770 C   0  0  0  0  0  0  0  0  0  0  0  0
  -88.3144   32.3821   -2.8143 C   0  0  0  0  0  0  0  0  0  0  0  0
  -88.1619   33.4912   -3.5964 C   0  0  0  0  0  0  0  0  0  0  0  0
  -89.0828   33.7236   -4.6190 C   0  0  0  0  0  0  0  0  0  0  0  0
  -88.9262   34.8095   -5.3695 N   0  0  0  0  0  0  0  0  0  0  0  0
  -87.9336   35.7143   -5.2168 C   0  0  0  0  0  0  0  0  0  0  0  0
  -87.0330   35.5070   -4.2336 N   0  0  0  0  0  0  0  0  0  0  0  0
  -87.1530   34.4096   -3.4402 C   0  0  0  0  0  0  0  0  0  0  0  0
  -86.2824   34.1674   -2.4465 N   0  0  0  0  0  0  0  0  0  0  0  0
  -86.4043   33.0654   -1.6420 C   0  0  0  0  0  0  0  0  0  0  0  0
  -85.5054   32.9778   -0.7568 O   0  0  0  0  0  0  0  0  0  0  0  0
  -85.4905   34.8465   -2.2902 H   0  0  0  0  0  0  0  0  0  0  0  0
  -87.8575   36.8495   -6.0677 N   0  0  0  0  0  0  0  0  0  0  0  0
  -87.0043   36.8916   -7.2171 C   0  0  0  0  0  0  0  0  0  0  0  0
  -87.4837   38.0416   -8.0863 C   0  0  0  0  0  0  0  0  0  0  0  0
  -88.9796   38.0979   -8.2073 C   0  0  0  0  0  0  0  0  0  0  0  0
  -89.3320   39.2723   -8.9652 N   0  0  0  0  0  0  0  0  0  0  0  0
  -89.6785   38.1635   -6.8628 C   0  0  0  0  0  0  0  0  0  0  0  0
  -88.6679   38.0058   -5.7526 C   0  0  0  0  0  0  0  0  0  0  0  0
  -88.4969   39.8579   -9.1503 H   0  0  0  0  0  0  0  0  0  0  0  0
  -90.0127   39.8651   -8.4405 H   0  0  0  0  0  0  0  0  0  0  0  0
  -87.7801   26.7333    0.7580 C   0  0  0  0  0  0  0  0  0  0  0  0
  -86.7906   26.5645    1.7016 C   0  0  0  0  0  0  0  0  0  0  0  0
  -85.7940   27.5068    1.8249 C   0  0  0  0  0  0  0  0  0  0  0  0
  -85.7417   28.6271    1.0350 C   0  0  0  0  0  0  0  0  0  0  0  0
  -84.4509   29.7857    1.2407 Cl  0  0  0  0  0  0  0  0  0  0  0  0
  -86.7351   28.8362    0.0590 C   0  0  0  0  0  0  0  0  0  0  0  0
  -87.7109   27.8770   -0.0348 C   0  0  0  0  0  0  0  0  0  0  0  0
  -89.3169   25.3926   -0.7050 N   0  0  0  0  0  0  0  0  0  0  0  0
  -88.8689   25.7856    0.5596 C   0  0  0  0  0  0  0  0  0  0  0  0
  -89.4203   25.3103    1.5796 O   0  0  0  0  0  0  0  0  0  0  0  0
  -88.8132   25.8159   -1.5418 H   0  0  0  0  0  0  0  0  0  0  0  0
  -90.3816   24.4791   -0.9768 C   0  0  0  0  0  0  0  0  0  0  0  0
  -91.2386   24.9553   -2.1029 C   0  0  0  0  0  0  0  0  0  0  0  0
  -91.0102   26.1805   -2.6987 C   0  0  0  0  0  0  0  0  0  0  0  0
  -91.8339   26.5758   -3.7397 C   0  0  0  0  0  0  0  0  0  0  0  0
  -92.8553   25.7279   -4.1437 C   0  0  0  0  0  0  0  0  0  0  0  0
  -93.0714   24.4968   -3.5323 C   0  0  0  0  0  0  0  0  0  0  0  0
  -92.2485   24.1094   -2.4975 C   0  0  0  0  0  0  0  0  0  0  0  0
  -89.8396   23.1089   -1.2387 C   0  0  0  0  0  0  0  0  0  0  0  0
  -88.6016   21.4579    0.1264 N   0  0  0  0  0  0  0  0  0  0  0  0
  -89.8328   22.1898   -0.0472 C   0  0  0  0  0  0  0  0  0  0  0  0
  -88.3253   21.4349    1.1472 H   0  0  0  0  0  0  0  0  0  0  0  0
  -88.6483   20.4771   -0.2099 H   0  0  0  0  0  0  0  0  0  0  0  0
 45 46  1  0  0  0
 46 44  1  0  0  0
 44 37  1  0  0  0
 37 33  1  0  0  0
 33 34  1  0  0  0
 34 35  2  0  0  0
 34 26  1  0  0  0
 26 27  2  0  0  0
 27 28  1  0  0  0
 28 29  2  0  0  0
 29 30  1  0  0  0
 29 31  1  0  0  0
 31  1  1  0  0  0
  1  2  1  0  0  0
  2  3  2  0  0  0
  2  5  1  0  0  0
  5  6  2  0  0  0
  6  7  1  0  0  0
  7  8  2  0  0  0
  8  9  1  0  0  0
  9 10  2  0  0  0
 10 11  1  0  0  0
 11 12  2  0  0  0
 12 13  1  0  0  0
 13 14  1  0  0  0
 14 15  2  0  0  0
 10 17  1  0  0  0
 17 18  1  0  0  0
 18 19  1  0  0  0
 19 20  1  0  0  0
 20 21  1  0  0  0
 20 22  1  0  0  0
 22 23  1  0  0  0
 31 32  2  0  0  0
 37 38  1  0  0  0
 38 39  2  0  0  0
 39 40  1  0  0  0
 40 41  2  0  0  0
 41 42  1  0  0  0
 42 43  2  0  0  0
 32 26  1  0  0  0
 43 38  1  0  0  0
 14  5  1  0  0  0
 23 17  1  0  0  0
 12  7  1  0  0  0
 45 47  1  0  0  0
 45 48  1  0  0  0
 33 36  1  0  0  0
  1  4  1  0  0  0
 13 16  1  0  0  0
 21 24  1  0  0  0
 21 25  1  0  0  0
M  END
> <minimizedAffinity>
-9.42228

> <CNNscore>
0.1449341178

> <CNNaffinity>
6.4865059853

> <CNN_VS>
0.9401160479

> <CNNaffinity_variance>
0.2538256645

$$$$
[H]c1c([H])c([H])c(C([H])(N([H])C(=O)c2c([H])c([H])c(Cl)c(N([H])C(=O)c3c([H])c4c([H])nc(N5C([H])([H])C([H])([H])C([H])(N([H])[H])C([H])([H])C5([H])[H])nc4n([H])c3=O)c2[H])C([H])([H])C([H])([H])N([H])[H])c([H])c1[H]


 48 52  0  0  0  0  0  0  0  0999 V2000
  -85.9915   31.3723   -0.4990 N   0  0  0  0  0  0  0  0  0  0  0  0
  -87.1756   31.9589   -0.8993 C   0  0  0  0  0  0  0  0  0  0  0  0
  -88.2935   31.7038   -0.3449 O   0  0  0  0  0  0  0  0  0  0  0  0
  -85.1105   31.6844   -1.0113 H   0  0  0  0  0  0  0  0  0  0  0  0
  -87.2757   32.9316   -1.9903 C   0  0  0  0  0  0  0  0  0  0  0  0
  -88.5428   33.2230   -2.5279 C   0  0  0  0  0  0  0  0  0  0  0  0
  -88.6466   34.1615   -3.5145 C   0  0  0  0  0  0  0  0  0  0  0  0
  -89.9081   34.4491   -4.0376 C   0  0  0  0  0  0  0  0  0  0  0  0
  -89.9961   35.3684   -4.9937 N   0  0  0  0  0  0  0  0  0  0  0  0
  -88.9473   36.0522   -5.5031 C   0  0  0  0  0  0  0  0  0  0  0  0
  -87.7192   35.7880   -5.0105 N   0  0  0  0  0  0  0  0  0  0  0  0
  -87.5802   34.8555   -4.0312 C   0  0  0  0  0  0  0  0  0  0  0  0
  -86.3775   34.5653   -3.5083 N   0  0  0  0  0  0  0  0  0  0  0  0
  -86.2355   33.6300   -2.5176 C   0  0  0  0  0  0  0  0  0  0  0  0
  -85.0408   33.4693   -2.1350 O   0  0  0  0  0  0  0  0  0  0  0  0
  -85.5296   35.0739   -3.8757 H   0  0  0  0  0  0  0  0  0  0  0  0
  -89.1472   37.0232   -6.5208 N   0  0  0  0  0  0  0  0  0  0  0  0
  -88.1213   37.3796   -7.4543 C   0  0  0  0  0  0  0  0  0  0  0  0
  -88.7985   38.0998   -8.6076 C   0  0  0  0  0  0  0  0  0  0  0  0
  -90.0716   37.4338   -9.0452 C   0  0  0  0  0  0  0  0  0  0  0  0
  -90.6811   38.2436  -10.0702 N   0  0  0  0  0  0  0  0  0  0  0  0
  -91.0657   37.2593   -7.9132 C   0  0  0  0  0  0  0  0  0  0  0  0
  -90.4339   37.6790   -6.6081 C   0  0  0  0  0  0  0  0  0  0  0  0
  -90.1718   39.1390  -10.1863 H   0  0  0  0  0  0  0  0  0  0  0  0
  -91.6669   38.4810   -9.8216 H   0  0  0  0  0  0  0  0  0  0  0  0
  -86.4343   28.4912    1.8669 C   0  0  0  0  0  0  0  0  0  0  0  0
  -85.2551   28.5996    2.5711 C   0  0  0  0  0  0  0  0  0  0  0  0
  -84.3604   29.5988    2.2590 C   0  0  0  0  0  0  0  0  0  0  0  0
  -84.5955   30.5082    1.2592 C   0  0  0  0  0  0  0  0  0  0  0  0
  -83.4205   31.7529    0.9117 Cl  0  0  0  0  0  0  0  0  0  0  0  0
  -85.7896   30.4312    0.5165 C   0  0  0  0  0  0  0  0  0  0  0  0
  -86.6560   29.4235    0.8554 C   0  0  0  0  0  0  0  0  0  0  0  0
  -88.8094   27.7050    2.0675 N   0  0  0  0  0  0  0  0  0  0  0  0
  -87.4338   27.4643    2.1300 C   0  0  0  0  0  0  0  0  0  0  0  0
  -87.0258   26.3170    2.4262 O   0  0  0  0  0  0  0  0  0  0  0  0
  -89.1089   28.6920    1.8040 H   0  0  0  0  0  0  0  0  0  0  0  0
  -89.8451   26.7539    2.3217 C   0  0  0  0  0  0  0  0  0  0  0  0
  -90.2327   26.0204    1.0803 C   0  0  0  0  0  0  0  0  0  0  0  0
  -89.5985   24.8463    0.7232 C   0  0  0  0  0  0  0  0  0  0  0  0
  -89.9956   24.2046   -0.4383 C   0  0  0  0  0  0  0  0  0  0  0  0
  -91.0131   24.7644   -1.1976 C   0  0  0  0  0  0  0  0  0  0  0  0
  -91.6414   25.9481   -0.8231 C   0  0  0  0  0  0  0  0  0  0  0  0
  -91.2419   26.5814    0.3333 C   0  0  0  0  0  0  0  0  0  0  0  0
  -89.4341   25.8136    3.4111 C   0  0  0  0  0  0  0  0  0  0  0  0
  -90.1174   26.6585    5.6340 N   0  0  0  0  0  0  0  0  0  0  0  0
  -90.3915   25.7250    4.5686 C   0  0  0  0  0  0  0  0  0  0  0  0
  -91.0164   27.0845    5.9936 H   0  0  0  0  0  0  0  0  0  0  0  0
  -89.6232   26.2355    6.4427 H   0  0  0  0  0  0  0  0  0  0  0  0
 45 46  1  0  0  0
 46 44  1  0  0  0
 44 37  1  0  0  0
 37 33  1  0  0  0
 33 34  1  0  0  0
 34 35  2  0  0  0
 34 26  1  0  0  0
 26 27  2  0  0  0
 27 28  1  0  0  0
 28 29  2  0  0  0
 29 30  1  0  0  0
 29 31  1  0  0  0
 31  1  1  0  0  0
  1  2  1  0  0  0
  2  3  2  0  0  0
  2  5  1  0  0  0
  5  6  2  0  0  0
  6  7  1  0  0  0
  7  8  2  0  0  0
  8  9  1  0  0  0
  9 10  2  0  0  0
 10 11  1  0  0  0
 11 12  2  0  0  0
 12 13  1  0  0  0
 13 14  1  0  0  0
 14 15  2  0  0  0
 10 17  1  0  0  0
 17 18  1  0  0  0
 18 19  1  0  0  0
 19 20  1  0  0  0
 20 21  1  0  0  0
 20 22  1  0  0  0
 22 23  1  0  0  0
 31 32  2  0  0  0
 37 38  1  0  0  0
 38 39  2  0  0  0
 39 40  1  0  0  0
 40 41  2  0  0  0
 41 42  1  0  0  0
 42 43  2  0  0  0
 32 26  1  0  0  0
 43 38  1  0  0  0
 14  5  1  0  0  0
 23 17  1  0  0  0
 12  7  1  0  0  0
 45 47  1  0  0  0
 45 48  1  0  0  0
 33 36  1  0  0  0
  1  4  1  0  0  0
 13 16  1  0  0  0
 21 24  1  0  0  0
 21 25  1  0  0  0
M  END
> <minimizedAffinity>
-9.32723

> <CNNscore>
0.1174873710

> <CNNaffinity>
6.6587538719

> <CNN_VS>
0.7823194861

> <CNNaffinity_variance>
0.0984753519

$$$$
[H]c1c([H])c([H])c(C([H])(N([H])C(=O)c2c([H])c([H])c(Cl)c(N([H])C(=O)c3c([H])c4c([H])nc(N5C([H])([H])C([H])([H])C([H])(N([H])[H])C([H])([H])C5([H])[H])nc4n([H])c3=O)c2[H])C([H])([H])C([H])([H])N([H])[H])c([H])c1[H]


 48 52  0  0  0  0  0  0  0  0999 V2000
  -86.4502   29.9499   -0.6347 N   0  0  0  0  0  0  0  0  0  0  0  0
  -86.5550   31.3225   -0.5287 C   0  0  0  0  0  0  0  0  0  0  0  0
  -86.4167   31.9413    0.5760 O   0  0  0  0  0  0  0  0  0  0  0  0
  -86.5505   29.5406   -1.6138 H   0  0  0  0  0  0  0  0  0  0  0  0
  -86.8293   32.2094   -1.6620 C   0  0  0  0  0  0  0  0  0  0  0  0
  -88.0465   32.0722   -2.3542 C   0  0  0  0  0  0  0  0  0  0  0  0
  -88.3261   32.9255   -3.3831 C   0  0  0  0  0  0  0  0  0  0  0  0
  -89.5386   32.7866   -4.0600 C   0  0  0  0  0  0  0  0  0  0  0  0
  -89.8009   33.6270   -5.0560 N   0  0  0  0  0  0  0  0  0  0  0  0
  -88.9752   34.6149   -5.4674 C   0  0  0  0  0  0  0  0  0  0  0  0
  -87.7979   34.7651   -4.8255 N   0  0  0  0  0  0  0  0  0  0  0  0
  -87.4863   33.9289   -3.8000 C   0  0  0  0  0  0  0  0  0  0  0  0
  -86.3281   34.0463   -3.1300 N   0  0  0  0  0  0  0  0  0  0  0  0
  -86.0142   33.2084   -2.0927 C   0  0  0  0  0  0  0  0  0  0  0  0
  -84.8882   33.4455   -1.5680 O   0  0  0  0  0  0  0  0  0  0  0  0
  -85.6517   34.8032   -3.4166 H   0  0  0  0  0  0  0  0  0  0  0  0
  -89.3517   35.4678   -6.5395 N   0  0  0  0  0  0  0  0  0  0  0  0
  -90.6081   35.3427   -7.2152 C   0  0  0  0  0  0  0  0  0  0  0  0
  -90.8324   36.6346   -7.9822 C   0  0  0  0  0  0  0  0  0  0  0  0
  -90.4805   37.8567   -7.1832 C   0  0  0  0  0  0  0  0  0  0  0  0
  -90.6347   39.0142   -8.0283 N   0  0  0  0  0  0  0  0  0  0  0  0
  -89.0581   37.8288   -6.6577 C   0  0  0  0  0  0  0  0  0  0  0  0
  -88.4248   36.4937   -6.9657 C   0  0  0  0  0  0  0  0  0  0  0  0
  -90.8372   38.7346   -9.0057 H   0  0  0  0  0  0  0  0  0  0  0  0
  -89.7590   39.5826   -8.0466 H   0  0  0  0  0  0  0  0  0  0  0  0
  -86.8243   27.1523    1.8407 C   0  0  0  0  0  0  0  0  0  0  0  0
  -85.5729   27.1961    2.4153 C   0  0  0  0  0  0  0  0  0  0  0  0
  -84.6541   28.1272    1.9852 C   0  0  0  0  0  0  0  0  0  0  0  0
  -84.9346   29.0301    0.9913 C   0  0  0  0  0  0  0  0  0  0  0  0
  -83.7256   30.1868    0.4904 Cl  0  0  0  0  0  0  0  0  0  0  0  0
  -86.2029   29.0179    0.3791 C   0  0  0  0  0  0  0  0  0  0  0  0
  -87.0913   28.0768    0.8331 C   0  0  0  0  0  0  0  0  0  0  0  0
  -87.9173   25.6268    3.5074 N   0  0  0  0  0  0  0  0  0  0  0  0
  -87.8541   26.1995    2.2337 C   0  0  0  0  0  0  0  0  0  0  0  0
  -88.7157   25.8876    1.3787 O   0  0  0  0  0  0  0  0  0  0  0  0
  -87.1696   25.9278    4.2028 H   0  0  0  0  0  0  0  0  0  0  0  0
  -88.8881   24.6811    3.9603 C   0  0  0  0  0  0  0  0  0  0  0  0
  -88.3616   23.8501    5.0835 C   0  0  0  0  0  0  0  0  0  0  0  0
  -88.3777   22.4706    5.0129 C   0  0  0  0  0  0  0  0  0  0  0  0
  -87.8775   21.7458    6.0820 C   0  0  0  0  0  0  0  0  0  0  0  0
  -87.3803   22.4315    7.1811 C   0  0  0  0  0  0  0  0  0  0  0  0
  -87.3717   23.8219    7.2356 C   0  0  0  0  0  0  0  0  0  0  0  0
  -87.8706   24.5369    6.1690 C   0  0  0  0  0  0  0  0  0  0  0  0
  -90.1578   25.3772    4.3385 C   0  0  0  0  0  0  0  0  0  0  0  0
  -91.6926   23.6187    3.5174 N   0  0  0  0  0  0  0  0  0  0  0  0
  -91.3530   25.0208    3.4965 C   0  0  0  0  0  0  0  0  0  0  0  0
  -92.7405   23.4925    3.5866 H   0  0  0  0  0  0  0  0  0  0  0  0
  -91.3666   23.0979    2.6809 H   0  0  0  0  0  0  0  0  0  0  0  0
 45 46  1  0  0  0
 46 44  1  0  0  0
 44 37  1  0  0  0
 37 33  1  0  0  0
 33 34  1  0  0  0
 34 35  2  0  0  0
 34 26  1  0  0  0
 26 27  2  0  0  0
 27 28  1  0  0  0
 28 29  2  0  0  0
 29 30  1  0  0  0
 29 31  1  0  0  0
 31  1  1  0  0  0
  1  2  1  0  0  0
  2  3  2  0  0  0
  2  5  1  0  0  0
  5  6  2  0  0  0
  6  7  1  0  0  0
  7  8  2  0  0  0
  8  9  1  0  0  0
  9 10  2  0  0  0
 10 11  1  0  0  0
 11 12  2  0  0  0
 12 13  1  0  0  0
 13 14  1  0  0  0
 14 15  2  0  0  0
 10 17  1  0  0  0
 17 18  1  0  0  0
 18 19  1  0  0  0
 19 20  1  0  0  0
 20 21  1  0  0  0
 20 22  1  0  0  0
 22 23  1  0  0  0
 31 32  2  0  0  0
 37 38  1  0  0  0
 38 39  2  0  0  0
 39 40  1  0  0  0
 40 41  2  0  0  0
 41 42  1  0  0  0
 42 43  2  0  0  0
 32 26  1  0  0  0
 43 38  1  0  0  0
 14  5  1  0  0  0
 23 17  1  0  0  0
 12  7  1  0  0  0
 45 47  1  0  0  0
 45 48  1  0  0  0
 33 36  1  0  0  0
  1  4  1  0  0  0
 13 16  1  0  0  0
 21 24  1  0  0  0
 21 25  1  0  0  0
M  END
> <minimizedAffinity>
-8.52502

> <CNNscore>
0.0561232828

> <CNNaffinity>
6.2444305420

> <CNN_VS>
0.3504579365

> <CNNaffinity_variance>
0.1126759276

$$$$
[H]c1c([H])c([H])c(C([H])(N([H])C(=O)c2c([H])c([H])c(Cl)c(N([H])C(=O)c3c([H])c4c([H])nc(N5C([H])([H])C([H])([H])C([H])(N([H])[H])C([H])([H])C5([H])[H])nc4n([H])c3=O)c2[H])C([H])([H])C([H])([H])N([H])[H])c([H])c1[H]


 48 52  0  0  0  0  0  0  0  0999 V2000
  -87.0401   29.7215   -1.3284 N   0  0  0  0  0  0  0  0  0  0  0  0
  -87.9541   30.7512   -1.4327 C   0  0  0  0  0  0  0  0  0  0  0  0
  -88.9315   30.8897   -0.6279 O   0  0  0  0  0  0  0  0  0  0  0  0
  -86.2425   29.7216   -2.0354 H   0  0  0  0  0  0  0  0  0  0  0  0
  -87.8992   31.7886   -2.4656 C   0  0  0  0  0  0  0  0  0  0  0  0
  -87.8958   33.1397   -2.0734 C   0  0  0  0  0  0  0  0  0  0  0  0
  -87.8000   34.1095   -3.0300 C   0  0  0  0  0  0  0  0  0  0  0  0
  -87.7908   35.4471   -2.6317 C   0  0  0  0  0  0  0  0  0  0  0  0
  -87.6916   36.3811   -3.5724 N   0  0  0  0  0  0  0  0  0  0  0  0
  -87.5985   36.1322   -4.8977 C   0  0  0  0  0  0  0  0  0  0  0  0
  -87.6060   34.8452   -5.3027 N   0  0  0  0  0  0  0  0  0  0  0  0
  -87.7054   33.8553   -4.3762 C   0  0  0  0  0  0  0  0  0  0  0  0
  -87.7109   32.5609   -4.7346 N   0  0  0  0  0  0  0  0  0  0  0  0
  -87.8055   31.5614   -3.8026 C   0  0  0  0  0  0  0  0  0  0  0  0
  -87.8010   30.3984   -4.2993 O   0  0  0  0  0  0  0  0  0  0  0  0
  -87.6409   32.3187   -5.7589 H   0  0  0  0  0  0  0  0  0  0  0  0
  -87.4882   37.2030   -5.8250 N   0  0  0  0  0  0  0  0  0  0  0  0
  -86.2269   37.7719   -6.1943 C   0  0  0  0  0  0  0  0  0  0  0  0
  -86.4528   38.5674   -7.4686 C   0  0  0  0  0  0  0  0  0  0  0  0
  -87.3181   37.8461   -8.4618 C   0  0  0  0  0  0  0  0  0  0  0  0
  -87.5495   38.7199   -9.5846 N   0  0  0  0  0  0  0  0  0  0  0  0
  -88.6594   37.4340   -7.8864 C   0  0  0  0  0  0  0  0  0  0  0  0
  -88.6982   37.7400   -6.4087 C   0  0  0  0  0  0  0  0  0  0  0  0
  -87.1698   39.6668   -9.4012 H   0  0  0  0  0  0  0  0  0  0  0  0
  -88.5714   38.8290   -9.7685 H   0  0  0  0  0  0  0  0  0  0  0  0
  -87.8733   26.6354    0.6404 C   0  0  0  0  0  0  0  0  0  0  0  0
  -86.8184   26.6463    1.5265 C   0  0  0  0  0  0  0  0  0  0  0  0
  -85.8772   27.6493    1.4584 C   0  0  0  0  0  0  0  0  0  0  0  0
  -85.9447   28.6570    0.5301 C   0  0  0  0  0  0  0  0  0  0  0  0
  -84.7191   29.9010    0.4954 Cl  0  0  0  0  0  0  0  0  0  0  0  0
  -87.0081   28.6815   -0.3929 C   0  0  0  0  0  0  0  0  0  0  0  0
  -87.9255   27.6667   -0.2950 C   0  0  0  0  0  0  0  0  0  0  0  0
  -89.2683   24.8879   -0.4997 N   0  0  0  0  0  0  0  0  0  0  0  0
  -88.9105   25.6121    0.6412 C   0  0  0  0  0  0  0  0  0  0  0  0
  -89.5013   25.3827    1.7223 O   0  0  0  0  0  0  0  0  0  0  0  0
  -88.7337   25.1110   -1.3928 H   0  0  0  0  0  0  0  0  0  0  0  0
  -90.2786   23.8804   -0.5774 C   0  0  0  0  0  0  0  0  0  0  0  0
  -91.2142   24.1285   -1.7143 C   0  0  0  0  0  0  0  0  0  0  0  0
  -91.8877   23.0849   -2.3189 C   0  0  0  0  0  0  0  0  0  0  0  0
  -92.7443   23.3687   -3.3698 C   0  0  0  0  0  0  0  0  0  0  0  0
  -92.8929   24.6875   -3.7745 C   0  0  0  0  0  0  0  0  0  0  0  0
  -92.2066   25.7268   -3.1540 C   0  0  0  0  0  0  0  0  0  0  0  0
  -91.3562   25.4380   -2.1094 C   0  0  0  0  0  0  0  0  0  0  0  0
  -89.6556   22.5223   -0.6634 C   0  0  0  0  0  0  0  0  0  0  0  0
  -90.0495   22.3607    1.7739 N   0  0  0  0  0  0  0  0  0  0  0  0
  -89.8854   21.6409    0.5344 C   0  0  0  0  0  0  0  0  0  0  0  0
  -90.8313   21.9375    2.3472 H   0  0  0  0  0  0  0  0  0  0  0  0
  -89.1964   22.3738    2.3650 H   0  0  0  0  0  0  0  0  0  0  0  0
 45 46  1  0  0  0
 46 44  1  0  0  0
 44 37  1  0  0  0
 37 33  1  0  0  0
 33 34  1  0  0  0
 34 35  2  0  0  0
 34 26  1  0  0  0
 26 27  2  0  0  0
 27 28  1  0  0  0
 28 29  2  0  0  0
 29 30  1  0  0  0
 29 31  1  0  0  0
 31  1  1  0  0  0
  1  2  1  0  0  0
  2  3  2  0  0  0
  2  5  1  0  0  0
  5  6  2  0  0  0
  6  7  1  0  0  0
  7  8  2  0  0  0
  8  9  1  0  0  0
  9 10  2  0  0  0
 10 11  1  0  0  0
 11 12  2  0  0  0
 12 13  1  0  0  0
 13 14  1  0  0  0
 14 15  2  0  0  0
 10 17  1  0  0  0
 17 18  1  0  0  0
 18 19  1  0  0  0
 19 20  1  0  0  0
 20 21  1  0  0  0
 20 22  1  0  0  0
 22 23  1  0  0  0
 31 32  2  0  0  0
 37 38  1  0  0  0
 38 39  2  0  0  0
 39 40  1  0  0  0
 40 41  2  0  0  0
 41 42  1  0  0  0
 42 43  2  0  0  0
 32 26  1  0  0  0
 43 38  1  0  0  0
 14  5  1  0  0  0
 23 17  1  0  0  0
 12  7  1  0  0  0
 45 47  1  0  0  0
 45 48  1  0  0  0
 33 36  1  0  0  0
  1  4  1  0  0  0
 13 16  1  0  0  0
 21 24  1  0  0  0
 21 25  1  0  0  0
M  END
> <minimizedAffinity>
-8.95678

> <CNNscore>
0.0496691912

> <CNNaffinity>
6.1444115639

> <CNN_VS>
0.3051879406

> <CNNaffinity_variance>
0.2233264148

$$$$
[H]c1c([H])c([H])c(C([H])(N([H])C(=O)c2c([H])c([H])c(Cl)c(N([H])C(=O)c3c([H])c4c([H])nc(N5C([H])([H])C([H])([H])C([H])(N([H])[H])C([H])([H])C5([H])[H])nc4n([H])c3=O)c2[H])C([H])([H])C([H])([H])N([H])[H])c([H])c1[H]


 48 52  0  0  0  0  0  0  0  0999 V2000
  -86.7633   30.0028   -0.8230 N   0  0  0  0  0  0  0  0  0  0  0  0
  -87.7158   30.9697   -1.0765 C   0  0  0  0  0  0  0  0  0  0  0  0
  -88.9113   30.8898   -0.6446 O   0  0  0  0  0  0  0  0  0  0  0  0
  -85.7856   30.1883   -1.2049 H   0  0  0  0  0  0  0  0  0  0  0  0
  -87.4590   32.1825   -1.8572 C   0  0  0  0  0  0  0  0  0  0  0  0
  -88.2324   32.4284   -3.0064 C   0  0  0  0  0  0  0  0  0  0  0  0
  -88.0270   33.5791   -3.7124 C   0  0  0  0  0  0  0  0  0  0  0  0
  -88.8031   33.8182   -4.8474 C   0  0  0  0  0  0  0  0  0  0  0  0
  -88.5969   34.9446   -5.5226 N   0  0  0  0  0  0  0  0  0  0  0  0
  -87.6842   35.8848   -5.1909 C   0  0  0  0  0  0  0  0  0  0  0  0
  -86.9239   35.6718   -4.0968 N   0  0  0  0  0  0  0  0  0  0  0  0
  -87.0994   34.5336   -3.3743 C   0  0  0  0  0  0  0  0  0  0  0  0
  -86.3685   34.2839   -2.2755 N   0  0  0  0  0  0  0  0  0  0  0  0
  -86.5471   33.1404   -1.5427 C   0  0  0  0  0  0  0  0  0  0  0  0
  -85.7806   33.0514   -0.5407 O   0  0  0  0  0  0  0  0  0  0  0  0
  -85.6430   34.9898   -1.9787 H   0  0  0  0  0  0  0  0  0  0  0  0
  -87.5459   37.0615   -5.9750 N   0  0  0  0  0  0  0  0  0  0  0  0
  -86.2732   37.6624   -6.2399 C   0  0  0  0  0  0  0  0  0  0  0  0
  -86.4633   38.6115   -7.4106 C   0  0  0  0  0  0  0  0  0  0  0  0
  -87.3066   38.0256   -8.5066 C   0  0  0  0  0  0  0  0  0  0  0  0
  -87.5058   39.0337   -9.5175 N   0  0  0  0  0  0  0  0  0  0  0  0
  -88.6638   37.5554   -8.0198 C   0  0  0  0  0  0  0  0  0  0  0  0
  -88.7384   37.6759   -6.5169 C   0  0  0  0  0  0  0  0  0  0  0  0
  -87.1265   39.9476   -9.2086 H   0  0  0  0  0  0  0  0  0  0  0  0
  -88.5222   39.1725   -9.7113 H   0  0  0  0  0  0  0  0  0  0  0  0
  -87.8777   26.5990    0.3024 C   0  0  0  0  0  0  0  0  0  0  0  0
  -87.0872   26.4664    1.4230 C   0  0  0  0  0  0  0  0  0  0  0  0
  -86.2246   27.4798    1.7764 C   0  0  0  0  0  0  0  0  0  0  0  0
  -86.1153   28.6375    1.0486 C   0  0  0  0  0  0  0  0  0  0  0  0
  -85.0017   29.8865    1.5495 Cl  0  0  0  0  0  0  0  0  0  0  0  0
  -86.9066   28.8115   -0.1033 C   0  0  0  0  0  0  0  0  0  0  0  0
  -87.7533   27.7814   -0.4241 C   0  0  0  0  0  0  0  0  0  0  0  0
  -89.5728   24.7999    0.7378 N   0  0  0  0  0  0  0  0  0  0  0  0
  -88.8146   25.5762   -0.1436 C   0  0  0  0  0  0  0  0  0  0  0  0
  -88.9344   25.3946   -1.3777 O   0  0  0  0  0  0  0  0  0  0  0  0
  -89.4440   24.9951    1.7763 H   0  0  0  0  0  0  0  0  0  0  0  0
  -90.5006   23.7752    0.3757 C   0  0  0  0  0  0  0  0  0  0  0  0
  -90.4213   22.6100    1.3061 C   0  0  0  0  0  0  0  0  0  0  0  0
  -90.3578   21.3183    0.8206 C   0  0  0  0  0  0  0  0  0  0  0  0
  -90.2856   20.2724    1.7259 C   0  0  0  0  0  0  0  0  0  0  0  0
  -90.2799   20.5612    3.0830 C   0  0  0  0  0  0  0  0  0  0  0  0
  -90.3444   21.8687    3.5548 C   0  0  0  0  0  0  0  0  0  0  0  0
  -90.4160   22.9045    2.6493 C   0  0  0  0  0  0  0  0  0  0  0  0
  -91.8889   24.3297    0.3048 C   0  0  0  0  0  0  0  0  0  0  0  0
  -91.5307   24.2134   -2.1405 N   0  0  0  0  0  0  0  0  0  0  0  0
  -92.4909   24.3612   -1.0739 C   0  0  0  0  0  0  0  0  0  0  0  0
  -91.9062   23.5684   -2.8901 H   0  0  0  0  0  0  0  0  0  0  0  0
  -91.2718   25.1093   -2.5960 H   0  0  0  0  0  0  0  0  0  0  0  0
 45 46  1  0  0  0
 46 44  1  0  0  0
 44 37  1  0  0  0
 37 33  1  0  0  0
 33 34  1  0  0  0
 34 35  2  0  0  0
 34 26  1  0  0  0
 26 27  2  0  0  0
 27 28  1  0  0  0
 28 29  2  0  0  0
 29 30  1  0  0  0
 29 31  1  0  0  0
 31  1  1  0  0  0
  1  2  1  0  0  0
  2  3  2  0  0  0
  2  5  1  0  0  0
  5  6  2  0  0  0
  6  7  1  0  0  0
  7  8  2  0  0  0
  8  9  1  0  0  0
  9 10  2  0  0  0
 10 11  1  0  0  0
 11 12  2  0  0  0
 12 13  1  0  0  0
 13 14  1  0  0  0
 14 15  2  0  0  0
 10 17  1  0  0  0
 17 18  1  0  0  0
 18 19  1  0  0  0
 19 20  1  0  0  0
 20 21  1  0  0  0
 20 22  1  0  0  0
 22 23  1  0  0  0
 31 32  2  0  0  0
 37 38  1  0  0  0
 38 39  2  0  0  0
 39 40  1  0  0  0
 40 41  2  0  0  0
 41 42  1  0  0  0
 42 43  2  0  0  0
 32 26  1  0  0  0
 43 38  1  0  0  0
 14  5  1  0  0  0
 23 17  1  0  0  0
 12  7  1  0  0  0
 45 47  1  0  0  0
 45 48  1  0  0  0
 33 36  1  0  0  0
  1  4  1  0  0  0
 13 16  1  0  0  0
 21 24  1  0  0  0
 21 25  1  0  0  0
M  END
> <minimizedAffinity>
-8.57415

> <CNNscore>
0.0472680405

> <CNNaffinity>
6.0209016800

> <CNN_VS>
0.2845962346

> <CNNaffinity_variance>
0.2103863955

$$$$
[H]c1c([H])c([H])c(C([H])(N([H])C(=O)c2c([H])c([H])c(Cl)c(N([H])C(=O)c3c([H])c4c([H])nc(N5C([H])([H])C([H])([H])C([H])(N([H])[H])C([H])([H])C5([H])[H])nc4n([H])c3=O)c2[H])C([H])([H])C([H])([H])N([H])[H])c([H])c1[H]


 48 52  0  0  0  0  0  0  0  0999 V2000
  -88.7514   31.7024   -2.8931 N   0  0  0  0  0  0  0  0  0  0  0  0
  -89.2964   31.0190   -1.8243 C   0  0  0  0  0  0  0  0  0  0  0  0
  -89.8120   31.6082   -0.8197 O   0  0  0  0  0  0  0  0  0  0  0  0
  -88.3776   31.1083   -3.6953 H   0  0  0  0  0  0  0  0  0  0  0  0
  -89.3455   29.5578   -1.7302 C   0  0  0  0  0  0  0  0  0  0  0  0
  -90.1838   28.9658   -0.7678 C   0  0  0  0  0  0  0  0  0  0  0  0
  -90.2667   27.6041   -0.7057 C   0  0  0  0  0  0  0  0  0  0  0  0
  -91.1057   27.0252    0.2476 C   0  0  0  0  0  0  0  0  0  0  0  0
  -91.1814   25.6989    0.2940 N   0  0  0  0  0  0  0  0  0  0  0  0
  -90.5014   24.8601   -0.5190 C   0  0  0  0  0  0  0  0  0  0  0  0
  -89.6848   25.4006   -1.4473 N   0  0  0  0  0  0  0  0  0  0  0  0
  -89.5753   26.7530   -1.5324 C   0  0  0  0  0  0  0  0  0  0  0  0
  -88.7788   27.3334   -2.4449 N   0  0  0  0  0  0  0  0  0  0  0  0
  -88.6708   28.6959   -2.5363 C   0  0  0  0  0  0  0  0  0  0  0  0
  -87.8791   29.0855   -3.4423 O   0  0  0  0  0  0  0  0  0  0  0  0
  -88.2279   26.7178   -3.1009 H   0  0  0  0  0  0  0  0  0  0  0  0
  -90.6575   23.4534   -0.3946 N   0  0  0  0  0  0  0  0  0  0  0  0
  -89.5696   22.5875   -0.0517 C   0  0  0  0  0  0  0  0  0  0  0  0
  -90.1740   21.2659    0.3904 C   0  0  0  0  0  0  0  0  0  0  0  0
  -91.3629   21.4397    1.2915 C   0  0  0  0  0  0  0  0  0  0  0  0
  -91.9168   20.1388    1.5720 N   0  0  0  0  0  0  0  0  0  0  0  0
  -92.4475   22.3039    0.6775 C   0  0  0  0  0  0  0  0  0  0  0  0
  -91.9639   22.8786   -0.6319 C   0  0  0  0  0  0  0  0  0  0  0  0
  -91.4479   19.4071    1.0070 H   0  0  0  0  0  0  0  0  0  0  0  0
  -92.9330   20.1063    1.3343 H   0  0  0  0  0  0  0  0  0  0  0  0
  -89.4503   35.2597   -3.8683 C   0  0  0  0  0  0  0  0  0  0  0  0
  -88.3154   35.8551   -3.3629 C   0  0  0  0  0  0  0  0  0  0  0  0
  -87.3647   35.0879   -2.7274 C   0  0  0  0  0  0  0  0  0  0  0  0
  -87.5000   33.7317   -2.5722 C   0  0  0  0  0  0  0  0  0  0  0  0
  -86.2579   32.8140   -1.7562 Cl  0  0  0  0  0  0  0  0  0  0  0  0
  -88.6458   33.0856   -3.0754 C   0  0  0  0  0  0  0  0  0  0  0  0
  -89.5705   33.8816   -3.7016 C   0  0  0  0  0  0  0  0  0  0  0  0
  -91.7842   35.4736   -4.7667 N   0  0  0  0  0  0  0  0  0  0  0  0
  -90.5054   35.9961   -4.5519 C   0  0  0  0  0  0  0  0  0  0  0  0
  -90.2386   37.1498   -4.9619 O   0  0  0  0  0  0  0  0  0  0  0  0
  -91.9673   34.4935   -4.3937 H   0  0  0  0  0  0  0  0  0  0  0  0
  -92.8628   36.1302   -5.4355 C   0  0  0  0  0  0  0  0  0  0  0  0
  -93.2714   37.3775   -4.7236 C   0  0  0  0  0  0  0  0  0  0  0  0
  -93.2821   38.5951   -5.3759 C   0  0  0  0  0  0  0  0  0  0  0  0
  -93.6693   39.7223   -4.6702 C   0  0  0  0  0  0  0  0  0  0  0  0
  -94.0309   39.5859   -3.3376 C   0  0  0  0  0  0  0  0  0  0  0  0
  -94.0145   38.3513   -2.6959 C   0  0  0  0  0  0  0  0  0  0  0  0
  -93.6285   37.2341   -3.4033 C   0  0  0  0  0  0  0  0  0  0  0  0
  -92.5030   36.4034   -6.8624 C   0  0  0  0  0  0  0  0  0  0  0  0
  -90.4541   35.3753   -7.7933 N   0  0  0  0  0  0  0  0  0  0  0  0
  -91.8770   35.2462   -7.5925 C   0  0  0  0  0  0  0  0  0  0  0  0
  -89.9693   34.4527   -7.6126 H   0  0  0  0  0  0  0  0  0  0  0  0
  -90.1940   35.6864   -8.7487 H   0  0  0  0  0  0  0  0  0  0  0  0
 45 46  1  0  0  0
 46 44  1  0  0  0
 44 37  1  0  0  0
 37 33  1  0  0  0
 33 34  1  0  0  0
 34 35  2  0  0  0
 34 26  1  0  0  0
 26 27  2  0  0  0
 27 28  1  0  0  0
 28 29  2  0  0  0
 29 30  1  0  0  0
 29 31  1  0  0  0
 31  1  1  0  0  0
  1  2  1  0  0  0
  2  3  2  0  0  0
  2  5  1  0  0  0
  5  6  2  0  0  0
  6  7  1  0  0  0
  7  8  2  0  0  0
  8  9  1  0  0  0
  9 10  2  0  0  0
 10 11  1  0  0  0
 11 12  2  0  0  0
 12 13  1  0  0  0
 13 14  1  0  0  0
 14 15  2  0  0  0
 10 17  1  0  0  0
 17 18  1  0  0  0
 18 19  1  0  0  0
 19 20  1  0  0  0
 20 21  1  0  0  0
 20 22  1  0  0  0
 22 23  1  0  0  0
 31 32  2  0  0  0
 37 38  1  0  0  0
 38 39  2  0  0  0
 39 40  1  0  0  0
 40 41  2  0  0  0
 41 42  1  0  0  0
 42 43  2  0  0  0
 32 26  1  0  0  0
 43 38  1  0  0  0
 14  5  1  0  0  0
 23 17  1  0  0  0
 12  7  1  0  0  0
 45 47  1  0  0  0
 45 48  1  0  0  0
 33 36  1  0  0  0
  1  4  1  0  0  0
 13 16  1  0  0  0
 21 24  1  0  0  0
 21 25  1  0  0  0
M  END
> <minimizedAffinity>
-7.05560

> <CNNscore>
0.0433218181

> <CNNaffinity>
5.7489542961

> <CNN_VS>
0.2490551472

> <CNNaffinity_variance>
0.1553246379

$$$$
[H]c1nc(-c2c([H])n(C([H])([H])[H])c3c([H])nc([H])c([H])c23)c([H])c(N([H])c2c([H])c([H])c(N3C([H])([H])C([H])([H])N(C(=O)C([H])([H])[H])C([H])([H])C3([H])[H])c([H])c2OC([H])([H])[H])n1


 35 39  0  0  0  0  0  0  0  0999 V2000
  -87.0990   26.0478    1.9898 N   0  0  0  0  0  0  0  0  0  0  0  0
  -86.9778   25.3503    2.8171 H   0  0  0  0  0  0  0  0  0  0  0  0
  -89.4683   25.8082    1.7791 C   0  0  0  0  0  0  0  0  0  0  0  0
  -90.6172   25.6248    1.0387 C   0  0  0  0  0  0  0  0  0  0  0  0
  -90.5762   25.4864   -0.3245 C   0  0  0  0  0  0  0  0  0  0  0  0
  -89.3380   25.5399   -0.9065 C   0  0  0  0  0  0  0  0  0  0  0  0
  -88.1477   25.7249   -0.1863 C   0  0  0  0  0  0  0  0  0  0  0  0
  -88.2120   25.8600    1.1635 C   0  0  0  0  0  0  0  0  0  0  0  0
  -91.7427   25.2975   -1.1365 N   0  0  0  0  0  0  0  0  0  0  0  0
  -93.0166   25.2226   -0.4692 C   0  0  0  0  0  0  0  0  0  0  0  0
  -94.1685   25.1327   -1.4461 C   0  0  0  0  0  0  0  0  0  0  0  0
  -93.8250   24.2376   -2.5294 N   0  0  0  0  0  0  0  0  0  0  0  0
  -92.6612   24.5420   -3.3213 C   0  0  0  0  0  0  0  0  0  0  0  0
  -91.5846   25.1958   -2.5448 C   0  0  0  0  0  0  0  0  0  0  0  0
  -94.6149   23.0959   -2.7993 C   0  0  0  0  0  0  0  0  0  0  0  0
  -94.2978   22.1548   -3.8986 C   0  0  0  0  0  0  0  0  0  0  0  0
  -95.6220   22.8644   -2.0871 O   0  0  0  0  0  0  0  0  0  0  0  0
  -90.1555   27.1032    3.6804 C   0  0  0  0  0  0  0  0  0  0  0  0
  -89.5373   25.9459    3.1572 O   0  0  0  0  0  0  0  0  0  0  0  0
  -86.0821   27.0056    1.9380 C   0  0  0  0  0  0  0  0  0  0  0  0
  -86.2926   28.2224    1.2965 C   0  0  0  0  0  0  0  0  0  0  0  0
  -85.3112   29.2069    1.2172 C   0  0  0  0  0  0  0  0  0  0  0  0
  -84.1255   28.9596    1.7838 N   0  0  0  0  0  0  0  0  0  0  0  0
  -83.9151   27.7859    2.4054 C   0  0  0  0  0  0  0  0  0  0  0  0
  -84.8769   26.8488    2.4705 N   0  0  0  0  0  0  0  0  0  0  0  0
  -85.6283   30.4670    0.5154 C   0  0  0  0  0  0  0  0  0  0  0  0
  -86.8659   30.8537    0.0525 C   0  0  0  0  0  0  0  0  0  0  0  0
  -86.7329   32.0596   -0.5236 N   0  0  0  0  0  0  0  0  0  0  0  0
  -87.8214   32.8185   -1.1408 C   0  0  0  0  0  0  0  0  0  0  0  0
  -85.4444   32.4733   -0.4513 C   0  0  0  0  0  0  0  0  0  0  0  0
  -84.8434   33.6375   -0.9050 C   0  0  0  0  0  0  0  0  0  0  0  0
  -83.5271   33.8206   -0.7109 N   0  0  0  0  0  0  0  0  0  0  0  0
  -82.8335   32.8622   -0.0793 C   0  0  0  0  0  0  0  0  0  0  0  0
  -83.3955   31.6893    0.3871 C   0  0  0  0  0  0  0  0  0  0  0  0
  -84.7440   31.4710    0.2037 C   0  0  0  0  0  0  0  0  0  0  0  0
 18 19  1  0  0  0
 19  3  1  0  0  0
  3  4  2  0  0  0
  4  5  1  0  0  0
  5  6  2  0  0  0
  6  7  1  0  0  0
  7  8  2  0  0  0
  8  1  1  0  0  0
  1 20  1  0  0  0
 20 21  2  0  0  0
 21 22  1  0  0  0
 22 23  2  0  0  0
 23 24  1  0  0  0
 24 25  2  0  0  0
 22 26  1  0  0  0
 26 27  2  0  0  0
 27 28  1  0  0  0
 28 29  1  0  0  0
 28 30  1  0  0  0
 30 31  2  0  0  0
 31 32  1  0  0  0
 32 33  2  0  0  0
 33 34  1  0  0  0
 34 35  2  0  0  0
  5  9  1  0  0  0
  9 10  1  0  0  0
 10 11  1  0  0  0
 11 12  1  0  0  0
 12 13  1  0  0  0
 13 14  1  0  0  0
 12 15  1  0  0  0
 15 16  1  0  0  0
 15 17  2  0  0  0
  8  3  1  0  0  0
 25 20  1  0  0  0
 35 26  1  0  0  0
 14  9  1  0  0  0
 35 30  1  0  0  0
  1  2  1  0  0  0
M  END
> <minimizedAffinity>
-9.03373

> <CNNscore>
0.5318035483

> <CNNaffinity>
7.0976171494

> <CNN_VS>
3.7745380402

> <CNNaffinity_variance>
0.0253868215

$$$$
[H]c1nc(-c2c([H])n(C([H])([H])[H])c3c([H])nc([H])c([H])c23)c([H])c(N([H])c2c([H])c([H])c(N3C([H])([H])C([H])([H])N(C(=O)C([H])([H])[H])C([H])([H])C3([H])[H])c([H])c2OC([H])([H])[H])n1


 35 39  0  0  0  0  0  0  0  0999 V2000
  -88.1216   26.1096    1.4466 N   0  0  0  0  0  0  0  0  0  0  0  0
  -88.2090   25.4211    2.2856 H   0  0  0  0  0  0  0  0  0  0  0  0
  -90.3664   26.6235    0.8047 C   0  0  0  0  0  0  0  0  0  0  0  0
  -91.4143   26.6125   -0.0917 C   0  0  0  0  0  0  0  0  0  0  0  0
  -91.2879   26.0474   -1.3341 C   0  0  0  0  0  0  0  0  0  0  0  0
  -90.0703   25.4976   -1.6337 C   0  0  0  0  0  0  0  0  0  0  0  0
  -88.9816   25.4898   -0.7479 C   0  0  0  0  0  0  0  0  0  0  0  0
  -89.1293   26.0556    0.4779 C   0  0  0  0  0  0  0  0  0  0  0  0
  -92.3466   26.0149   -2.3005 N   0  0  0  0  0  0  0  0  0  0  0  0
  -92.5434   24.7922   -3.0354 C   0  0  0  0  0  0  0  0  0  0  0  0
  -93.7557   24.8575   -3.9384 C   0  0  0  0  0  0  0  0  0  0  0  0
  -93.8176   26.1502   -4.5847 N   0  0  0  0  0  0  0  0  0  0  0  0
  -93.8830   27.3247   -3.7537 C   0  0  0  0  0  0  0  0  0  0  0  0
  -93.1410   27.1788   -2.4818 C   0  0  0  0  0  0  0  0  0  0  0  0
  -93.8140   26.2519   -5.9953 C   0  0  0  0  0  0  0  0  0  0  0  0
  -93.8763   27.5558   -6.6960 C   0  0  0  0  0  0  0  0  0  0  0  0
  -93.7565   25.2054   -6.6857 O   0  0  0  0  0  0  0  0  0  0  0  0
  -91.0215   28.5211    2.1218 C   0  0  0  0  0  0  0  0  0  0  0  0
  -90.5204   27.2021    2.0556 O   0  0  0  0  0  0  0  0  0  0  0  0
  -86.9851   26.9193    1.5291 C   0  0  0  0  0  0  0  0  0  0  0  0
  -86.9809   28.1877    0.9568 C   0  0  0  0  0  0  0  0  0  0  0  0
  -85.8737   29.0303    1.0112 C   0  0  0  0  0  0  0  0  0  0  0  0
  -84.7792   28.5903    1.6410 N   0  0  0  0  0  0  0  0  0  0  0  0
  -84.7762   27.3657    2.1963 C   0  0  0  0  0  0  0  0  0  0  0  0
  -85.8566   26.5680    2.1323 N   0  0  0  0  0  0  0  0  0  0  0  0
  -85.9644   30.3597    0.3743 C   0  0  0  0  0  0  0  0  0  0  0  0
  -87.1071   30.9561   -0.1093 C   0  0  0  0  0  0  0  0  0  0  0  0
  -86.7672   32.1561   -0.6077 N   0  0  0  0  0  0  0  0  0  0  0  0
  -87.6993   33.1051   -1.2178 C   0  0  0  0  0  0  0  0  0  0  0  0
  -85.4354   32.3621   -0.4645 C   0  0  0  0  0  0  0  0  0  0  0  0
  -84.6451   33.4425   -0.8263 C   0  0  0  0  0  0  0  0  0  0  0  0
  -83.3263   33.4103   -0.5743 N   0  0  0  0  0  0  0  0  0  0  0  0
  -82.8150   32.3243    0.0240 C   0  0  0  0  0  0  0  0  0  0  0  0
  -83.5687   31.2289    0.3995 C   0  0  0  0  0  0  0  0  0  0  0  0
  -84.9251   31.2307    0.1549 C   0  0  0  0  0  0  0  0  0  0  0  0
 18 19  1  0  0  0
 19  3  1  0  0  0
  3  4  2  0  0  0
  4  5  1  0  0  0
  5  6  2  0  0  0
  6  7  1  0  0  0
  7  8  2  0  0  0
  8  1  1  0  0  0
  1 20  1  0  0  0
 20 21  2  0  0  0
 21 22  1  0  0  0
 22 23  2  0  0  0
 23 24  1  0  0  0
 24 25  2  0  0  0
 22 26  1  0  0  0
 26 27  2  0  0  0
 27 28  1  0  0  0
 28 29  1  0  0  0
 28 30  1  0  0  0
 30 31  2  0  0  0
 31 32  1  0  0  0
 32 33  2  0  0  0
 33 34  1  0  0  0
 34 35  2  0  0  0
  5  9  1  0  0  0
  9 10  1  0  0  0
 10 11  1  0  0  0
 11 12  1  0  0  0
 12 13  1  0  0  0
 13 14  1  0  0  0
 12 15  1  0  0  0
 15 16  1  0  0  0
 15 17  2  0  0  0
  8  3  1  0  0  0
 25 20  1  0  0  0
 35 26  1  0  0  0
 14  9  1  0  0  0
 35 30  1  0  0  0
  1  2  1  0  0  0
M  END
> <minimizedAffinity>
-9.42379

> <CNNscore>
0.3422029018

> <CNNaffinity>
6.8650293350

> <CNN_VS>
2.3492329121

> <CNNaffinity_variance>
0.0406994447

$$$$
[H]c1nc(-c2c([H])n(C([H])([H])[H])c3c([H])nc([H])c([H])c23)c([H])c(N([H])c2c([H])c([H])c(N3C([H])([H])C([H])([H])N(C(=O)C([H])([H])[H])C([H])([H])C3([H])[H])c([H])c2OC([H])([H])[H])n1


 35 39  0  0  0  0  0  0  0  0999 V2000
  -86.8230   26.2671    1.5385 N   0  0  0  0  0  0  0  0  0  0  0  0
  -86.7584   25.3811    2.1681 H   0  0  0  0  0  0  0  0  0  0  0  0
  -89.1559   26.6912    1.2338 C   0  0  0  0  0  0  0  0  0  0  0  0
  -90.2880   26.7924    0.4529 C   0  0  0  0  0  0  0  0  0  0  0  0
  -90.2492   26.5627   -0.8979 C   0  0  0  0  0  0  0  0  0  0  0  0
  -89.0305   26.2289   -1.4255 C   0  0  0  0  0  0  0  0  0  0  0  0
  -87.8577   26.1163   -0.6630 C   0  0  0  0  0  0  0  0  0  0  0  0
  -87.9196   26.3485    0.6737 C   0  0  0  0  0  0  0  0  0  0  0  0
  -91.3976   26.6591   -1.7508 N   0  0  0  0  0  0  0  0  0  0  0  0
  -92.2333   25.4936   -1.8809 C   0  0  0  0  0  0  0  0  0  0  0  0
  -93.4638   25.7639   -2.7187 C   0  0  0  0  0  0  0  0  0  0  0  0
  -93.1107   26.5764   -3.8623 N   0  0  0  0  0  0  0  0  0  0  0  0
  -92.5076   27.8624   -3.6238 C   0  0  0  0  0  0  0  0  0  0  0  0
  -91.6514   27.8880   -2.4172 C   0  0  0  0  0  0  0  0  0  0  0  0
  -93.3539   26.1153   -5.1770 C   0  0  0  0  0  0  0  0  0  0  0  0
  -93.0075   26.9161   -6.3743 C   0  0  0  0  0  0  0  0  0  0  0  0
  -93.8816   24.9890   -5.3444 O   0  0  0  0  0  0  0  0  0  0  0  0
  -90.2940   27.7090    3.0867 C   0  0  0  0  0  0  0  0  0  0  0  0
  -89.2223   26.9290    2.5984 O   0  0  0  0  0  0  0  0  0  0  0  0
  -85.7611   27.1530    1.7428 C   0  0  0  0  0  0  0  0  0  0  0  0
  -85.7714   28.4129    1.1523 C   0  0  0  0  0  0  0  0  0  0  0  0
  -84.7373   29.3293    1.3246 C   0  0  0  0  0  0  0  0  0  0  0  0
  -83.7008   28.9710    2.0897 N   0  0  0  0  0  0  0  0  0  0  0  0
  -83.6842   27.7549    2.6634 C   0  0  0  0  0  0  0  0  0  0  0  0
  -84.6935   26.8851    2.4839 N   0  0  0  0  0  0  0  0  0  0  0  0
  -84.8377   30.6430    0.6575 C   0  0  0  0  0  0  0  0  0  0  0  0
  -83.8076   31.5319    0.4475 C   0  0  0  0  0  0  0  0  0  0  0  0
  -84.3095   32.6026   -0.1892 N   0  0  0  0  0  0  0  0  0  0  0  0
  -83.5349   33.7759   -0.5955 C   0  0  0  0  0  0  0  0  0  0  0  0
  -85.6381   32.4404   -0.4019 C   0  0  0  0  0  0  0  0  0  0  0  0
  -86.5625   33.2728   -1.0144 C   0  0  0  0  0  0  0  0  0  0  0  0
  -87.8446   32.8830   -1.1051 N   0  0  0  0  0  0  0  0  0  0  0  0
  -88.1892   31.6914   -0.5953 C   0  0  0  0  0  0  0  0  0  0  0  0
  -87.2984   30.8343    0.0219 C   0  0  0  0  0  0  0  0  0  0  0  0
  -85.9753   31.2049    0.1310 C   0  0  0  0  0  0  0  0  0  0  0  0
 18 19  1  0  0  0
 19  3  1  0  0  0
  3  4  2  0  0  0
  4  5  1  0  0  0
  5  6  2  0  0  0
  6  7  1  0  0  0
  7  8  2  0  0  0
  8  1  1  0  0  0
  1 20  1  0  0  0
 20 21  2  0  0  0
 21 22  1  0  0  0
 22 23  2  0  0  0
 23 24  1  0  0  0
 24 25  2  0  0  0
 22 26  1  0  0  0
 26 27  2  0  0  0
 27 28  1  0  0  0
 28 29  1  0  0  0
 28 30  1  0  0  0
 30 31  2  0  0  0
 31 32  1  0  0  0
 32 33  2  0  0  0
 33 34  1  0  0  0
 34 35  2  0  0  0
  5  9  1  0  0  0
  9 10  1  0  0  0
 10 11  1  0  0  0
 11 12  1  0  0  0
 12 13  1  0  0  0
 13 14  1  0  0  0
 12 15  1  0  0  0
 15 16  1  0  0  0
 15 17  2  0  0  0
  8  3  1  0  0  0
 25 20  1  0  0  0
 35 26  1  0  0  0
 14  9  1  0  0  0
 35 30  1  0  0  0
  1  2  1  0  0  0
M  END
> <minimizedAffinity>
-9.07608

> <CNNscore>
0.2374218404

> <CNNaffinity>
6.8939237595

> <CNN_VS>
1.6367681026

> <CNNaffinity_variance>
0.1575837880

$$$$
[H]c1nc(-c2c([H])n(C([H])([H])[H])c3c([H])nc([H])c([H])c23)c([H])c(N([H])c2c([H])c([H])c(N3C([H])([H])C([H])([H])N(C(=O)C([H])([H])[H])C([H])([H])C3([H])[H])c([H])c2OC([H])([H])[H])n1


 35 39  0  0  0  0  0  0  0  0999 V2000
  -88.3297   25.7247   -1.5055 N   0  0  0  0  0  0  0  0  0  0  0  0
  -87.4711   25.4948   -2.1345 H   0  0  0  0  0  0  0  0  0  0  0  0
  -90.3512   26.1368   -2.7133 C   0  0  0  0  0  0  0  0  0  0  0  0
  -91.5917   25.7613   -3.1845 C   0  0  0  0  0  0  0  0  0  0  0  0
  -92.1132   24.5216   -2.9196 C   0  0  0  0  0  0  0  0  0  0  0  0
  -91.3383   23.6819   -2.1652 C   0  0  0  0  0  0  0  0  0  0  0  0
  -90.0722   24.0287   -1.6685 C   0  0  0  0  0  0  0  0  0  0  0  0
  -89.5751   25.2623   -1.9435 C   0  0  0  0  0  0  0  0  0  0  0  0
  -93.3952   24.0849   -3.3901 N   0  0  0  0  0  0  0  0  0  0  0  0
  -94.0792   23.0744   -2.6254 C   0  0  0  0  0  0  0  0  0  0  0  0
  -95.4617   22.7857   -3.1682 C   0  0  0  0  0  0  0  0  0  0  0  0
  -95.4238   22.7480   -4.6138 N   0  0  0  0  0  0  0  0  0  0  0  0
  -94.9638   23.9197   -5.3138 C   0  0  0  0  0  0  0  0  0  0  0  0
  -93.9215   24.6663   -4.5750 C   0  0  0  0  0  0  0  0  0  0  0  0
  -95.8292   21.5891   -5.3158 C   0  0  0  0  0  0  0  0  0  0  0  0
  -95.8057   21.5097   -6.7949 C   0  0  0  0  0  0  0  0  0  0  0  0
  -96.2244   20.5878   -4.6704 O   0  0  0  0  0  0  0  0  0  0  0  0
  -90.5265   28.5192   -2.4728 C   0  0  0  0  0  0  0  0  0  0  0  0
  -89.8464   27.3971   -2.9959 O   0  0  0  0  0  0  0  0  0  0  0  0
  -87.9829   26.4538   -0.3643 C   0  0  0  0  0  0  0  0  0  0  0  0
  -87.3871   27.7058   -0.4824 C   0  0  0  0  0  0  0  0  0  0  0  0
  -87.0225   28.4691    0.6235 C   0  0  0  0  0  0  0  0  0  0  0  0
  -87.2600   27.9669    1.8399 N   0  0  0  0  0  0  0  0  0  0  0  0
  -87.8354   26.7577    1.9615 C   0  0  0  0  0  0  0  0  0  0  0  0
  -88.1798   26.0371    0.8800 N   0  0  0  0  0  0  0  0  0  0  0  0
  -86.3957   29.7872    0.3979 C   0  0  0  0  0  0  0  0  0  0  0  0
  -86.9901   30.8839   -0.1847 C   0  0  0  0  0  0  0  0  0  0  0  0
  -86.0895   31.8801   -0.2035 N   0  0  0  0  0  0  0  0  0  0  0  0
  -86.3314   33.2188   -0.7431 C   0  0  0  0  0  0  0  0  0  0  0  0
  -84.9233   31.4673    0.3498 C   0  0  0  0  0  0  0  0  0  0  0  0
  -83.7278   32.1422    0.5444 C   0  0  0  0  0  0  0  0  0  0  0  0
  -82.6971   31.5066    1.1252 N   0  0  0  0  0  0  0  0  0  0  0  0
  -82.8615   30.2294    1.5001 C   0  0  0  0  0  0  0  0  0  0  0  0
  -84.0359   29.5232    1.3236 C   0  0  0  0  0  0  0  0  0  0  0  0
  -85.1124   30.1470    0.7306 C   0  0  0  0  0  0  0  0  0  0  0  0
 18 19  1  0  0  0
 19  3  1  0  0  0
  3  4  2  0  0  0
  4  5  1  0  0  0
  5  6  2  0  0  0
  6  7  1  0  0  0
  7  8  2  0  0  0
  8  1  1  0  0  0
  1 20  1  0  0  0
 20 21  2  0  0  0
 21 22  1  0  0  0
 22 23  2  0  0  0
 23 24  1  0  0  0
 24 25  2  0  0  0
 22 26  1  0  0  0
 26 27  2  0  0  0
 27 28  1  0  0  0
 28 29  1  0  0  0
 28 30  1  0  0  0
 30 31  2  0  0  0
 31 32  1  0  0  0
 32 33  2  0  0  0
 33 34  1  0  0  0
 34 35  2  0  0  0
  5  9  1  0  0  0
  9 10  1  0  0  0
 10 11  1  0  0  0
 11 12  1  0  0  0
 12 13  1  0  0  0
 13 14  1  0  0  0
 12 15  1  0  0  0
 15 16  1  0  0  0
 15 17  2  0  0  0
  8  3  1  0  0  0
 25 20  1  0  0  0
 35 26  1  0  0  0
 14  9  1  0  0  0
 35 30  1  0  0  0
  1  2  1  0  0  0
M  END
> <minimizedAffinity>
-8.76748

> <CNNscore>
0.1598781794

> <CNNaffinity>
6.1169614792

> <CNN_VS>
0.9779686928

> <CNNaffinity_variance>
0.2372850627

$$$$
[H]c1nc(-c2c([H])n(C([H])([H])[H])c3c([H])nc([H])c([H])c23)c([H])c(N([H])c2c([H])c([H])c(N3C([H])([H])C([H])([H])N(C(=O)C([H])([H])[H])C([H])([H])C3([H])[H])c([H])c2OC([H])([H])[H])n1


 35 39  0  0  0  0  0  0  0  0999 V2000
  -88.4175   25.6845   -1.3814 N   0  0  0  0  0  0  0  0  0  0  0  0
  -87.6442   25.0492   -1.8102 H   0  0  0  0  0  0  0  0  0  0  0  0
  -90.4104   24.4806   -1.9239 C   0  0  0  0  0  0  0  0  0  0  0  0
  -91.6530   24.3758   -2.5127 C   0  0  0  0  0  0  0  0  0  0  0  0
  -92.2106   25.4228   -3.1997 C   0  0  0  0  0  0  0  0  0  0  0  0
  -91.4691   26.5718   -3.2684 C   0  0  0  0  0  0  0  0  0  0  0  0
  -90.2019   26.7156   -2.6823 C   0  0  0  0  0  0  0  0  0  0  0  0
  -89.6689   25.6652   -2.0063 C   0  0  0  0  0  0  0  0  0  0  0  0
  -93.4994   25.3628   -3.8249 N   0  0  0  0  0  0  0  0  0  0  0  0
  -93.8615   24.1399   -4.4938 C   0  0  0  0  0  0  0  0  0  0  0  0
  -95.2823   24.1721   -5.0129 C   0  0  0  0  0  0  0  0  0  0  0  0
  -95.5640   25.4670   -5.5931 N   0  0  0  0  0  0  0  0  0  0  0  0
  -95.4244   26.6323   -4.7582 C   0  0  0  0  0  0  0  0  0  0  0  0
  -94.3465   26.5012   -3.7529 C   0  0  0  0  0  0  0  0  0  0  0  0
  -95.9659   25.5796   -6.9444 C   0  0  0  0  0  0  0  0  0  0  0  0
  -96.2638   26.8860   -7.5763 C   0  0  0  0  0  0  0  0  0  0  0  0
  -96.0768   24.5409   -7.6400 O   0  0  0  0  0  0  0  0  0  0  0  0
  -90.3883   23.1064    0.0447 C   0  0  0  0  0  0  0  0  0  0  0  0
  -89.8689   23.4063   -1.2343 O   0  0  0  0  0  0  0  0  0  0  0  0
  -87.9714   26.3997   -0.2662 C   0  0  0  0  0  0  0  0  0  0  0  0
  -87.4071   27.6624   -0.4189 C   0  0  0  0  0  0  0  0  0  0  0  0
  -86.9472   28.4128    0.6601 C   0  0  0  0  0  0  0  0  0  0  0  0
  -87.0585   27.8867    1.8845 N   0  0  0  0  0  0  0  0  0  0  0  0
  -87.6028   26.6670    2.0395 C   0  0  0  0  0  0  0  0  0  0  0  0
  -88.0408   25.9593    0.9836 N   0  0  0  0  0  0  0  0  0  0  0  0
  -86.3634   29.7439    0.3988 C   0  0  0  0  0  0  0  0  0  0  0  0
  -86.9982   30.8099   -0.1978 C   0  0  0  0  0  0  0  0  0  0  0  0
  -86.1283   31.8320   -0.2497 N   0  0  0  0  0  0  0  0  0  0  0  0
  -86.4175   33.1513   -0.8133 C   0  0  0  0  0  0  0  0  0  0  0  0
  -84.9429   31.4657    0.2954 C   0  0  0  0  0  0  0  0  0  0  0  0
  -83.7657   32.1798    0.4593 C   0  0  0  0  0  0  0  0  0  0  0  0
  -82.7086   31.5874    1.0385 N   0  0  0  0  0  0  0  0  0  0  0  0
  -82.8295   30.3141    1.4418 C   0  0  0  0  0  0  0  0  0  0  0  0
  -83.9844   29.5697    1.2964 C   0  0  0  0  0  0  0  0  0  0  0  0
  -85.0871   30.1486    0.7059 C   0  0  0  0  0  0  0  0  0  0  0  0
 18 19  1  0  0  0
 19  3  1  0  0  0
  3  4  2  0  0  0
  4  5  1  0  0  0
  5  6  2  0  0  0
  6  7  1  0  0  0
  7  8  2  0  0  0
  8  1  1  0  0  0
  1 20  1  0  0  0
 20 21  2  0  0  0
 21 22  1  0  0  0
 22 23  2  0  0  0
 23 24  1  0  0  0
 24 25  2  0  0  0
 22 26  1  0  0  0
 26 27  2  0  0  0
 27 28  1  0  0  0
 28 29  1  0  0  0
 28 30  1  0  0  0
 30 31  2  0  0  0
 31 32  1  0  0  0
 32 33  2  0  0  0
 33 34  1  0  0  0
 34 35  2  0  0  0
  5  9  1  0  0  0
  9 10  1  0  0  0
 10 11  1  0  0  0
 11 12  1  0  0  0
 12 13  1  0  0  0
 13 14  1  0  0  0
 12 15  1  0  0  0
 15 16  1  0  0  0
 15 17  2  0  0  0
  8  3  1  0  0  0
 25 20  1  0  0  0
 35 26  1  0  0  0
 14  9  1  0  0  0
 35 30  1  0  0  0
  1  2  1  0  0  0
M  END
> <minimizedAffinity>
-8.86679

> <CNNscore>
0.1497403234

> <CNNaffinity>
6.0327830315

> <CNN_VS>
0.9033508897

> <CNNaffinity_variance>
0.2916689515

$$$$
[H]c1nc(-c2c([H])n(C([H])([H])[H])c3c([H])nc([H])c([H])c23)c([H])c(N([H])c2c([H])c([H])c(N3C([H])([H])C([H])([H])N(C(=O)C([H])([H])[H])C([H])([H])C3([H])[H])c([H])c2OC([H])([H])[H])n1


 35 39  0  0  0  0  0  0  0  0999 V2000
  -88.1314   25.8922   -1.3850 N   0  0  0  0  0  0  0  0  0  0  0  0
  -87.2571   25.6006   -1.9648 H   0  0  0  0  0  0  0  0  0  0  0  0
  -90.0711   26.4374   -2.6715 C   0  0  0  0  0  0  0  0  0  0  0  0
  -91.3076   26.1396   -3.2047 C   0  0  0  0  0  0  0  0  0  0  0  0
  -91.9069   24.9258   -2.9893 C   0  0  0  0  0  0  0  0  0  0  0  0
  -91.2133   24.0307   -2.2196 C   0  0  0  0  0  0  0  0  0  0  0  0
  -89.9540   24.2979   -1.6605 C   0  0  0  0  0  0  0  0  0  0  0  0
  -89.3790   25.5073   -1.8871 C   0  0  0  0  0  0  0  0  0  0  0  0
  -93.1881   24.5692   -3.5250 N   0  0  0  0  0  0  0  0  0  0  0  0
  -93.5930   23.1907   -3.4279 C   0  0  0  0  0  0  0  0  0  0  0  0
  -95.0037   22.9732   -3.9299 C   0  0  0  0  0  0  0  0  0  0  0  0
  -95.2211   23.7453   -5.1337 N   0  0  0  0  0  0  0  0  0  0  0  0
  -95.0432   25.1730   -5.0684 C   0  0  0  0  0  0  0  0  0  0  0  0
  -93.9863   25.5842   -4.1178 C   0  0  0  0  0  0  0  0  0  0  0  0
  -95.5986   23.1099   -6.3395 C   0  0  0  0  0  0  0  0  0  0  0  0
  -95.8310   23.8638   -7.5934 C   0  0  0  0  0  0  0  0  0  0  0  0
  -95.7443   21.8634   -6.3566 O   0  0  0  0  0  0  0  0  0  0  0  0
  -90.0923   28.8144   -2.3339 C   0  0  0  0  0  0  0  0  0  0  0  0
  -89.4866   27.6731   -2.9048 O   0  0  0  0  0  0  0  0  0  0  0  0
  -87.7995   26.6086   -0.2314 C   0  0  0  0  0  0  0  0  0  0  0  0
  -87.0168   27.7560   -0.3156 C   0  0  0  0  0  0  0  0  0  0  0  0
  -86.6588   28.5024    0.8040 C   0  0  0  0  0  0  0  0  0  0  0  0
  -87.0911   28.0884    1.9999 N   0  0  0  0  0  0  0  0  0  0  0  0
  -87.8478   26.9804    2.0887 C   0  0  0  0  0  0  0  0  0  0  0  0
  -88.1821   26.2744    0.9944 N   0  0  0  0  0  0  0  0  0  0  0  0
  -85.8250   29.7064    0.6147 C   0  0  0  0  0  0  0  0  0  0  0  0
  -84.4958   29.8385    0.9481 C   0  0  0  0  0  0  0  0  0  0  0  0
  -84.1086   31.0811    0.6166 N   0  0  0  0  0  0  0  0  0  0  0  0
  -82.7615   31.6193    0.8104 C   0  0  0  0  0  0  0  0  0  0  0  0
  -85.1457   31.7660    0.0761 C   0  0  0  0  0  0  0  0  0  0  0  0
  -85.2168   33.0640   -0.4062 C   0  0  0  0  0  0  0  0  0  0  0  0
  -86.3780   33.5222   -0.9016 N   0  0  0  0  0  0  0  0  0  0  0  0
  -87.4381   32.7008   -0.9125 C   0  0  0  0  0  0  0  0  0  0  0  0
  -87.4073   31.4022   -0.4416 C   0  0  0  0  0  0  0  0  0  0  0  0
  -86.2308   30.9018    0.0732 C   0  0  0  0  0  0  0  0  0  0  0  0
 18 19  1  0  0  0
 19  3  1  0  0  0
  3  4  2  0  0  0
  4  5  1  0  0  0
  5  6  2  0  0  0
  6  7  1  0  0  0
  7  8  2  0  0  0
  8  1  1  0  0  0
  1 20  1  0  0  0
 20 21  2  0  0  0
 21 22  1  0  0  0
 22 23  2  0  0  0
 23 24  1  0  0  0
 24 25  2  0  0  0
 22 26  1  0  0  0
 26 27  2  0  0  0
 27 28  1  0  0  0
 28 29  1  0  0  0
 28 30  1  0  0  0
 30 31  2  0  0  0
 31 32  1  0  0  0
 32 33  2  0  0  0
 33 34  1  0  0  0
 34 35  2  0  0  0
  5  9  1  0  0  0
  9 10  1  0  0  0
 10 11  1  0  0  0
 11 12  1  0  0  0
 12 13  1  0  0  0
 13 14  1  0  0  0
 12 15  1  0  0  0
 15 16  1  0  0  0
 15 17  2  0  0  0
  8  3  1  0  0  0
 25 20  1  0  0  0
 35 26  1  0  0  0
 14  9  1  0  0  0
 35 30  1  0  0  0
  1  2  1  0  0  0
M  END
> <minimizedAffinity>
-8.80717

> <CNNscore>
0.1371331364

> <CNNaffinity>
6.0434579849

> <CNN_VS>
0.8287583590

> <CNNaffinity_variance>
0.3252613842

$$$$
[H]c1nc(-c2c([H])n(C([H])([H])[H])c3c([H])nc([H])c([H])c23)c([H])c(N([H])c2c([H])c([H])c(N3C([H])([H])C([H])([H])N(C(=O)C([H])([H])[H])C([H])([H])C3([H])[H])c([H])c2OC([H])([H])[H])n1


 35 39  0  0  0  0  0  0  0  0999 V2000
  -90.4028   31.4965   -1.8556 N   0  0  0  0  0  0  0  0  0  0  0  0
  -91.2592   32.1095   -2.1320 H   0  0  0  0  0  0  0  0  0  0  0  0
  -90.1436   29.2347   -2.5851 C   0  0  0  0  0  0  0  0  0  0  0  0
  -90.3376   27.8762   -2.4478 C   0  0  0  0  0  0  0  0  0  0  0  0
  -91.0255   27.3551   -1.3827 C   0  0  0  0  0  0  0  0  0  0  0  0
  -91.5065   28.2535   -0.4683 C   0  0  0  0  0  0  0  0  0  0  0  0
  -91.3291   29.6417   -0.5745 C   0  0  0  0  0  0  0  0  0  0  0  0
  -90.6442   30.1359   -1.6381 C   0  0  0  0  0  0  0  0  0  0  0  0
  -91.2494   25.9514   -1.1951 N   0  0  0  0  0  0  0  0  0  0  0  0
  -92.0217   25.5450   -0.0497 C   0  0  0  0  0  0  0  0  0  0  0  0
  -92.2741   24.0533   -0.0314 C   0  0  0  0  0  0  0  0  0  0  0  0
  -91.0754   23.3474   -0.4280 N   0  0  0  0  0  0  0  0  0  0  0  0
  -90.5127   23.6347   -1.7223 C   0  0  0  0  0  0  0  0  0  0  0  0
  -90.7042   25.0412   -2.1401 C   0  0  0  0  0  0  0  0  0  0  0  0
  -90.4765   22.4012    0.4359 C   0  0  0  0  0  0  0  0  0  0  0  0
  -89.2495   21.6572    0.0678 C   0  0  0  0  0  0  0  0  0  0  0  0
  -90.9967   22.1778    1.5560 O   0  0  0  0  0  0  0  0  0  0  0  0
  -88.0451   29.5423   -3.7102 C   0  0  0  0  0  0  0  0  0  0  0  0
  -89.4438   29.7361   -3.6722 O   0  0  0  0  0  0  0  0  0  0  0  0
  -89.2159   32.2309   -1.7783 C   0  0  0  0  0  0  0  0  0  0  0  0
  -88.1136   31.7189   -1.1007 C   0  0  0  0  0  0  0  0  0  0  0  0
  -86.9108   32.4123   -0.9950 C   0  0  0  0  0  0  0  0  0  0  0  0
  -86.8264   33.6159   -1.5718 N   0  0  0  0  0  0  0  0  0  0  0  0
  -87.8876   34.1169   -2.2281 C   0  0  0  0  0  0  0  0  0  0  0  0
  -89.0399   33.4302   -2.3183 N   0  0  0  0  0  0  0  0  0  0  0  0
  -85.7960   31.7867   -0.2556 C   0  0  0  0  0  0  0  0  0  0  0  0
  -84.5495   32.3319   -0.0448 C   0  0  0  0  0  0  0  0  0  0  0  0
  -83.8293   31.4515    0.6693 N   0  0  0  0  0  0  0  0  0  0  0  0
  -82.4462   31.6550    1.1021 C   0  0  0  0  0  0  0  0  0  0  0  0
  -84.5681   30.3461    0.9318 C   0  0  0  0  0  0  0  0  0  0  0  0
  -84.2475   29.1905    1.6279 C   0  0  0  0  0  0  0  0  0  0  0  0
  -85.1663   28.2191    1.7546 N   0  0  0  0  0  0  0  0  0  0  0  0
  -86.3728   28.4023    1.1984 C   0  0  0  0  0  0  0  0  0  0  0  0
  -86.7302   29.5384    0.4978 C   0  0  0  0  0  0  0  0  0  0  0  0
  -85.8099   30.5537    0.3498 C   0  0  0  0  0  0  0  0  0  0  0  0
 18 19  1  0  0  0
 19  3  1  0  0  0
  3  4  2  0  0  0
  4  5  1  0  0  0
  5  6  2  0  0  0
  6  7  1  0  0  0
  7  8  2  0  0  0
  8  1  1  0  0  0
  1 20  1  0  0  0
 20 21  2  0  0  0
 21 22  1  0  0  0
 22 23  2  0  0  0
 23 24  1  0  0  0
 24 25  2  0  0  0
 22 26  1  0  0  0
 26 27  2  0  0  0
 27 28  1  0  0  0
 28 29  1  0  0  0
 28 30  1  0  0  0
 30 31  2  0  0  0
 31 32  1  0  0  0
 32 33  2  0  0  0
 33 34  1  0  0  0
 34 35  2  0  0  0
  5  9  1  0  0  0
  9 10  1  0  0  0
 10 11  1  0  0  0
 11 12  1  0  0  0
 12 13  1  0  0  0
 13 14  1  0  0  0
 12 15  1  0  0  0
 15 16  1  0  0  0
 15 17  2  0  0  0
  8  3  1  0  0  0
 25 20  1  0  0  0
 35 26  1  0  0  0
 14  9  1  0  0  0
 35 30  1  0  0  0
  1  2  1  0  0  0
M  END
> <minimizedAffinity>
-8.28627

> <CNNscore>
0.1002732143

> <CNNaffinity>
6.7872552872

> <CNN_VS>
0.6805799007

> <CNNaffinity_variance>
0.0848392695

$$$$
[H]c1nc(-c2c([H])n(C([H])([H])[H])c3c([H])nc([H])c([H])c23)c([H])c(N([H])c2c([H])c([H])c(N3C([H])([H])C([H])([H])N(C(=O)C([H])([H])[H])C([H])([H])C3([H])[H])c([H])c2OC([H])([H])[H])n1


 35 39  0  0  0  0  0  0  0  0999 V2000
  -85.4775   30.9280    1.3275 N   0  0  0  0  0  0  0  0  0  0  0  0
  -84.9602   31.5567    2.0505 H   0  0  0  0  0  0  0  0  0  0  0  0
  -85.4461   32.6591   -0.3210 C   0  0  0  0  0  0  0  0  0  0  0  0
  -86.0046   33.3574   -1.3709 C   0  0  0  0  0  0  0  0  0  0  0  0
  -87.2331   33.0242   -1.8797 C   0  0  0  0  0  0  0  0  0  0  0  0
  -87.8711   31.9657   -1.2905 C   0  0  0  0  0  0  0  0  0  0  0  0
  -87.3347   31.2319   -0.2211 C   0  0  0  0  0  0  0  0  0  0  0  0
  -86.1158   31.5795    0.2669 C   0  0  0  0  0  0  0  0  0  0  0  0
  -87.8524   33.7174   -2.9713 N   0  0  0  0  0  0  0  0  0  0  0  0
  -87.0413   34.6389   -3.7242 C   0  0  0  0  0  0  0  0  0  0  0  0
  -87.7839   35.2167   -4.9091 C   0  0  0  0  0  0  0  0  0  0  0  0
  -89.1425   35.5366   -4.5289 N   0  0  0  0  0  0  0  0  0  0  0  0
  -89.9754   34.4765   -4.0222 C   0  0  0  0  0  0  0  0  0  0  0  0
  -89.2213   33.4619   -3.2531 C   0  0  0  0  0  0  0  0  0  0  0  0
  -89.6343   36.8567   -4.6539 C   0  0  0  0  0  0  0  0  0  0  0  0
  -91.0184   37.2257   -4.2761 C   0  0  0  0  0  0  0  0  0  0  0  0
  -88.8780   37.7535   -5.1000 O   0  0  0  0  0  0  0  0  0  0  0  0
  -83.0550   32.5680   -0.5179 C   0  0  0  0  0  0  0  0  0  0  0  0
  -84.2014   33.0164    0.1749 O   0  0  0  0  0  0  0  0  0  0  0  0
  -85.3841   29.5668    1.6315 C   0  0  0  0  0  0  0  0  0  0  0  0
  -86.5156   28.7577    1.5955 C   0  0  0  0  0  0  0  0  0  0  0  0
  -86.4738   27.3977    1.8912 C   0  0  0  0  0  0  0  0  0  0  0  0
  -85.2937   26.8622    2.2211 N   0  0  0  0  0  0  0  0  0  0  0  0
  -84.1961   27.6381    2.2580 C   0  0  0  0  0  0  0  0  0  0  0  0
  -84.2588   28.9495    1.9685 N   0  0  0  0  0  0  0  0  0  0  0  0
  -87.7278   26.6205    1.8256 C   0  0  0  0  0  0  0  0  0  0  0  0
  -88.4709   26.1794    2.8973 C   0  0  0  0  0  0  0  0  0  0  0  0
  -89.5338   25.5138    2.4166 N   0  0  0  0  0  0  0  0  0  0  0  0
  -90.5712   24.8865    3.2365 C   0  0  0  0  0  0  0  0  0  0  0  0
  -89.5079   25.5065    1.0617 C   0  0  0  0  0  0  0  0  0  0  0  0
  -90.3856   24.9479    0.1450 C   0  0  0  0  0  0  0  0  0  0  0  0
  -90.1396   25.0774   -1.1690 N   0  0  0  0  0  0  0  0  0  0  0  0
  -89.0436   25.7485   -1.5522 C   0  0  0  0  0  0  0  0  0  0  0  0
  -88.1458   26.3190   -0.6704 C   0  0  0  0  0  0  0  0  0  0  0  0
  -88.3696   26.2039    0.6847 C   0  0  0  0  0  0  0  0  0  0  0  0
 18 19  1  0  0  0
 19  3  1  0  0  0
  3  4  2  0  0  0
  4  5  1  0  0  0
  5  6  2  0  0  0
  6  7  1  0  0  0
  7  8  2  0  0  0
  8  1  1  0  0  0
  1 20  1  0  0  0
 20 21  2  0  0  0
 21 22  1  0  0  0
 22 23  2  0  0  0
 23 24  1  0  0  0
 24 25  2  0  0  0
 22 26  1  0  0  0
 26 27  2  0  0  0
 27 28  1  0  0  0
 28 29  1  0  0  0
 28 30  1  0  0  0
 30 31  2  0  0  0
 31 32  1  0  0  0
 32 33  2  0  0  0
 33 34  1  0  0  0
 34 35  2  0  0  0
  5  9  1  0  0  0
  9 10  1  0  0  0
 10 11  1  0  0  0
 11 12  1  0  0  0
 12 13  1  0  0  0
 13 14  1  0  0  0
 12 15  1  0  0  0
 15 16  1  0  0  0
 15 17  2  0  0  0
  8  3  1  0  0  0
 25 20  1  0  0  0
 35 26  1  0  0  0
 14  9  1  0  0  0
 35 30  1  0  0  0
  1  2  1  0  0  0
M  END
> <minimizedAffinity>
-9.00164

> <CNNscore>
0.0883990750

> <CNNaffinity>
6.7623319626

> <CNN_VS>
0.5977838635

> <CNNaffinity_variance>
0.2670499682

$$$$
[H]c1nc(-c2c([H])n(C([H])([H])[H])c3c([H])nc([H])c([H])c23)c([H])c(N([H])c2c([H])c([H])c(N3C([H])([H])C([H])([H])N(C(=O)C([H])([H])[H])C([H])([H])C3([H])[H])c([H])c2OC([H])([H])[H])n1


 35 39  0  0  0  0  0  0  0  0999 V2000
  -85.9796   30.7112    1.0838 N   0  0  0  0  0  0  0  0  0  0  0  0
  -85.6350   31.3770    1.8735 H   0  0  0  0  0  0  0  0  0  0  0  0
  -85.7890   32.4429   -0.5533 C   0  0  0  0  0  0  0  0  0  0  0  0
  -86.2036   33.0973   -1.6942 C   0  0  0  0  0  0  0  0  0  0  0  0
  -87.2917   32.6696   -2.4097 C   0  0  0  0  0  0  0  0  0  0  0  0
  -87.9404   31.5629   -1.9311 C   0  0  0  0  0  0  0  0  0  0  0  0
  -87.5482   30.8713   -0.7745 C   0  0  0  0  0  0  0  0  0  0  0  0
  -86.4669   31.3127   -0.0813 C   0  0  0  0  0  0  0  0  0  0  0  0
  -87.7581   33.3142   -3.6025 N   0  0  0  0  0  0  0  0  0  0  0  0
  -87.2628   34.6366   -3.8849 C   0  0  0  0  0  0  0  0  0  0  0  0
  -87.7468   35.1542   -5.2218 C   0  0  0  0  0  0  0  0  0  0  0  0
  -89.1395   34.8095   -5.4069 N   0  0  0  0  0  0  0  0  0  0  0  0
  -89.5075   33.4176   -5.3679 C   0  0  0  0  0  0  0  0  0  0  0  0
  -88.6756   32.6222   -4.4380 C   0  0  0  0  0  0  0  0  0  0  0  0
  -90.1093   35.8165   -5.6204 C   0  0  0  0  0  0  0  0  0  0  0  0
  -91.5448   35.5058   -5.8144 C   0  0  0  0  0  0  0  0  0  0  0  0
  -89.7496   37.0186   -5.6481 O   0  0  0  0  0  0  0  0  0  0  0  0
  -83.4077   32.7213   -0.4259 C   0  0  0  0  0  0  0  0  0  0  0  0
  -84.6846   32.8960    0.1523 O   0  0  0  0  0  0  0  0  0  0  0  0
  -85.8531   29.3610    1.4230 C   0  0  0  0  0  0  0  0  0  0  0  0
  -86.9300   28.4928    1.2714 C   0  0  0  0  0  0  0  0  0  0  0  0
  -86.8537   27.1410    1.5962 C   0  0  0  0  0  0  0  0  0  0  0  0
  -85.6946   26.6730    2.0713 N   0  0  0  0  0  0  0  0  0  0  0  0
  -84.6498   27.5064    2.2204 C   0  0  0  0  0  0  0  0  0  0  0  0
  -84.7450   28.8086    1.9003 N   0  0  0  0  0  0  0  0  0  0  0  0
  -88.0502   26.2977    1.4004 C   0  0  0  0  0  0  0  0  0  0  0  0
  -88.4609   25.7270    0.2168 C   0  0  0  0  0  0  0  0  0  0  0  0
  -89.5885   25.0390    0.4596 N   0  0  0  0  0  0  0  0  0  0  0  0
  -90.3432   24.2854   -0.5425 C   0  0  0  0  0  0  0  0  0  0  0  0
  -89.9277   25.1430    1.7676 C   0  0  0  0  0  0  0  0  0  0  0  0
  -90.9984   24.6082    2.4677 C   0  0  0  0  0  0  0  0  0  0  0  0
  -91.1198   24.8583    3.7817 N   0  0  0  0  0  0  0  0  0  0  0  0
  -90.1929   25.6237    4.3763 C   0  0  0  0  0  0  0  0  0  0  0  0
  -89.1126   26.1743    3.7137 C   0  0  0  0  0  0  0  0  0  0  0  0
  -88.9594   25.9366    2.3648 C   0  0  0  0  0  0  0  0  0  0  0  0
 18 19  1  0  0  0
 19  3  1  0  0  0
  3  4  2  0  0  0
  4  5  1  0  0  0
  5  6  2  0  0  0
  6  7  1  0  0  0
  7  8  2  0  0  0
  8  1  1  0  0  0
  1 20  1  0  0  0
 20 21  2  0  0  0
 21 22  1  0  0  0
 22 23  2  0  0  0
 23 24  1  0  0  0
 24 25  2  0  0  0
 22 26  1  0  0  0
 26 27  2  0  0  0
 27 28  1  0  0  0
 28 29  1  0  0  0
 28 30  1  0  0  0
 30 31  2  0  0  0
 31 32  1  0  0  0
 32 33  2  0  0  0
 33 34  1  0  0  0
 34 35  2  0  0  0
  5  9  1  0  0  0
  9 10  1  0  0  0
 10 11  1  0  0  0
 11 12  1  0  0  0
 12 13  1  0  0  0
 13 14  1  0  0  0
 12 15  1  0  0  0
 15 16  1  0  0  0
 15 17  2  0  0  0
  8  3  1  0  0  0
 25 20  1  0  0  0
 35 26  1  0  0  0
 14  9  1  0  0  0
 35 30  1  0  0  0
  1  2  1  0  0  0
M  END
> <minimizedAffinity>
-8.96803

> <CNNscore>
0.0630738437

> <CNNaffinity>
6.4145889282

> <CNN_VS>
0.4045927823

> <CNNaffinity_variance>
0.4381267428

$$$$
[H]c1sc(-c2c([H])c([H])c3c(c2[H])C([H])([H])C([H])([H])O3)nc1C(=O)N([H])c1nc2c([H])c(C(=O)N(C([H])([H])[H])C([H])([H])[H])c([H])c([H])c2n1[H]


 33 37  0  0  0  0  0  0  0  0999 V2000
  -85.1570   33.6362   -1.5819 N   0  0  0  0  0  0  0  0  0  0  0  0
  -84.2419   33.2075   -0.6542 C   0  0  0  0  0  0  0  0  0  0  0  0
  -83.2606   34.0385   -0.4070 O   0  0  0  0  0  0  0  0  0  0  0  0
  -84.9323   34.6156   -2.0099 H   0  0  0  0  0  0  0  0  0  0  0  0
  -90.3963   31.0546   -2.8798 C   0  0  0  0  0  0  0  0  0  0  0  0
  -89.8463   31.0166   -4.1295 C   0  0  0  0  0  0  0  0  0  0  0  0
  -88.5621   31.5262   -4.3673 C   0  0  0  0  0  0  0  0  0  0  0  0
  -87.8133   32.0840   -3.3376 C   0  0  0  0  0  0  0  0  0  0  0  0
  -86.5933   32.6337   -3.2679 N   0  0  0  0  0  0  0  0  0  0  0  0
  -86.3764   33.0211   -1.9579 C   0  0  0  0  0  0  0  0  0  0  0  0
  -87.4701   32.6971   -1.2640 N   0  0  0  0  0  0  0  0  0  0  0  0
  -88.3494   32.1314   -2.0728 C   0  0  0  0  0  0  0  0  0  0  0  0
  -89.6096   31.6306   -1.8434 C   0  0  0  0  0  0  0  0  0  0  0  0
  -85.9565   32.7304   -4.0824 H   0  0  0  0  0  0  0  0  0  0  0  0
  -93.2886   31.8970   -3.9178 C   0  0  0  0  0  0  0  0  0  0  0  0
  -92.9348   30.9499   -2.9366 N   0  0  0  0  0  0  0  0  0  0  0  0
  -94.1028   30.2523   -2.3007 C   0  0  0  0  0  0  0  0  0  0  0  0
  -91.6975   30.5662   -2.4718 C   0  0  0  0  0  0  0  0  0  0  0  0
  -91.6891   29.6309   -1.5315 O   0  0  0  0  0  0  0  0  0  0  0  0
  -84.1886   31.9380    0.1237 C   0  0  0  0  0  0  0  0  0  0  0  0
  -83.2090   31.6279    1.0320 C   0  0  0  0  0  0  0  0  0  0  0  0
  -83.6691   30.0525    1.5219 S   0  0  0  0  0  0  0  0  0  0  0  0
  -85.0641   29.8810    0.5574 C   0  0  0  0  0  0  0  0  0  0  0  0
  -85.1025   31.0214   -0.0793 N   0  0  0  0  0  0  0  0  0  0  0  0
  -85.9974   28.7282    0.4652 C   0  0  0  0  0  0  0  0  0  0  0  0
  -85.9288   27.7561    1.4158 C   0  0  0  0  0  0  0  0  0  0  0  0
  -86.8015   26.6634    1.3439 C   0  0  0  0  0  0  0  0  0  0  0  0
  -87.7182   26.5818    0.3159 C   0  0  0  0  0  0  0  0  0  0  0  0
  -88.6773   25.5960    0.0447 O   0  0  0  0  0  0  0  0  0  0  0  0
  -89.5744   26.0695   -0.9479 C   0  0  0  0  0  0  0  0  0  0  0  0
  -88.8671   27.2187   -1.6317 C   0  0  0  0  0  0  0  0  0  0  0  0
  -87.7980   27.5617   -0.6553 C   0  0  0  0  0  0  0  0  0  0  0  0
  -86.9071   28.6371   -0.5459 C   0  0  0  0  0  0  0  0  0  0  0  0
 15 16  1  0  0  0
 16 17  1  0  0  0
 16 18  1  0  0  0
 18 19  2  0  0  0
 18  5  1  0  0  0
  5  6  2  0  0  0
  6  7  1  0  0  0
  7  8  2  0  0  0
  8  9  1  0  0  0
  9 10  1  0  0  0
 10  1  1  0  0  0
  1  2  1  0  0  0
  2  3  2  0  0  0
  2 20  1  0  0  0
 20 21  2  0  0  0
 21 22  1  0  0  0
 22 23  1  0  0  0
 23 24  2  0  0  0
 23 25  1  0  0  0
 25 26  2  0  0  0
 26 27  1  0  0  0
 27 28  2  0  0  0
 28 29  1  0  0  0
 29 30  1  0  0  0
 30 31  1  0  0  0
 31 32  1  0  0  0
 32 33  2  0  0  0
 10 11  2  0  0  0
 11 12  1  0  0  0
 12 13  2  0  0  0
 13  5  1  0  0  0
 12  8  1  0  0  0
 24 20  1  0  0  0
 33 25  1  0  0  0
 32 28  1  0  0  0
  9 14  1  0  0  0
  1  4  1  0  0  0
M  END
> <minimizedAffinity>
-8.91667

> <CNNscore>
0.8066746593

> <CNNaffinity>
7.1939916611

> <CNN_VS>
5.8032107353

> <CNNaffinity_variance>
0.0685594827

$$$$
[H]c1sc(-c2c([H])c([H])c3c(c2[H])C([H])([H])C([H])([H])O3)nc1C(=O)N([H])c1nc2c([H])c(C(=O)N(C([H])([H])[H])C([H])([H])[H])c([H])c([H])c2n1[H]


 33 37  0  0  0  0  0  0  0  0999 V2000
  -85.2083   33.5550   -1.4517 N   0  0  0  0  0  0  0  0  0  0  0  0
  -84.2041   33.1633   -0.6032 C   0  0  0  0  0  0  0  0  0  0  0  0
  -83.2273   34.0225   -0.4537 O   0  0  0  0  0  0  0  0  0  0  0  0
  -85.0483   34.5335   -1.9098 H   0  0  0  0  0  0  0  0  0  0  0  0
  -90.3251   30.7819   -2.8400 C   0  0  0  0  0  0  0  0  0  0  0  0
  -90.5699   30.9878   -1.5121 C   0  0  0  0  0  0  0  0  0  0  0  0
  -89.6289   31.6329   -0.6975 C   0  0  0  0  0  0  0  0  0  0  0  0
  -88.4208   32.0807   -1.2189 C   0  0  0  0  0  0  0  0  0  0  0  0
  -87.3601   32.7119   -0.6973 N   0  0  0  0  0  0  0  0  0  0  0  0
  -86.4392   32.9038   -1.7112 C   0  0  0  0  0  0  0  0  0  0  0  0
  -86.9631   32.3843   -2.8241 N   0  0  0  0  0  0  0  0  0  0  0  0
  -88.1558   31.8830   -2.5531 C   0  0  0  0  0  0  0  0  0  0  0  0
  -89.0814   31.2496   -3.3492 C   0  0  0  0  0  0  0  0  0  0  0  0
  -87.2871   32.9894    0.3008 H   0  0  0  0  0  0  0  0  0  0  0  0
  -92.2689   32.1028   -4.9917 C   0  0  0  0  0  0  0  0  0  0  0  0
  -92.0247   30.7404   -4.7288 N   0  0  0  0  0  0  0  0  0  0  0  0
  -92.8041   29.7938   -5.5960 C   0  0  0  0  0  0  0  0  0  0  0  0
  -91.1916   30.1442   -3.8098 C   0  0  0  0  0  0  0  0  0  0  0  0
  -91.1754   28.8180   -3.8074 O   0  0  0  0  0  0  0  0  0  0  0  0
  -84.0488   31.9070    0.1823 C   0  0  0  0  0  0  0  0  0  0  0  0
  -82.9099   31.5540    0.8599 C   0  0  0  0  0  0  0  0  0  0  0  0
  -83.3355   30.0185    1.4881 S   0  0  0  0  0  0  0  0  0  0  0  0
  -84.9179   29.9150    0.8628 C   0  0  0  0  0  0  0  0  0  0  0  0
  -85.0343   31.0442    0.2155 N   0  0  0  0  0  0  0  0  0  0  0  0
  -85.9105   28.8197    1.0156 C   0  0  0  0  0  0  0  0  0  0  0  0
  -85.5712   27.7313    1.7596 C   0  0  0  0  0  0  0  0  0  0  0  0
  -86.4953   26.6906    1.9140 C   0  0  0  0  0  0  0  0  0  0  0  0
  -87.7348   26.7768    1.3141 C   0  0  0  0  0  0  0  0  0  0  0  0
  -88.8046   25.8709    1.3300 O   0  0  0  0  0  0  0  0  0  0  0  0
  -89.9661   26.5019    0.8133 C   0  0  0  0  0  0  0  0  0  0  0  0
  -89.4743   27.7022    0.0349 C   0  0  0  0  0  0  0  0  0  0  0  0
  -88.0916   27.8760    0.5564 C   0  0  0  0  0  0  0  0  0  0  0  0
  -87.1381   28.8940    0.4275 C   0  0  0  0  0  0  0  0  0  0  0  0
 15 16  1  0  0  0
 16 17  1  0  0  0
 16 18  1  0  0  0
 18 19  2  0  0  0
 18  5  1  0  0  0
  5  6  2  0  0  0
  6  7  1  0  0  0
  7  8  2  0  0  0
  8  9  1  0  0  0
  9 10  1  0  0  0
 10  1  1  0  0  0
  1  2  1  0  0  0
  2  3  2  0  0  0
  2 20  1  0  0  0
 20 21  2  0  0  0
 21 22  1  0  0  0
 22 23  1  0  0  0
 23 24  2  0  0  0
 23 25  1  0  0  0
 25 26  2  0  0  0
 26 27  1  0  0  0
 27 28  2  0  0  0
 28 29  1  0  0  0
 29 30  1  0  0  0
 30 31  1  0  0  0
 31 32  1  0  0  0
 32 33  2  0  0  0
 10 11  2  0  0  0
 11 12  1  0  0  0
 12 13  2  0  0  0
 13  5  1  0  0  0
 12  8  1  0  0  0
 24 20  1  0  0  0
 33 25  1  0  0  0
 32 28  1  0  0  0
  9 14  1  0  0  0
  1  4  1  0  0  0
M  END
> <minimizedAffinity>
-9.22034

> <CNNscore>
0.7915241718

> <CNNaffinity>
7.2885336876

> <CNN_VS>
5.7690505981

> <CNNaffinity_variance>
0.0771288052

$$$$
[H]c1sc(-c2c([H])c([H])c3c(c2[H])C([H])([H])C([H])([H])O3)nc1C(=O)N([H])c1nc2c([H])c(C(=O)N(C([H])([H])[H])C([H])([H])[H])c([H])c([H])c2n1[H]


 33 37  0  0  0  0  0  0  0  0999 V2000
  -83.5171   32.5844   -0.3133 N   0  0  0  0  0  0  0  0  0  0  0  0
  -83.0967   31.5615    0.4984 C   0  0  0  0  0  0  0  0  0  0  0  0
  -81.8605   31.6507    0.9207 O   0  0  0  0  0  0  0  0  0  0  0  0
  -82.7504   33.3350   -0.5175 H   0  0  0  0  0  0  0  0  0  0  0  0
  -88.8955   33.7726   -2.6499 C   0  0  0  0  0  0  0  0  0  0  0  0
  -89.3076   33.0220   -1.5857 C   0  0  0  0  0  0  0  0  0  0  0  0
  -88.3808   32.4793   -0.6848 C   0  0  0  0  0  0  0  0  0  0  0  0
  -87.0169   32.6901   -0.8499 C   0  0  0  0  0  0  0  0  0  0  0  0
  -85.9281   32.3081   -0.1686 N   0  0  0  0  0  0  0  0  0  0  0  0
  -84.8199   32.8257   -0.8143 C   0  0  0  0  0  0  0  0  0  0  0  0
  -85.2627   33.5096   -1.8721 N   0  0  0  0  0  0  0  0  0  0  0  0
  -86.5822   33.4426   -1.9148 C   0  0  0  0  0  0  0  0  0  0  0  0
  -87.4944   33.9735   -2.7966 C   0  0  0  0  0  0  0  0  0  0  0  0
  -85.9598   31.7250    0.6901 H   0  0  0  0  0  0  0  0  0  0  0  0
  -90.7342   32.4403   -4.8853 C   0  0  0  0  0  0  0  0  0  0  0  0
  -90.5063   33.8041   -4.6152 N   0  0  0  0  0  0  0  0  0  0  0  0
  -91.2427   34.7460   -5.5240 C   0  0  0  0  0  0  0  0  0  0  0  0
  -89.7213   34.4052   -3.6578 C   0  0  0  0  0  0  0  0  0  0  0  0
  -89.7167   35.7314   -3.6520 O   0  0  0  0  0  0  0  0  0  0  0  0
  -83.8301   30.3577    0.9806 C   0  0  0  0  0  0  0  0  0  0  0  0
  -83.4760   29.6274    2.0861 C   0  0  0  0  0  0  0  0  0  0  0  0
  -84.6436   28.3743    2.0692 S   0  0  0  0  0  0  0  0  0  0  0  0
  -85.5055   28.8456    0.6762 C   0  0  0  0  0  0  0  0  0  0  0  0
  -84.8630   29.9205    0.3033 N   0  0  0  0  0  0  0  0  0  0  0  0
  -86.6862   28.1982    0.0474 C   0  0  0  0  0  0  0  0  0  0  0  0
  -87.0482   26.9546    0.4666 C   0  0  0  0  0  0  0  0  0  0  0  0
  -88.1587   26.3307   -0.1152 C   0  0  0  0  0  0  0  0  0  0  0  0
  -88.8724   26.9782   -1.1027 C   0  0  0  0  0  0  0  0  0  0  0  0
  -90.0015   26.5553   -1.8179 O   0  0  0  0  0  0  0  0  0  0  0  0
  -90.5523   27.6555   -2.5255 C   0  0  0  0  0  0  0  0  0  0  0  0
  -89.4532   28.6924   -2.6002 C   0  0  0  0  0  0  0  0  0  0  0  0
  -88.5154   28.2406   -1.5371 C   0  0  0  0  0  0  0  0  0  0  0  0
  -87.3988   28.8283   -0.9289 C   0  0  0  0  0  0  0  0  0  0  0  0
 15 16  1  0  0  0
 16 17  1  0  0  0
 16 18  1  0  0  0
 18 19  2  0  0  0
 18  5  1  0  0  0
  5  6  2  0  0  0
  6  7  1  0  0  0
  7  8  2  0  0  0
  8  9  1  0  0  0
  9 10  1  0  0  0
 10  1  1  0  0  0
  1  2  1  0  0  0
  2  3  2  0  0  0
  2 20  1  0  0  0
 20 21  2  0  0  0
 21 22  1  0  0  0
 22 23  1  0  0  0
 23 24  2  0  0  0
 23 25  1  0  0  0
 25 26  2  0  0  0
 26 27  1  0  0  0
 27 28  2  0  0  0
 28 29  1  0  0  0
 29 30  1  0  0  0
 30 31  1  0  0  0
 31 32  1  0  0  0
 32 33  2  0  0  0
 10 11  2  0  0  0
 11 12  1  0  0  0
 12 13  2  0  0  0
 13  5  1  0  0  0
 12  8  1  0  0  0
 24 20  1  0  0  0
 33 25  1  0  0  0
 32 28  1  0  0  0
  9 14  1  0  0  0
  1  4  1  0  0  0
M  END
> <minimizedAffinity>
-8.83024

> <CNNscore>
0.5607266426

> <CNNaffinity>
7.1279106140

> <CNN_VS>
3.9968094826

> <CNNaffinity_variance>
0.1054354161

$$$$
[H]c1sc(-c2c([H])c([H])c3c(c2[H])C([H])([H])C([H])([H])O3)nc1C(=O)N([H])c1nc2c([H])c(C(=O)N(C([H])([H])[H])C([H])([H])[H])c([H])c([H])c2n1[H]


 33 37  0  0  0  0  0  0  0  0999 V2000
  -83.7836   31.9879    0.1645 N   0  0  0  0  0  0  0  0  0  0  0  0
  -83.6893   30.8218    0.8808 C   0  0  0  0  0  0  0  0  0  0  0  0
  -82.5826   30.6696    1.5638 O   0  0  0  0  0  0  0  0  0  0  0  0
  -82.9053   32.6322    0.2443 H   0  0  0  0  0  0  0  0  0  0  0  0
  -88.2895   34.2118   -3.0838 C   0  0  0  0  0  0  0  0  0  0  0  0
  -89.0319   33.6141   -2.1053 C   0  0  0  0  0  0  0  0  0  0  0  0
  -88.4148   32.9224   -1.0537 C   0  0  0  0  0  0  0  0  0  0  0  0
  -87.0303   32.8258   -0.9779 C   0  0  0  0  0  0  0  0  0  0  0  0
  -86.1848   32.2464   -0.1148 N   0  0  0  0  0  0  0  0  0  0  0  0
  -84.8964   32.4840   -0.5581 C   0  0  0  0  0  0  0  0  0  0  0  0
  -84.9909   33.2020   -1.6800 N   0  0  0  0  0  0  0  0  0  0  0  0
  -86.2656   33.4205   -1.9531 C   0  0  0  0  0  0  0  0  0  0  0  0
  -86.8746   34.0982   -2.9833 C   0  0  0  0  0  0  0  0  0  0  0  0
  -86.4900   31.7210    0.7274 H   0  0  0  0  0  0  0  0  0  0  0  0
  -88.5930   37.3632   -3.4427 C   0  0  0  0  0  0  0  0  0  0  0  0
  -88.8946   36.3296   -4.3513 N   0  0  0  0  0  0  0  0  0  0  0  0
  -89.4375   36.8033   -5.6690 C   0  0  0  0  0  0  0  0  0  0  0  0
  -88.7716   34.9648   -4.2233 C   0  0  0  0  0  0  0  0  0  0  0  0
  -89.1392   34.2424   -5.2730 O   0  0  0  0  0  0  0  0  0  0  0  0
  -84.6546   29.6941    1.0072 C   0  0  0  0  0  0  0  0  0  0  0  0
  -84.5871   28.7224    1.9727 C   0  0  0  0  0  0  0  0  0  0  0  0
  -85.9054   27.7139    1.5502 S   0  0  0  0  0  0  0  0  0  0  0  0
  -86.4613   28.5753    0.1884 C   0  0  0  0  0  0  0  0  0  0  0  0
  -85.6204   29.5738    0.1300 N   0  0  0  0  0  0  0  0  0  0  0  0
  -87.6093   28.2680   -0.7037 C   0  0  0  0  0  0  0  0  0  0  0  0
  -87.9654   26.9664   -0.8833 C   0  0  0  0  0  0  0  0  0  0  0  0
  -89.0453   26.6596   -1.7203 C   0  0  0  0  0  0  0  0  0  0  0  0
  -89.7353   27.6737   -2.3523 C   0  0  0  0  0  0  0  0  0  0  0  0
  -90.8324   27.6061   -3.2223 O   0  0  0  0  0  0  0  0  0  0  0  0
  -91.3764   28.9051   -3.3991 C   0  0  0  0  0  0  0  0  0  0  0  0
  -90.2922   29.8700   -2.9724 C   0  0  0  0  0  0  0  0  0  0  0  0
  -89.3840   28.9989   -2.1785 C   0  0  0  0  0  0  0  0  0  0  0  0
  -88.2983   29.2616   -1.3333 C   0  0  0  0  0  0  0  0  0  0  0  0
 15 16  1  0  0  0
 16 17  1  0  0  0
 16 18  1  0  0  0
 18 19  2  0  0  0
 18  5  1  0  0  0
  5  6  2  0  0  0
  6  7  1  0  0  0
  7  8  2  0  0  0
  8  9  1  0  0  0
  9 10  1  0  0  0
 10  1  1  0  0  0
  1  2  1  0  0  0
  2  3  2  0  0  0
  2 20  1  0  0  0
 20 21  2  0  0  0
 21 22  1  0  0  0
 22 23  1  0  0  0
 23 24  2  0  0  0
 23 25  1  0  0  0
 25 26  2  0  0  0
 26 27  1  0  0  0
 27 28  2  0  0  0
 28 29  1  0  0  0
 29 30  1  0  0  0
 30 31  1  0  0  0
 31 32  1  0  0  0
 32 33  2  0  0  0
 10 11  2  0  0  0
 11 12  1  0  0  0
 12 13  2  0  0  0
 13  5  1  0  0  0
 12  8  1  0  0  0
 24 20  1  0  0  0
 33 25  1  0  0  0
 32 28  1  0  0  0
  9 14  1  0  0  0
  1  4  1  0  0  0
M  END
> <minimizedAffinity>
-8.66640

> <CNNscore>
0.5181069970

> <CNNaffinity>
7.0444831848

> <CNN_VS>
3.6497960091

> <CNNaffinity_variance>
0.1406486332

$$$$
[H]c1sc(-c2c([H])c([H])c3c(c2[H])C([H])([H])C([H])([H])O3)nc1C(=O)N([H])c1nc2c([H])c(C(=O)N(C([H])([H])[H])C([H])([H])[H])c([H])c([H])c2n1[H]


 33 37  0  0  0  0  0  0  0  0999 V2000
  -84.1385   32.6722   -0.2156 N   0  0  0  0  0  0  0  0  0  0  0  0
  -83.7359   31.6940    0.6578 C   0  0  0  0  0  0  0  0  0  0  0  0
  -82.5837   31.9033    1.2439 O   0  0  0  0  0  0  0  0  0  0  0  0
  -83.4278   33.4947   -0.3220 H   0  0  0  0  0  0  0  0  0  0  0  0
  -89.4376   32.8671   -2.9870 C   0  0  0  0  0  0  0  0  0  0  0  0
  -88.9908   34.1101   -3.3348 C   0  0  0  0  0  0  0  0  0  0  0  0
  -87.7358   34.5693   -2.9111 C   0  0  0  0  0  0  0  0  0  0  0  0
  -86.9119   33.7721   -2.1253 C   0  0  0  0  0  0  0  0  0  0  0  0
  -85.6963   33.9387   -1.5867 N   0  0  0  0  0  0  0  0  0  0  0  0
  -85.3777   32.7856   -0.8925 C   0  0  0  0  0  0  0  0  0  0  0  0
  -86.4077   31.9466   -1.0266 N   0  0  0  0  0  0  0  0  0  0  0  0
  -87.3437   32.5179   -1.7647 C   0  0  0  0  0  0  0  0  0  0  0  0
  -88.5755   32.0709   -2.1823 C   0  0  0  0  0  0  0  0  0  0  0  0
  -85.1289   34.8013   -1.6983 H   0  0  0  0  0  0  0  0  0  0  0  0
  -91.2427   33.3152   -5.5743 C   0  0  0  0  0  0  0  0  0  0  0  0
  -91.4577   32.4612   -4.4745 N   0  0  0  0  0  0  0  0  0  0  0  0
  -92.7253   31.6596   -4.5525 C   0  0  0  0  0  0  0  0  0  0  0  0
  -90.6959   32.2473   -3.3484 C   0  0  0  0  0  0  0  0  0  0  0  0
  -91.1683   31.3624   -2.4809 O   0  0  0  0  0  0  0  0  0  0  0  0
  -84.4077   30.4233    1.0495 C   0  0  0  0  0  0  0  0  0  0  0  0
  -84.1077   29.7059    2.1792 C   0  0  0  0  0  0  0  0  0  0  0  0
  -85.1539   28.3582    2.0286 S   0  0  0  0  0  0  0  0  0  0  0  0
  -85.9049   28.7794    0.5575 C   0  0  0  0  0  0  0  0  0  0  0  0
  -85.3231   29.9120    0.2639 N   0  0  0  0  0  0  0  0  0  0  0  0
  -86.9535   28.0451   -0.1972 C   0  0  0  0  0  0  0  0  0  0  0  0
  -87.3855   28.5596   -1.3813 C   0  0  0  0  0  0  0  0  0  0  0  0
  -88.3727   27.8797   -2.1053 C   0  0  0  0  0  0  0  0  0  0  0  0
  -88.8960   26.7009   -1.6152 C   0  0  0  0  0  0  0  0  0  0  0  0
  -89.8772   25.8600   -2.1586 O   0  0  0  0  0  0  0  0  0  0  0  0
  -89.8910   24.6302   -1.4504 C   0  0  0  0  0  0  0  0  0  0  0  0
  -89.1953   24.9016   -0.1347 C   0  0  0  0  0  0  0  0  0  0  0  0
  -88.4661   26.1680   -0.4147 C   0  0  0  0  0  0  0  0  0  0  0  0
  -87.4777   26.8796    0.2772 C   0  0  0  0  0  0  0  0  0  0  0  0
 15 16  1  0  0  0
 16 17  1  0  0  0
 16 18  1  0  0  0
 18 19  2  0  0  0
 18  5  1  0  0  0
  5  6  2  0  0  0
  6  7  1  0  0  0
  7  8  2  0  0  0
  8  9  1  0  0  0
  9 10  1  0  0  0
 10  1  1  0  0  0
  1  2  1  0  0  0
  2  3  2  0  0  0
  2 20  1  0  0  0
 20 21  2  0  0  0
 21 22  1  0  0  0
 22 23  1  0  0  0
 23 24  2  0  0  0
 23 25  1  0  0  0
 25 26  2  0  0  0
 26 27  1  0  0  0
 27 28  2  0  0  0
 28 29  1  0  0  0
 29 30  1  0  0  0
 30 31  1  0  0  0
 31 32  1  0  0  0
 32 33  2  0  0  0
 10 11  2  0  0  0
 11 12  1  0  0  0
 12 13  2  0  0  0
 13  5  1  0  0  0
 12  8  1  0  0  0
 24 20  1  0  0  0
 33 25  1  0  0  0
 32 28  1  0  0  0
  9 14  1  0  0  0
  1  4  1  0  0  0
M  END
> <minimizedAffinity>
-8.36279

> <CNNscore>
0.4797577858

> <CNNaffinity>
7.0649652481

> <CNN_VS>
3.3894720078

> <CNNaffinity_variance>
0.1793278605

$$$$
[H]c1sc(-c2c([H])c([H])c3c(c2[H])C([H])([H])C([H])([H])O3)nc1C(=O)N([H])c1nc2c([H])c(C(=O)N(C([H])([H])[H])C([H])([H])[H])c([H])c([H])c2n1[H]


 33 37  0  0  0  0  0  0  0  0999 V2000
  -85.3046   33.8672   -2.0239 N   0  0  0  0  0  0  0  0  0  0  0  0
  -84.6824   33.2512   -0.9678 C   0  0  0  0  0  0  0  0  0  0  0  0
  -83.6067   33.8503   -0.5220 O   0  0  0  0  0  0  0  0  0  0  0  0
  -84.8036   34.7745   -2.3687 H   0  0  0  0  0  0  0  0  0  0  0  0
  -90.6496   32.6782   -4.4357 C   0  0  0  0  0  0  0  0  0  0  0  0
  -89.9493   31.6495   -4.9988 C   0  0  0  0  0  0  0  0  0  0  0  0
  -88.5829   31.4787   -4.7354 C   0  0  0  0  0  0  0  0  0  0  0  0
  -87.9035   32.3517   -3.8939 C   0  0  0  0  0  0  0  0  0  0  0  0
  -86.6353   32.4354   -3.4694 N   0  0  0  0  0  0  0  0  0  0  0  0
  -86.5398   33.5304   -2.6299 C   0  0  0  0  0  0  0  0  0  0  0  0
  -87.7527   34.0852   -2.5649 N   0  0  0  0  0  0  0  0  0  0  0  0
  -88.5907   33.3933   -3.3175 C   0  0  0  0  0  0  0  0  0  0  0  0
  -89.9310   33.5577   -3.5783 C   0  0  0  0  0  0  0  0  0  0  0  0
  -85.8882   31.7704   -3.7487 H   0  0  0  0  0  0  0  0  0  0  0  0
  -93.1964   31.1840   -3.2384 C   0  0  0  0  0  0  0  0  0  0  0  0
  -93.1388   32.3189   -4.0713 N   0  0  0  0  0  0  0  0  0  0  0  0
  -94.4802   32.8870   -4.4363 C   0  0  0  0  0  0  0  0  0  0  0  0
  -92.0558   32.9840   -4.5996 C   0  0  0  0  0  0  0  0  0  0  0  0
  -92.3281   34.0395   -5.3550 O   0  0  0  0  0  0  0  0  0  0  0  0
  -85.0405   32.0008   -0.2414 C   0  0  0  0  0  0  0  0  0  0  0  0
  -84.1992   31.3339    0.6120 C   0  0  0  0  0  0  0  0  0  0  0  0
  -85.1516   29.9832    1.0613 S   0  0  0  0  0  0  0  0  0  0  0  0
  -86.5482   30.3399    0.1515 C   0  0  0  0  0  0  0  0  0  0  0  0
  -86.2159   31.4569   -0.4396 N   0  0  0  0  0  0  0  0  0  0  0  0
  -87.8187   29.5750    0.0558 C   0  0  0  0  0  0  0  0  0  0  0  0
  -88.7976   30.0375   -0.7695 C   0  0  0  0  0  0  0  0  0  0  0  0
  -90.0006   29.3282   -0.8718 C   0  0  0  0  0  0  0  0  0  0  0  0
  -90.1825   28.1731   -0.1393 C   0  0  0  0  0  0  0  0  0  0  0  0
  -91.2864   27.3110   -0.0822 O   0  0  0  0  0  0  0  0  0  0  0  0
  -90.9172   26.1136    0.5844 C   0  0  0  0  0  0  0  0  0  0  0  0
  -89.6604   26.4416    1.3600 C   0  0  0  0  0  0  0  0  0  0  0  0
  -89.1968   27.6930    0.7020 C   0  0  0  0  0  0  0  0  0  0  0  0
  -88.0094   28.4326    0.7746 C   0  0  0  0  0  0  0  0  0  0  0  0
 15 16  1  0  0  0
 16 17  1  0  0  0
 16 18  1  0  0  0
 18 19  2  0  0  0
 18  5  1  0  0  0
  5  6  2  0  0  0
  6  7  1  0  0  0
  7  8  2  0  0  0
  8  9  1  0  0  0
  9 10  1  0  0  0
 10  1  1  0  0  0
  1  2  1  0  0  0
  2  3  2  0  0  0
  2 20  1  0  0  0
 20 21  2  0  0  0
 21 22  1  0  0  0
 22 23  1  0  0  0
 23 24  2  0  0  0
 23 25  1  0  0  0
 25 26  2  0  0  0
 26 27  1  0  0  0
 27 28  2  0  0  0
 28 29  1  0  0  0
 29 30  1  0  0  0
 30 31  1  0  0  0
 31 32  1  0  0  0
 32 33  2  0  0  0
 10 11  2  0  0  0
 11 12  1  0  0  0
 12 13  2  0  0  0
 13  5  1  0  0  0
 12  8  1  0  0  0
 24 20  1  0  0  0
 33 25  1  0  0  0
 32 28  1  0  0  0
  9 14  1  0  0  0
  1  4  1  0  0  0
M  END
> <minimizedAffinity>
-7.84304

> <CNNscore>
0.4323662221

> <CNNaffinity>
6.9213361740

> <CNN_VS>
2.9925520420

> <CNNaffinity_variance>
0.2304759324

$$$$
[H]c1sc(-c2c([H])c([H])c3c(c2[H])C([H])([H])C([H])([H])O3)nc1C(=O)N([H])c1nc2c([H])c(C(=O)N(C([H])([H])[H])C([H])([H])[H])c([H])c([H])c2n1[H]


 33 37  0  0  0  0  0  0  0  0999 V2000
  -85.2823   33.9232   -2.1062 N   0  0  0  0  0  0  0  0  0  0  0  0
  -84.8403   33.1844   -1.0381 C   0  0  0  0  0  0  0  0  0  0  0  0
  -83.6941   33.5616   -0.5297 O   0  0  0  0  0  0  0  0  0  0  0  0
  -84.6026   34.7239   -2.4060 H   0  0  0  0  0  0  0  0  0  0  0  0
  -90.6109   33.8325   -4.8259 C   0  0  0  0  0  0  0  0  0  0  0  0
  -90.1811   32.5910   -5.1994 C   0  0  0  0  0  0  0  0  0  0  0  0
  -88.9265   32.1116   -4.7974 C   0  0  0  0  0  0  0  0  0  0  0  0
  -88.0856   32.8869   -4.0077 C   0  0  0  0  0  0  0  0  0  0  0  0
  -86.8661   32.6983   -3.4851 N   0  0  0  0  0  0  0  0  0  0  0  0
  -86.5277   33.8363   -2.7755 C   0  0  0  0  0  0  0  0  0  0  0  0
  -87.5500   34.6883   -2.8844 N   0  0  0  0  0  0  0  0  0  0  0  0
  -88.5000   34.1393   -3.6215 C   0  0  0  0  0  0  0  0  0  0  0  0
  -89.7314   34.6062   -4.0179 C   0  0  0  0  0  0  0  0  0  0  0  0
  -86.3097   31.8314   -3.6166 H   0  0  0  0  0  0  0  0  0  0  0  0
  -92.3308   33.6623   -7.5028 C   0  0  0  0  0  0  0  0  0  0  0  0
  -92.5957   34.3757   -6.3171 N   0  0  0  0  0  0  0  0  0  0  0  0
  -93.8743   35.1630   -6.3416 C   0  0  0  0  0  0  0  0  0  0  0  0
  -91.8733   34.4649   -5.1490 C   0  0  0  0  0  0  0  0  0  0  0  0
  -92.3942   35.2242   -4.1946 O   0  0  0  0  0  0  0  0  0  0  0  0
  -85.4635   32.0141   -0.3590 C   0  0  0  0  0  0  0  0  0  0  0  0
  -84.8724   31.3019    0.6531 C   0  0  0  0  0  0  0  0  0  0  0  0
  -86.0370   30.0820    0.9520 S   0  0  0  0  0  0  0  0  0  0  0  0
  -87.1951   30.5424   -0.2109 C   0  0  0  0  0  0  0  0  0  0  0  0
  -86.6368   31.5893   -0.7584 N   0  0  0  0  0  0  0  0  0  0  0  0
  -88.5049   29.9129   -0.5216 C   0  0  0  0  0  0  0  0  0  0  0  0
  -89.3333   30.5339   -1.4056 C   0  0  0  0  0  0  0  0  0  0  0  0
  -90.5709   29.9537   -1.7100 C   0  0  0  0  0  0  0  0  0  0  0  0
  -90.9380   28.7644   -1.1146 C   0  0  0  0  0  0  0  0  0  0  0  0
  -92.1099   28.0099   -1.2645 O   0  0  0  0  0  0  0  0  0  0  0  0
  -91.9277   26.7314   -0.6757 C   0  0  0  0  0  0  0  0  0  0  0  0
  -90.7512   26.8722    0.2650 C   0  0  0  0  0  0  0  0  0  0  0  0
  -90.1064   28.1240   -0.2157 C   0  0  0  0  0  0  0  0  0  0  0  0
  -88.8781   28.7382    0.0605 C   0  0  0  0  0  0  0  0  0  0  0  0
 15 16  1  0  0  0
 16 17  1  0  0  0
 16 18  1  0  0  0
 18 19  2  0  0  0
 18  5  1  0  0  0
  5  6  2  0  0  0
  6  7  1  0  0  0
  7  8  2  0  0  0
  8  9  1  0  0  0
  9 10  1  0  0  0
 10  1  1  0  0  0
  1  2  1  0  0  0
  2  3  2  0  0  0
  2 20  1  0  0  0
 20 21  2  0  0  0
 21 22  1  0  0  0
 22 23  1  0  0  0
 23 24  2  0  0  0
 23 25  1  0  0  0
 25 26  2  0  0  0
 26 27  1  0  0  0
 27 28  2  0  0  0
 28 29  1  0  0  0
 29 30  1  0  0  0
 30 31  1  0  0  0
 31 32  1  0  0  0
 32 33  2  0  0  0
 10 11  2  0  0  0
 11 12  1  0  0  0
 12 13  2  0  0  0
 13  5  1  0  0  0
 12  8  1  0  0  0
 24 20  1  0  0  0
 33 25  1  0  0  0
 32 28  1  0  0  0
  9 14  1  0  0  0
  1  4  1  0  0  0
M  END
> <minimizedAffinity>
-7.25768

> <CNNscore>
0.4273869991

> <CNNaffinity>
6.6949005127

> <CNN_VS>
2.8613133430

> <CNNaffinity_variance>
0.1204286218

$$$$
[H]c1sc(-c2c([H])c([H])c3c(c2[H])C([H])([H])C([H])([H])O3)nc1C(=O)N([H])c1nc2c([H])c(C(=O)N(C([H])([H])[H])C([H])([H])[H])c([H])c([H])c2n1[H]


 33 37  0  0  0  0  0  0  0  0999 V2000
  -85.8062   26.7944    1.9723 N   0  0  0  0  0  0  0  0  0  0  0  0
  -84.6613   27.5266    2.1594 C   0  0  0  0  0  0  0  0  0  0  0  0
  -83.7254   26.9372    2.8603 O   0  0  0  0  0  0  0  0  0  0  0  0
  -85.7923   25.8145    2.4547 H   0  0  0  0  0  0  0  0  0  0  0  0
  -90.4263   27.9362   -1.6540 C   0  0  0  0  0  0  0  0  0  0  0  0
  -90.7575   28.7918   -0.6421 C   0  0  0  0  0  0  0  0  0  0  0  0
  -89.9526   28.9027    0.5003 C   0  0  0  0  0  0  0  0  0  0  0  0
  -88.7952   28.1448    0.6345 C   0  0  0  0  0  0  0  0  0  0  0  0
  -87.8564   28.0422    1.5851 N   0  0  0  0  0  0  0  0  0  0  0  0
  -86.9252   27.1104    1.1635 C   0  0  0  0  0  0  0  0  0  0  0  0
  -87.3214   26.6698   -0.0331 N   0  0  0  0  0  0  0  0  0  0  0  0
  -88.4448   27.2779   -0.3729 C   0  0  0  0  0  0  0  0  0  0  0  0
  -89.2370   27.1717   -1.4922 C   0  0  0  0  0  0  0  0  0  0  0  0
  -87.8674   28.5881    2.4684 H   0  0  0  0  0  0  0  0  0  0  0  0
  -92.2646   25.4797   -2.5137 C   0  0  0  0  0  0  0  0  0  0  0  0
  -91.9300   26.6396   -3.2401 N   0  0  0  0  0  0  0  0  0  0  0  0
  -92.5346   26.7053   -4.6133 C   0  0  0  0  0  0  0  0  0  0  0  0
  -91.1424   27.7136   -2.8932 C   0  0  0  0  0  0  0  0  0  0  0  0
  -91.0203   28.6693   -3.8047 O   0  0  0  0  0  0  0  0  0  0  0  0
  -84.3110   28.8951    1.6862 C   0  0  0  0  0  0  0  0  0  0  0  0
  -83.1254   29.5282    1.9591 C   0  0  0  0  0  0  0  0  0  0  0  0
  -83.3577   31.0498    1.2080 S   0  0  0  0  0  0  0  0  0  0  0  0
  -84.9284   30.7968    0.5960 C   0  0  0  0  0  0  0  0  0  0  0  0
  -85.1879   29.5795    0.9938 N   0  0  0  0  0  0  0  0  0  0  0  0
  -85.7833   31.7247   -0.1892 C   0  0  0  0  0  0  0  0  0  0  0  0
  -85.2318   32.8753   -0.6639 C   0  0  0  0  0  0  0  0  0  0  0  0
  -86.0235   33.7602   -1.4062 C   0  0  0  0  0  0  0  0  0  0  0  0
  -87.3482   33.4600   -1.6488 C   0  0  0  0  0  0  0  0  0  0  0  0
  -88.3176   34.1845   -2.3562 O   0  0  0  0  0  0  0  0  0  0  0  0
  -89.4519   33.3616   -2.5815 C   0  0  0  0  0  0  0  0  0  0  0  0
  -89.3494   32.2315   -1.5810 C   0  0  0  0  0  0  0  0  0  0  0  0
  -87.9200   32.2955   -1.1727 C   0  0  0  0  0  0  0  0  0  0  0  0
  -87.0932   31.4385   -0.4351 C   0  0  0  0  0  0  0  0  0  0  0  0
 15 16  1  0  0  0
 16 17  1  0  0  0
 16 18  1  0  0  0
 18 19  2  0  0  0
 18  5  1  0  0  0
  5  6  2  0  0  0
  6  7  1  0  0  0
  7  8  2  0  0  0
  8  9  1  0  0  0
  9 10  1  0  0  0
 10  1  1  0  0  0
  1  2  1  0  0  0
  2  3  2  0  0  0
  2 20  1  0  0  0
 20 21  2  0  0  0
 21 22  1  0  0  0
 22 23  1  0  0  0
 23 24  2  0  0  0
 23 25  1  0  0  0
 25 26  2  0  0  0
 26 27  1  0  0  0
 27 28  2  0  0  0
 28 29  1  0  0  0
 29 30  1  0  0  0
 30 31  1  0  0  0
 31 32  1  0  0  0
 32 33  2  0  0  0
 10 11  2  0  0  0
 11 12  1  0  0  0
 12 13  2  0  0  0
 13  5  1  0  0  0
 12  8  1  0  0  0
 24 20  1  0  0  0
 33 25  1  0  0  0
 32 28  1  0  0  0
  9 14  1  0  0  0
  1  4  1  0  0  0
M  END
> <minimizedAffinity>
-9.53994

> <CNNscore>
0.4103894830

> <CNNaffinity>
6.9659347534

> <CNN_VS>
2.8587462902

> <CNNaffinity_variance>
0.0898965523

$$$$
[H]c1sc(-c2c([H])c([H])c3c(c2[H])C([H])([H])C([H])([H])O3)nc1C(=O)N([H])c1nc2c([H])c(C(=O)N(C([H])([H])[H])C([H])([H])[H])c([H])c([H])c2n1[H]


 33 37  0  0  0  0  0  0  0  0999 V2000
  -84.6008   32.3462    0.0808 N   0  0  0  0  0  0  0  0  0  0  0  0
  -83.9666   31.5363    0.9883 C   0  0  0  0  0  0  0  0  0  0  0  0
  -82.8838   32.0370    1.5282 O   0  0  0  0  0  0  0  0  0  0  0  0
  -84.1020   33.3033   -0.0873 H   0  0  0  0  0  0  0  0  0  0  0  0
  -89.7770   31.1577   -2.6750 C   0  0  0  0  0  0  0  0  0  0  0  0
  -89.9679   32.4948   -2.4713 C   0  0  0  0  0  0  0  0  0  0  0  0
  -88.9937   33.2722   -1.8295 C   0  0  0  0  0  0  0  0  0  0  0  0
  -87.8067   32.7036   -1.3829 C   0  0  0  0  0  0  0  0  0  0  0  0
  -86.7246   33.1836   -0.7551 N   0  0  0  0  0  0  0  0  0  0  0  0
  -85.8446   32.1340   -0.5629 C   0  0  0  0  0  0  0  0  0  0  0  0
  -86.4139   31.0419   -1.0788 N   0  0  0  0  0  0  0  0  0  0  0  0
  -87.5958   31.3595   -1.5784 C   0  0  0  0  0  0  0  0  0  0  0  0
  -88.5538   30.5999   -2.2084 C   0  0  0  0  0  0  0  0  0  0  0  0
  -86.6106   34.1787   -0.4807 H   0  0  0  0  0  0  0  0  0  0  0  0
  -92.0203   29.2897   -1.3980 C   0  0  0  0  0  0  0  0  0  0  0  0
  -91.6367   29.4273   -2.7466 N   0  0  0  0  0  0  0  0  0  0  0  0
  -92.4058   28.5586   -3.7001 C   0  0  0  0  0  0  0  0  0  0  0  0
  -90.6756   30.2255   -3.3241 C   0  0  0  0  0  0  0  0  0  0  0  0
  -90.5523   30.1342   -4.6414 O   0  0  0  0  0  0  0  0  0  0  0  0
  -84.3186   30.1683    1.4619 C   0  0  0  0  0  0  0  0  0  0  0  0
  -83.4216   29.2814    2.0002 C   0  0  0  0  0  0  0  0  0  0  0  0
  -84.4074   27.9086    2.2782 S   0  0  0  0  0  0  0  0  0  0  0  0
  -85.8854   28.5334    1.7031 C   0  0  0  0  0  0  0  0  0  0  0  0
  -85.5506   29.7413    1.3338 N   0  0  0  0  0  0  0  0  0  0  0  0
  -87.2147   27.8722    1.6387 C   0  0  0  0  0  0  0  0  0  0  0  0
  -88.0679   28.2196    0.6363 C   0  0  0  0  0  0  0  0  0  0  0  0
  -89.3241   27.6055    0.5609 C   0  0  0  0  0  0  0  0  0  0  0  0
  -89.6843   26.6589    1.4980 C   0  0  0  0  0  0  0  0  0  0  0  0
  -90.8714   25.9233    1.6201 O   0  0  0  0  0  0  0  0  0  0  0  0
  -90.6842   24.8762    2.5597 C   0  0  0  0  0  0  0  0  0  0  0  0
  -89.4706   25.2637    3.3758 C   0  0  0  0  0  0  0  0  0  0  0  0
  -88.8276   26.2974    2.5203 C   0  0  0  0  0  0  0  0  0  0  0  0
  -87.5813   26.9357    2.5589 C   0  0  0  0  0  0  0  0  0  0  0  0
 15 16  1  0  0  0
 16 17  1  0  0  0
 16 18  1  0  0  0
 18 19  2  0  0  0
 18  5  1  0  0  0
  5  6  2  0  0  0
  6  7  1  0  0  0
  7  8  2  0  0  0
  8  9  1  0  0  0
  9 10  1  0  0  0
 10  1  1  0  0  0
  1  2  1  0  0  0
  2  3  2  0  0  0
  2 20  1  0  0  0
 20 21  2  0  0  0
 21 22  1  0  0  0
 22 23  1  0  0  0
 23 24  2  0  0  0
 23 25  1  0  0  0
 25 26  2  0  0  0
 26 27  1  0  0  0
 27 28  2  0  0  0
 28 29  1  0  0  0
 29 30  1  0  0  0
 30 31  1  0  0  0
 31 32  1  0  0  0
 32 33  2  0  0  0
 10 11  2  0  0  0
 11 12  1  0  0  0
 12 13  2  0  0  0
 13  5  1  0  0  0
 12  8  1  0  0  0
 24 20  1  0  0  0
 33 25  1  0  0  0
 32 28  1  0  0  0
  9 14  1  0  0  0
  1  4  1  0  0  0
M  END
> <minimizedAffinity>
-8.19310

> <CNNscore>
0.3965429962

> <CNNaffinity>
7.1133408546

> <CNN_VS>
2.8207454681

> <CNNaffinity_variance>
0.2930782437

$$$$
[H]c1nc([H])c2c([H])c(C#N)c3c4c([H])c([H])c([H])c(OC([H])([H])[H])c4n([H])c3c2c1[H]


 22 25  0  0  0  0  0  0  0  0999 V2000
  -88.5419   28.1733    0.7100 C   0  0  0  0  0  0  0  0  0  0  0  0
  -88.6669   26.9616    1.3280 C   0  0  0  0  0  0  0  0  0  0  0  0
  -87.5709   26.4115    1.9900 C   0  0  0  0  0  0  0  0  0  0  0  0
  -86.3617   27.0758    2.0288 C   0  0  0  0  0  0  0  0  0  0  0  0
  -86.2693   28.2886    1.3994 C   0  0  0  0  0  0  0  0  0  0  0  0
  -87.3458   28.8487    0.7384 C   0  0  0  0  0  0  0  0  0  0  0  0
  -87.0158   30.0330    0.2033 N   0  0  0  0  0  0  0  0  0  0  0  0
  -85.7262   30.2612    0.5059 C   0  0  0  0  0  0  0  0  0  0  0  0
  -85.2201   29.1891    1.2567 C   0  0  0  0  0  0  0  0  0  0  0  0
  -83.9198   29.2021    1.6800 C   0  0  0  0  0  0  0  0  0  0  0  0
  -83.1051   30.3000    1.3524 C   0  0  0  0  0  0  0  0  0  0  0  0
  -83.6307   31.3329    0.6164 C   0  0  0  0  0  0  0  0  0  0  0  0
  -82.8488   32.4267    0.2802 C   0  0  0  0  0  0  0  0  0  0  0  0
  -83.3523   33.4438   -0.4399 N   0  0  0  0  0  0  0  0  0  0  0  0
  -84.6324   33.4284   -0.8551 C   0  0  0  0  0  0  0  0  0  0  0  0
  -85.4666   32.3764   -0.5589 C   0  0  0  0  0  0  0  0  0  0  0  0
  -84.9384   31.3357    0.1821 C   0  0  0  0  0  0  0  0  0  0  0  0
  -87.6463   30.6810   -0.3579 H   0  0  0  0  0  0  0  0  0  0  0  0
  -90.7277   29.2260    0.7752 C   0  0  0  0  0  0  0  0  0  0  0  0
  -89.6202   28.7295    0.0505 O   0  0  0  0  0  0  0  0  0  0  0  0
  -83.3626   28.1312    2.4471 C   0  0  0  0  0  0  0  0  0  0  0  0
  -82.9130   27.2219    3.0468 N   0  0  0  0  0  0  0  0  0  0  0  0
 19 20  1  0  0  0
 20  1  1  0  0  0
  1  2  2  0  0  0
  2  3  1  0  0  0
  3  4  2  0  0  0
  4  5  1  0  0  0
  5  6  2  0  0  0
  6  7  1  0  0  0
  7  8  1  0  0  0
  8  9  2  0  0  0
  9 10  1  0  0  0
 10 11  2  0  0  0
 11 12  1  0  0  0
 12 13  2  0  0  0
 13 14  1  0  0  0
 14 15  2  0  0  0
 15 16  1  0  0  0
 16 17  2  0  0  0
 10 21  1  0  0  0
 21 22  3  0  0  0
  6  1  1  0  0  0
 17  8  1  0  0  0
  9  5  1  0  0  0
 17 12  1  0  0  0
  7 18  1  0  0  0
M  END
> <minimizedAffinity>
-9.33858

> <CNNscore>
0.9663149118

> <CNNaffinity>
7.1160278320

> <CNN_VS>
6.8763237000

> <CNNaffinity_variance>
0.1772638857

$$$$
[H]c1nc([H])c2c([H])c(C#N)c3c4c([H])c([H])c([H])c(OC([H])([H])[H])c4n([H])c3c2c1[H]


 22 25  0  0  0  0  0  0  0  0999 V2000
  -88.7938   31.0935   -0.7261 C   0  0  0  0  0  0  0  0  0  0  0  0
  -89.0037   32.2702   -1.3872 C   0  0  0  0  0  0  0  0  0  0  0  0
  -87.9500   33.1692   -1.5415 C   0  0  0  0  0  0  0  0  0  0  0  0
  -86.6980   32.8849   -1.0348 C   0  0  0  0  0  0  0  0  0  0  0  0
  -86.5205   31.6968   -0.3773 C   0  0  0  0  0  0  0  0  0  0  0  0
  -87.5540   30.7940   -0.2152 C   0  0  0  0  0  0  0  0  0  0  0  0
  -87.1418   29.7097    0.4571 N   0  0  0  0  0  0  0  0  0  0  0  0
  -85.8403   29.8886    0.7417 C   0  0  0  0  0  0  0  0  0  0  0  0
  -85.4114   31.1249    0.2349 C   0  0  0  0  0  0  0  0  0  0  0  0
  -84.1144   31.5233    0.4062 C   0  0  0  0  0  0  0  0  0  0  0  0
  -83.2251   30.6790    1.0937 C   0  0  0  0  0  0  0  0  0  0  0  0
  -83.6763   29.4759    1.5773 C   0  0  0  0  0  0  0  0  0  0  0  0
  -82.8198   28.6254    2.2585 C   0  0  0  0  0  0  0  0  0  0  0  0
  -83.2501   27.4452    2.7364 N   0  0  0  0  0  0  0  0  0  0  0  0
  -84.5271   27.0556    2.5663 C   0  0  0  0  0  0  0  0  0  0  0  0
  -85.4325   27.8476    1.9007 C   0  0  0  0  0  0  0  0  0  0  0  0
  -84.9794   29.0594    1.4134 C   0  0  0  0  0  0  0  0  0  0  0  0
  -87.7245   28.8597    0.7224 H   0  0  0  0  0  0  0  0  0  0  0  0
  -90.4777   29.6370   -1.6923 C   0  0  0  0  0  0  0  0  0  0  0  0
  -89.8294   30.1940   -0.5663 O   0  0  0  0  0  0  0  0  0  0  0  0
  -83.6345   32.7745   -0.0936 C   0  0  0  0  0  0  0  0  0  0  0  0
  -83.2779   33.8225   -0.4974 N   0  0  0  0  0  0  0  0  0  0  0  0
 19 20  1  0  0  0
 20  1  1  0  0  0
  1  2  2  0  0  0
  2  3  1  0  0  0
  3  4  2  0  0  0
  4  5  1  0  0  0
  5  6  2  0  0  0
  6  7  1  0  0  0
  7  8  1  0  0  0
  8  9  2  0  0  0
  9 10  1  0  0  0
 10 11  2  0  0  0
 11 12  1  0  0  0
 12 13  2  0  0  0
 13 14  1  0  0  0
 14 15  2  0  0  0
 15 16  1  0  0  0
 16 17  2  0  0  0
 10 21  1  0  0  0
 21 22  3  0  0  0
  6  1  1  0  0  0
 17  8  1  0  0  0
  9  5  1  0  0  0
 17 12  1  0  0  0
  7 18  1  0  0  0
M  END
> <minimizedAffinity>
-8.93887

> <CNNscore>
0.9617445469

> <CNNaffinity>
6.7959108353

> <CNN_VS>
6.5359301567

> <CNNaffinity_variance>
0.1252798438

$$$$
[H]c1nc([H])c2c([H])c(C#N)c3c4c([H])c([H])c([H])c(OC([H])([H])[H])c4n([H])c3c2c1[H]


 22 25  0  0  0  0  0  0  0  0999 V2000
  -84.7529   28.0850    2.0368 C   0  0  0  0  0  0  0  0  0  0  0  0
  -83.4340   28.1506    2.3863 C   0  0  0  0  0  0  0  0  0  0  0  0
  -82.6768   29.2573    2.0065 C   0  0  0  0  0  0  0  0  0  0  0  0
  -83.2430   30.2868    1.2823 C   0  0  0  0  0  0  0  0  0  0  0  0
  -84.5676   30.1904    0.9478 C   0  0  0  0  0  0  0  0  0  0  0  0
  -85.3331   29.1006    1.3160 C   0  0  0  0  0  0  0  0  0  0  0  0
  -86.5935   29.2305    0.8774 N   0  0  0  0  0  0  0  0  0  0  0  0
  -86.6678   30.4007    0.2203 C   0  0  0  0  0  0  0  0  0  0  0  0
  -85.4161   31.0349    0.2415 C   0  0  0  0  0  0  0  0  0  0  0  0
  -85.2517   32.2476   -0.3689 C   0  0  0  0  0  0  0  0  0  0  0  0
  -86.3501   32.8433   -1.0129 C   0  0  0  0  0  0  0  0  0  0  0  0
  -87.5613   32.1968   -1.0156 C   0  0  0  0  0  0  0  0  0  0  0  0
  -88.6597   32.7625   -1.6434 C   0  0  0  0  0  0  0  0  0  0  0  0
  -89.8504   32.1391   -1.6526 N   0  0  0  0  0  0  0  0  0  0  0  0
  -90.0094   30.9457   -1.0510 C   0  0  0  0  0  0  0  0  0  0  0  0
  -88.9642   30.3249   -0.4089 C   0  0  0  0  0  0  0  0  0  0  0  0
  -87.7441   30.9749   -0.4056 C   0  0  0  0  0  0  0  0  0  0  0  0
  -87.3946   28.5440    1.0163 H   0  0  0  0  0  0  0  0  0  0  0  0
  -86.5662   26.5380    1.5797 C   0  0  0  0  0  0  0  0  0  0  0  0
  -85.5144   26.9940    2.4068 O   0  0  0  0  0  0  0  0  0  0  0  0
  -83.9943   32.9292   -0.3718 C   0  0  0  0  0  0  0  0  0  0  0  0
  -82.9502   33.4743   -0.3354 N   0  0  0  0  0  0  0  0  0  0  0  0
 19 20  1  0  0  0
 20  1  1  0  0  0
  1  2  2  0  0  0
  2  3  1  0  0  0
  3  4  2  0  0  0
  4  5  1  0  0  0
  5  6  2  0  0  0
  6  7  1  0  0  0
  7  8  1  0  0  0
  8  9  2  0  0  0
  9 10  1  0  0  0
 10 11  2  0  0  0
 11 12  1  0  0  0
 12 13  2  0  0  0
 13 14  1  0  0  0
 14 15  2  0  0  0
 15 16  1  0  0  0
 16 17  2  0  0  0
 10 21  1  0  0  0
 21 22  3  0  0  0
  6  1  1  0  0  0
 17  8  1  0  0  0
  9  5  1  0  0  0
 17 12  1  0  0  0
  7 18  1  0  0  0
M  END
> <minimizedAffinity>
-9.46688

> <CNNscore>
0.8994669318

> <CNNaffinity>
6.6412277222

> <CNN_VS>
5.9735646248

> <CNNaffinity_variance>
0.0951396227

$$$$
[H]c1nc([H])c2c([H])c(C#N)c3c4c([H])c([H])c([H])c(OC([H])([H])[H])c4n([H])c3c2c1[H]


 22 25  0  0  0  0  0  0  0  0999 V2000
  -84.9459   32.3663   -0.0661 C   0  0  0  0  0  0  0  0  0  0  0  0
  -83.6470   32.7179    0.1686 C   0  0  0  0  0  0  0  0  0  0  0  0
  -82.7998   31.8230    0.8195 C   0  0  0  0  0  0  0  0  0  0  0  0
  -83.2570   30.5869    1.2293 C   0  0  0  0  0  0  0  0  0  0  0  0
  -84.5643   30.2650    0.9790 C   0  0  0  0  0  0  0  0  0  0  0  0
  -85.4182   31.1400    0.3349 C   0  0  0  0  0  0  0  0  0  0  0  0
  -86.6412   30.6065    0.2037 N   0  0  0  0  0  0  0  0  0  0  0  0
  -86.6030   29.3822    0.7573 C   0  0  0  0  0  0  0  0  0  0  0  0
  -85.3160   29.1291    1.2561 C   0  0  0  0  0  0  0  0  0  0  0  0
  -85.0396   27.9372    1.8669 C   0  0  0  0  0  0  0  0  0  0  0  0
  -86.0597   26.9771    1.9854 C   0  0  0  0  0  0  0  0  0  0  0  0
  -87.3081   27.2557    1.4868 C   0  0  0  0  0  0  0  0  0  0  0  0
  -88.3310   26.3263    1.5908 C   0  0  0  0  0  0  0  0  0  0  0  0
  -89.5572   26.5878    1.1065 N   0  0  0  0  0  0  0  0  0  0  0  0
  -89.8263   27.7617    0.5059 C   0  0  0  0  0  0  0  0  0  0  0  0
  -88.8609   28.7306    0.3671 C   0  0  0  0  0  0  0  0  0  0  0  0
  -87.6034   28.4513    0.8687 C   0  0  0  0  0  0  0  0  0  0  0  0
  -87.4915   31.0563   -0.2511 H   0  0  0  0  0  0  0  0  0  0  0  0
  -85.7829   33.3531   -2.1194 C   0  0  0  0  0  0  0  0  0  0  0  0
  -85.7958   33.2438   -0.7101 O   0  0  0  0  0  0  0  0  0  0  0  0
  -83.7425   27.6372    2.3896 C   0  0  0  0  0  0  0  0  0  0  0  0
  -82.6685   27.3615    2.7884 N   0  0  0  0  0  0  0  0  0  0  0  0
 19 20  1  0  0  0
 20  1  1  0  0  0
  1  2  2  0  0  0
  2  3  1  0  0  0
  3  4  2  0  0  0
  4  5  1  0  0  0
  5  6  2  0  0  0
  6  7  1  0  0  0
  7  8  1  0  0  0
  8  9  2  0  0  0
  9 10  1  0  0  0
 10 11  2  0  0  0
 11 12  1  0  0  0
 12 13  2  0  0  0
 13 14  1  0  0  0
 14 15  2  0  0  0
 15 16  1  0  0  0
 16 17  2  0  0  0
 10 21  1  0  0  0
 21 22  3  0  0  0
  6  1  1  0  0  0
 17  8  1  0  0  0
  9  5  1  0  0  0
 17 12  1  0  0  0
  7 18  1  0  0  0
M  END
> <minimizedAffinity>
-8.79752

> <CNNscore>
0.7044981718

> <CNNaffinity>
6.5171151161

> <CNN_VS>
4.5912957191

> <CNNaffinity_variance>
0.1319319606

$$$$
[H]c1nc([H])c2c([H])c(C#N)c3c4c([H])c([H])c([H])c(OC([H])([H])[H])c4n([H])c3c2c1[H]


 22 25  0  0  0  0  0  0  0  0999 V2000
  -86.4567   27.9909    1.5052 C   0  0  0  0  0  0  0  0  0  0  0  0
  -85.3724   27.4672    2.1499 C   0  0  0  0  0  0  0  0  0  0  0  0
  -84.1683   28.1690    2.1507 C   0  0  0  0  0  0  0  0  0  0  0  0
  -84.0585   29.3857    1.5086 C   0  0  0  0  0  0  0  0  0  0  0  0
  -85.1641   29.8832    0.8716 C   0  0  0  0  0  0  0  0  0  0  0  0
  -86.3656   29.2009    0.8607 C   0  0  0  0  0  0  0  0  0  0  0  0
  -87.2971   29.8821    0.1780 N   0  0  0  0  0  0  0  0  0  0  0  0
  -86.7197   31.0126   -0.2639 C   0  0  0  0  0  0  0  0  0  0  0  0
  -85.3795   31.0518    0.1504 C   0  0  0  0  0  0  0  0  0  0  0  0
  -84.5891   32.1161   -0.1853 C   0  0  0  0  0  0  0  0  0  0  0  0
  -85.1385   33.1623   -0.9469 C   0  0  0  0  0  0  0  0  0  0  0  0
  -86.4531   33.0935   -1.3364 C   0  0  0  0  0  0  0  0  0  0  0  0
  -87.0188   34.1116   -2.0876 C   0  0  0  0  0  0  0  0  0  0  0  0
  -88.3047   34.0553   -2.4748 N   0  0  0  0  0  0  0  0  0  0  0  0
  -89.0803   33.0066   -2.1429 C   0  0  0  0  0  0  0  0  0  0  0  0
  -88.5869   31.9606   -1.3996 C   0  0  0  0  0  0  0  0  0  0  0  0
  -87.2632   32.0287   -1.0068 C   0  0  0  0  0  0  0  0  0  0  0  0
  -88.3075   29.5938    0.0098 H   0  0  0  0  0  0  0  0  0  0  0  0
  -87.8616   26.2286    0.6047 C   0  0  0  0  0  0  0  0  0  0  0  0
  -87.6557   27.3057    1.4968 O   0  0  0  0  0  0  0  0  0  0  0  0
  -83.2185   32.1974    0.2155 C   0  0  0  0  0  0  0  0  0  0  0  0
  -82.0859   32.2218    0.5400 N   0  0  0  0  0  0  0  0  0  0  0  0
 19 20  1  0  0  0
 20  1  1  0  0  0
  1  2  2  0  0  0
  2  3  1  0  0  0
  3  4  2  0  0  0
  4  5  1  0  0  0
  5  6  2  0  0  0
  6  7  1  0  0  0
  7  8  1  0  0  0
  8  9  2  0  0  0
  9 10  1  0  0  0
 10 11  2  0  0  0
 11 12  1  0  0  0
 12 13  2  0  0  0
 13 14  1  0  0  0
 14 15  2  0  0  0
 15 16  1  0  0  0
 16 17  2  0  0  0
 10 21  1  0  0  0
 21 22  3  0  0  0
  6  1  1  0  0  0
 17  8  1  0  0  0
  9  5  1  0  0  0
 17 12  1  0  0  0
  7 18  1  0  0  0
M  END
> <minimizedAffinity>
-8.18387

> <CNNscore>
0.6970484853

> <CNNaffinity>
6.4699845314

> <CNN_VS>
4.5098929405

> <CNNaffinity_variance>
0.1574803442

$$$$
[H]c1nc([H])c2c([H])c(C#N)c3c4c([H])c([H])c([H])c(OC([H])([H])[H])c4n([H])c3c2c1[H]


 22 25  0  0  0  0  0  0  0  0999 V2000
  -89.4512   29.5449   -0.3363 C   0  0  0  0  0  0  0  0  0  0  0  0
  -90.5535   29.9925   -1.0074 C   0  0  0  0  0  0  0  0  0  0  0  0
  -90.4853   31.1877   -1.7209 C   0  0  0  0  0  0  0  0  0  0  0  0
  -89.3184   31.9238   -1.7575 C   0  0  0  0  0  0  0  0  0  0  0  0
  -88.2312   31.4476   -1.0742 C   0  0  0  0  0  0  0  0  0  0  0  0
  -88.2812   30.2647   -0.3618 C   0  0  0  0  0  0  0  0  0  0  0  0
  -87.1014   30.0060    0.2204 N   0  0  0  0  0  0  0  0  0  0  0  0
  -86.2693   31.0111   -0.1022 C   0  0  0  0  0  0  0  0  0  0  0  0
  -86.9404   31.9379   -0.9147 C   0  0  0  0  0  0  0  0  0  0  0  0
  -86.2879   33.0508   -1.3682 C   0  0  0  0  0  0  0  0  0  0  0  0
  -84.9432   33.2488   -1.0090 C   0  0  0  0  0  0  0  0  0  0  0  0
  -84.3154   32.3232   -0.2128 C   0  0  0  0  0  0  0  0  0  0  0  0
  -82.9904   32.4949    0.1556 C   0  0  0  0  0  0  0  0  0  0  0  0
  -82.3653   31.5956    0.9347 N   0  0  0  0  0  0  0  0  0  0  0  0
  -83.0099   30.5012    1.3795 C   0  0  0  0  0  0  0  0  0  0  0  0
  -84.3247   30.2654    1.0544 C   0  0  0  0  0  0  0  0  0  0  0  0
  -84.9580   31.1967    0.2527 C   0  0  0  0  0  0  0  0  0  0  0  0
  -86.8559   29.1665    0.8265 H   0  0  0  0  0  0  0  0  0  0  0  0
  -90.4379   28.1964    1.4239 C   0  0  0  0  0  0  0  0  0  0  0  0
  -89.5054   28.3621    0.3745 O   0  0  0  0  0  0  0  0  0  0  0  0
  -86.9328   34.0210   -2.1981 C   0  0  0  0  0  0  0  0  0  0  0  0
  -87.4941   34.7909   -2.8914 N   0  0  0  0  0  0  0  0  0  0  0  0
 19 20  1  0  0  0
 20  1  1  0  0  0
  1  2  2  0  0  0
  2  3  1  0  0  0
  3  4  2  0  0  0
  4  5  1  0  0  0
  5  6  2  0  0  0
  6  7  1  0  0  0
  7  8  1  0  0  0
  8  9  2  0  0  0
  9 10  1  0  0  0
 10 11  2  0  0  0
 11 12  1  0  0  0
 12 13  2  0  0  0
 13 14  1  0  0  0
 14 15  2  0  0  0
 15 16  1  0  0  0
 16 17  2  0  0  0
 10 21  1  0  0  0
 21 22  3  0  0  0
  6  1  1  0  0  0
 17  8  1  0  0  0
  9  5  1  0  0  0
 17 12  1  0  0  0
  7 18  1  0  0  0
M  END
> <minimizedAffinity>
-7.73794

> <CNNscore>
0.5569320917

> <CNNaffinity>
6.2356195450

> <CNN_VS>
3.4728167057

> <CNNaffinity_variance>
0.0604942366

$$$$
[H]c1nc([H])c2c([H])c(C#N)c3c4c([H])c([H])c([H])c(OC([H])([H])[H])c4n([H])c3c2c1[H]


 22 25  0  0  0  0  0  0  0  0999 V2000
  -84.0275   30.4829    1.2989 C   0  0  0  0  0  0  0  0  0  0  0  0
  -83.0565   31.4152    1.0664 C   0  0  0  0  0  0  0  0  0  0  0  0
  -83.3232   32.4880    0.2177 C   0  0  0  0  0  0  0  0  0  0  0  0
  -84.5553   32.6196   -0.3901 C   0  0  0  0  0  0  0  0  0  0  0  0
  -85.5070   31.6680   -0.1363 C   0  0  0  0  0  0  0  0  0  0  0  0
  -85.2598   30.5980    0.7024 C   0  0  0  0  0  0  0  0  0  0  0  0
  -86.3361   29.8039    0.7956 N   0  0  0  0  0  0  0  0  0  0  0  0
  -87.2958   30.3417    0.0233 C   0  0  0  0  0  0  0  0  0  0  0  0
  -86.8152   31.5140   -0.5800 C   0  0  0  0  0  0  0  0  0  0  0  0
  -87.6227   32.2360   -1.4148 C   0  0  0  0  0  0  0  0  0  0  0  0
  -88.9326   31.7866   -1.6562 C   0  0  0  0  0  0  0  0  0  0  0  0
  -89.3723   30.6357   -1.0505 C   0  0  0  0  0  0  0  0  0  0  0  0
  -90.6592   30.1713   -1.2719 C   0  0  0  0  0  0  0  0  0  0  0  0
  -91.1008   29.0459   -0.6845 N   0  0  0  0  0  0  0  0  0  0  0  0
  -90.3040   28.3374    0.1367 C   0  0  0  0  0  0  0  0  0  0  0  0
  -89.0159   28.7378    0.4026 C   0  0  0  0  0  0  0  0  0  0  0  0
  -88.5720   29.8966   -0.2069 C   0  0  0  0  0  0  0  0  0  0  0  0
  -86.4274   28.9125    1.3695 H   0  0  0  0  0  0  0  0  0  0  0  0
  -82.5150   28.7767    2.1305 C   0  0  0  0  0  0  0  0  0  0  0  0
  -83.7762   29.4150    2.1377 O   0  0  0  0  0  0  0  0  0  0  0  0
  -87.1742   33.4361   -2.0507 C   0  0  0  0  0  0  0  0  0  0  0  0
  -86.8423   34.4268   -2.5957 N   0  0  0  0  0  0  0  0  0  0  0  0
 19 20  1  0  0  0
 20  1  1  0  0  0
  1  2  2  0  0  0
  2  3  1  0  0  0
  3  4  2  0  0  0
  4  5  1  0  0  0
  5  6  2  0  0  0
  6  7  1  0  0  0
  7  8  1  0  0  0
  8  9  2  0  0  0
  9 10  1  0  0  0
 10 11  2  0  0  0
 11 12  1  0  0  0
 12 13  2  0  0  0
 13 14  1  0  0  0
 14 15  2  0  0  0
 15 16  1  0  0  0
 16 17  2  0  0  0
 10 21  1  0  0  0
 21 22  3  0  0  0
  6  1  1  0  0  0
 17  8  1  0  0  0
  9  5  1  0  0  0
 17 12  1  0  0  0
  7 18  1  0  0  0
M  END
> <minimizedAffinity>
-7.87817

> <CNNscore>
0.4453511536

> <CNNaffinity>
6.1440324783

> <CNN_VS>
2.7362520695

> <CNNaffinity_variance>
0.0972153693

$$$$
[H]c1nc([H])c2c([H])c(C#N)c3c4c([H])c([H])c([H])c(OC([H])([H])[H])c4n([H])c3c2c1[H]


 22 25  0  0  0  0  0  0  0  0999 V2000
  -88.0230   32.6299   -1.5285 C   0  0  0  0  0  0  0  0  0  0  0  0
  -89.3135   32.5586   -1.9707 C   0  0  0  0  0  0  0  0  0  0  0  0
  -90.0794   31.4321   -1.6765 C   0  0  0  0  0  0  0  0  0  0  0  0
  -89.5502   30.3886   -0.9444 C   0  0  0  0  0  0  0  0  0  0  0  0
  -88.2535   30.4910   -0.5159 C   0  0  0  0  0  0  0  0  0  0  0  0
  -87.4798   31.6006   -0.7984 C   0  0  0  0  0  0  0  0  0  0  0  0
  -86.2511   31.4730   -0.2771 N   0  0  0  0  0  0  0  0  0  0  0  0
  -86.2058   30.2848    0.3497 C   0  0  0  0  0  0  0  0  0  0  0  0
  -87.4439   29.6364    0.2232 C   0  0  0  0  0  0  0  0  0  0  0  0
  -87.6330   28.4043    0.7856 C   0  0  0  0  0  0  0  0  0  0  0  0
  -86.5735   27.8032    1.4873 C   0  0  0  0  0  0  0  0  0  0  0  0
  -85.3748   28.4640    1.5929 C   0  0  0  0  0  0  0  0  0  0  0  0
  -84.3146   27.8934    2.2793 C   0  0  0  0  0  0  0  0  0  0  0  0
  -83.1364   28.5308    2.3892 N   0  0  0  0  0  0  0  0  0  0  0  0
  -82.9531   29.7433    1.8348 C   0  0  0  0  0  0  0  0  0  0  0  0
  -83.9599   30.3701    1.1394 C   0  0  0  0  0  0  0  0  0  0  0  0
  -85.1674   29.7056    1.0324 C   0  0  0  0  0  0  0  0  0  0  0  0
  -85.4521   32.1731   -0.3400 H   0  0  0  0  0  0  0  0  0  0  0  0
  -86.5760   33.8480   -3.0491 C   0  0  0  0  0  0  0  0  0  0  0  0
  -87.2533   33.7406   -1.8130 O   0  0  0  0  0  0  0  0  0  0  0  0
  -88.8778   27.7075    0.6814 C   0  0  0  0  0  0  0  0  0  0  0  0
  -89.9160   27.1522    0.6321 N   0  0  0  0  0  0  0  0  0  0  0  0
 19 20  1  0  0  0
 20  1  1  0  0  0
  1  2  2  0  0  0
  2  3  1  0  0  0
  3  4  2  0  0  0
  4  5  1  0  0  0
  5  6  2  0  0  0
  6  7  1  0  0  0
  7  8  1  0  0  0
  8  9  2  0  0  0
  9 10  1  0  0  0
 10 11  2  0  0  0
 11 12  1  0  0  0
 12 13  2  0  0  0
 13 14  1  0  0  0
 14 15  2  0  0  0
 15 16  1  0  0  0
 16 17  2  0  0  0
 10 21  1  0  0  0
 21 22  3  0  0  0
  6  1  1  0  0  0
 17  8  1  0  0  0
  9  5  1  0  0  0
 17 12  1  0  0  0
  7 18  1  0  0  0
M  END
> <minimizedAffinity>
-7.78487

> <CNNscore>
0.4107506573

> <CNNaffinity>
6.0322136879

> <CNN_VS>
2.4777357578

> <CNNaffinity_variance>
0.1740933210

$$$$
[H]c1nc([H])c2c([H])c(C#N)c3c4c([H])c([H])c([H])c(OC([H])([H])[H])c4n([H])c3c2c1[H]


 22 25  0  0  0  0  0  0  0  0999 V2000
  -89.6624   28.8900   -0.0509 C   0  0  0  0  0  0  0  0  0  0  0  0
  -90.4833   29.7293   -0.7492 C   0  0  0  0  0  0  0  0  0  0  0  0
  -89.9875   30.9462   -1.2135 C   0  0  0  0  0  0  0  0  0  0  0  0
  -88.6782   31.3131   -0.9765 C   0  0  0  0  0  0  0  0  0  0  0  0
  -87.8813   30.4493   -0.2735 C   0  0  0  0  0  0  0  0  0  0  0  0
  -88.3563   29.2389    0.1942 C   0  0  0  0  0  0  0  0  0  0  0  0
  -87.3976   28.5692    0.8500 N   0  0  0  0  0  0  0  0  0  0  0  0
  -86.2892   29.3291    0.8197 C   0  0  0  0  0  0  0  0  0  0  0  0
  -86.5510   30.5189    0.1231 C   0  0  0  0  0  0  0  0  0  0  0  0
  -85.5636   31.4517   -0.0355 C   0  0  0  0  0  0  0  0  0  0  0  0
  -84.2916   31.1998    0.5073 C   0  0  0  0  0  0  0  0  0  0  0  0
  -84.0681   30.0260    1.1833 C   0  0  0  0  0  0  0  0  0  0  0  0
  -82.8231   29.7535    1.7279 C   0  0  0  0  0  0  0  0  0  0  0  0
  -82.5924   28.6078    2.3918 N   0  0  0  0  0  0  0  0  0  0  0  0
  -83.5660   27.6915    2.5463 C   0  0  0  0  0  0  0  0  0  0  0  0
  -84.8252   27.8940    2.0330 C   0  0  0  0  0  0  0  0  0  0  0  0
  -85.0515   29.0757    1.3522 C   0  0  0  0  0  0  0  0  0  0  0  0
  -87.4839   27.6148    1.3125 H   0  0  0  0  0  0  0  0  0  0  0  0
  -90.8244   27.6067    1.6500 C   0  0  0  0  0  0  0  0  0  0  0  0
  -90.1412   27.6812    0.4147 O   0  0  0  0  0  0  0  0  0  0  0  0
  -85.7862   32.6777   -0.7379 C   0  0  0  0  0  0  0  0  0  0  0  0
  -86.0116   33.6785   -1.3175 N   0  0  0  0  0  0  0  0  0  0  0  0
 19 20  1  0  0  0
 20  1  1  0  0  0
  1  2  2  0  0  0
  2  3  1  0  0  0
  3  4  2  0  0  0
  4  5  1  0  0  0
  5  6  2  0  0  0
  6  7  1  0  0  0
  7  8  1  0  0  0
  8  9  2  0  0  0
  9 10  1  0  0  0
 10 11  2  0  0  0
 11 12  1  0  0  0
 12 13  2  0  0  0
 13 14  1  0  0  0
 14 15  2  0  0  0
 15 16  1  0  0  0
 16 17  2  0  0  0
 10 21  1  0  0  0
 21 22  3  0  0  0
  6  1  1  0  0  0
 17  8  1  0  0  0
  9  5  1  0  0  0
 17 12  1  0  0  0
  7 18  1  0  0  0
M  END
> <minimizedAffinity>
-8.20669

> <CNNscore>
0.4095316231

> <CNNaffinity>
6.0933060646

> <CNN_VS>
2.4954016209

> <CNNaffinity_variance>
0.1936771274

$$$$
[H]c1nc(N([H])C(=O)c2nc(-c3c([H])c([H])c4c(c3[H])C([H])([H])C([H])([H])O4)sc2[H])sc1[H]


 23 26  0  0  0  0  0  0  0  0999 V2000
  -84.3542   31.9054    0.1966 C   0  0  0  0  0  0  0  0  0  0  0  0
  -83.4348   31.7452    1.2029 C   0  0  0  0  0  0  0  0  0  0  0  0
  -83.8346   30.1977    1.8047 S   0  0  0  0  0  0  0  0  0  0  0  0
  -85.1340   29.8464    0.7566 C   0  0  0  0  0  0  0  0  0  0  0  0
  -85.1938   30.9239    0.0051 N   0  0  0  0  0  0  0  0  0  0  0  0
  -85.9931   28.6489    0.6846 C   0  0  0  0  0  0  0  0  0  0  0  0
  -85.9279   27.7409    1.7098 C   0  0  0  0  0  0  0  0  0  0  0  0
  -86.7513   26.6110    1.6226 C   0  0  0  0  0  0  0  0  0  0  0  0
  -87.6026   26.4026    0.5527 C   0  0  0  0  0  0  0  0  0  0  0  0
  -88.5052   25.3684    0.2481 O   0  0  0  0  0  0  0  0  0  0  0  0
  -89.4759   25.9069   -0.6286 C   0  0  0  0  0  0  0  0  0  0  0  0
  -88.6281   26.8668   -1.4647 C   0  0  0  0  0  0  0  0  0  0  0  0
  -87.6430   27.3364   -0.4613 C   0  0  0  0  0  0  0  0  0  0  0  0
  -86.8248   28.4645   -0.3802 C   0  0  0  0  0  0  0  0  0  0  0  0
  -83.3308   33.8641   -0.6258 O   0  0  0  0  0  0  0  0  0  0  0  0
  -84.3857   33.1018   -0.6659 C   0  0  0  0  0  0  0  0  0  0  0  0
  -85.3878   33.5059   -1.5005 N   0  0  0  0  0  0  0  0  0  0  0  0
  -85.2077   34.4230   -2.0797 H   0  0  0  0  0  0  0  0  0  0  0  0
  -86.7260   33.0044   -1.6719 C   0  0  0  0  0  0  0  0  0  0  0  0
  -87.6923   33.0490   -0.7414 N   0  0  0  0  0  0  0  0  0  0  0  0
  -88.8363   32.5151   -0.9870 C   0  0  0  0  0  0  0  0  0  0  0  0
  -89.0349   31.9136   -2.1984 C   0  0  0  0  0  0  0  0  0  0  0  0
  -87.5151   32.1636   -2.9267 S   0  0  0  0  0  0  0  0  0  0  0  0
 15 16  2  0  0  0
 16 17  1  0  0  0
 17 19  1  0  0  0
 19 20  2  0  0  0
 20 21  1  0  0  0
 21 22  2  0  0  0
 22 23  1  0  0  0
 16  1  1  0  0  0
  1  2  2  0  0  0
  2  3  1  0  0  0
  3  4  1  0  0  0
  4  5  2  0  0  0
  4  6  1  0  0  0
  6  7  2  0  0  0
  7  8  1  0  0  0
  8  9  2  0  0  0
  9 10  1  0  0  0
 10 11  1  0  0  0
 11 12  1  0  0  0
 12 13  1  0  0  0
 13 14  2  0  0  0
 23 19  1  0  0  0
  5  1  1  0  0  0
 14  6  1  0  0  0
 13  9  1  0  0  0
 17 18  1  0  0  0
M  END
> <minimizedAffinity>
-7.58610

> <CNNscore>
0.7796134353

> <CNNaffinity>
6.6070723534

> <CNN_VS>
5.1509623528

> <CNNaffinity_variance>
0.1458096951

$$$$
[H]c1nc(N([H])C(=O)c2nc(-c3c([H])c([H])c4c(c3[H])C([H])([H])C([H])([H])O4)sc2[H])sc1[H]


 23 26  0  0  0  0  0  0  0  0999 V2000
  -84.4657   28.9493    1.6817 C   0  0  0  0  0  0  0  0  0  0  0  0
  -83.2964   29.5991    1.9889 C   0  0  0  0  0  0  0  0  0  0  0  0
  -83.5309   31.1195    1.2472 S   0  0  0  0  0  0  0  0  0  0  0  0
  -85.0832   30.8461    0.5945 C   0  0  0  0  0  0  0  0  0  0  0  0
  -85.3402   29.6142    0.9759 N   0  0  0  0  0  0  0  0  0  0  0  0
  -85.9454   31.7418   -0.2003 C   0  0  0  0  0  0  0  0  0  0  0  0
  -85.3953   32.8908   -0.7071 C   0  0  0  0  0  0  0  0  0  0  0  0
  -86.2305   33.7274   -1.4587 C   0  0  0  0  0  0  0  0  0  0  0  0
  -87.5595   33.4230   -1.6909 C   0  0  0  0  0  0  0  0  0  0  0  0
  -88.5744   34.0911   -2.3986 O   0  0  0  0  0  0  0  0  0  0  0  0
  -89.5285   33.1179   -2.7774 C   0  0  0  0  0  0  0  0  0  0  0  0
  -89.5062   32.1854   -1.5653 C   0  0  0  0  0  0  0  0  0  0  0  0
  -88.0803   32.2590   -1.1662 C   0  0  0  0  0  0  0  0  0  0  0  0
  -87.2532   31.4210   -0.4163 C   0  0  0  0  0  0  0  0  0  0  0  0
  -83.7924   26.9689    2.7701 O   0  0  0  0  0  0  0  0  0  0  0  0
  -84.7593   27.5814    2.1492 C   0  0  0  0  0  0  0  0  0  0  0  0
  -85.9225   26.8803    2.0087 N   0  0  0  0  0  0  0  0  0  0  0  0
  -85.9480   25.8736    2.4499 H   0  0  0  0  0  0  0  0  0  0  0  0
  -87.1136   27.1791    1.2579 C   0  0  0  0  0  0  0  0  0  0  0  0
  -88.2288   27.7275    1.7652 N   0  0  0  0  0  0  0  0  0  0  0  0
  -89.2552   27.8952    1.0088 C   0  0  0  0  0  0  0  0  0  0  0  0
  -89.1787   27.5068   -0.2996 C   0  0  0  0  0  0  0  0  0  0  0  0
  -87.5850   26.9070   -0.3569 S   0  0  0  0  0  0  0  0  0  0  0  0
 15 16  2  0  0  0
 16 17  1  0  0  0
 17 19  1  0  0  0
 19 20  2  0  0  0
 20 21  1  0  0  0
 21 22  2  0  0  0
 22 23  1  0  0  0
 16  1  1  0  0  0
  1  2  2  0  0  0
  2  3  1  0  0  0
  3  4  1  0  0  0
  4  5  2  0  0  0
  4  6  1  0  0  0
  6  7  2  0  0  0
  7  8  1  0  0  0
  8  9  2  0  0  0
  9 10  1  0  0  0
 10 11  1  0  0  0
 11 12  1  0  0  0
 12 13  1  0  0  0
 13 14  2  0  0  0
 23 19  1  0  0  0
  5  1  1  0  0  0
 14  6  1  0  0  0
 13  9  1  0  0  0
 17 18  1  0  0  0
M  END
> <minimizedAffinity>
-8.03780

> <CNNscore>
0.6712474823

> <CNNaffinity>
6.5240683556

> <CNN_VS>
4.3792643547

> <CNNaffinity_variance>
0.3315655291

$$$$
[H]c1nc(N([H])C(=O)c2nc(-c3c([H])c([H])c4c(c3[H])C([H])([H])C([H])([H])O4)sc2[H])sc1[H]


 23 26  0  0  0  0  0  0  0  0999 V2000
  -87.8450   31.8388   -1.8333 C   0  0  0  0  0  0  0  0  0  0  0  0
  -87.8104   31.1042   -2.9922 C   0  0  0  0  0  0  0  0  0  0  0  0
  -88.4679   29.6118   -2.4852 S   0  0  0  0  0  0  0  0  0  0  0  0
  -88.7449   30.0005   -0.8473 C   0  0  0  0  0  0  0  0  0  0  0  0
  -88.3234   31.2439   -0.7739 N   0  0  0  0  0  0  0  0  0  0  0  0
  -89.3113   29.1755    0.2372 C   0  0  0  0  0  0  0  0  0  0  0  0
  -90.5905   29.4401    0.6533 C   0  0  0  0  0  0  0  0  0  0  0  0
  -91.1097   28.6457    1.6837 C   0  0  0  0  0  0  0  0  0  0  0  0
  -90.3760   27.6305    2.2701 C   0  0  0  0  0  0  0  0  0  0  0  0
  -90.6742   26.7184    3.2978 O   0  0  0  0  0  0  0  0  0  0  0  0
  -89.8300   25.5977    3.1187 C   0  0  0  0  0  0  0  0  0  0  0  0
  -88.5468   26.2632    2.6189 C   0  0  0  0  0  0  0  0  0  0  0  0
  -89.0921   27.3916    1.8270 C   0  0  0  0  0  0  0  0  0  0  0  0
  -88.5691   28.1798    0.8004 C   0  0  0  0  0  0  0  0  0  0  0  0
  -88.1743   34.1109   -2.3707 O   0  0  0  0  0  0  0  0  0  0  0  0
  -87.4064   33.2459   -1.7728 C   0  0  0  0  0  0  0  0  0  0  0  0
  -86.2922   33.7500   -1.1657 N   0  0  0  0  0  0  0  0  0  0  0  0
  -86.1536   34.8396   -1.2155 H   0  0  0  0  0  0  0  0  0  0  0  0
  -85.1686   33.0824   -0.5627 C   0  0  0  0  0  0  0  0  0  0  0  0
  -83.8831   33.2835   -0.8925 N   0  0  0  0  0  0  0  0  0  0  0  0
  -82.9646   32.5848   -0.3249 C   0  0  0  0  0  0  0  0  0  0  0  0
  -83.3285   31.6509    0.6046 C   0  0  0  0  0  0  0  0  0  0  0  0
  -85.0210   31.8458    0.6004 S   0  0  0  0  0  0  0  0  0  0  0  0
 15 16  2  0  0  0
 16 17  1  0  0  0
 17 19  1  0  0  0
 19 20  2  0  0  0
 20 21  1  0  0  0
 21 22  2  0  0  0
 22 23  1  0  0  0
 16  1  1  0  0  0
  1  2  2  0  0  0
  2  3  1  0  0  0
  3  4  1  0  0  0
  4  5  2  0  0  0
  4  6  1  0  0  0
  6  7  2  0  0  0
  7  8  1  0  0  0
  8  9  2  0  0  0
  9 10  1  0  0  0
 10 11  1  0  0  0
 11 12  1  0  0  0
 12 13  1  0  0  0
 13 14  2  0  0  0
 23 19  1  0  0  0
  5  1  1  0  0  0
 14  6  1  0  0  0
 13  9  1  0  0  0
 17 18  1  0  0  0
M  END
> <minimizedAffinity>
-7.13082

> <CNNscore>
0.5598836541

> <CNNaffinity>
6.2069535255

> <CNN_VS>
3.4751718044

> <CNNaffinity_variance>
0.1596147716

$$$$
[H]c1nc(N([H])C(=O)c2nc(-c3c([H])c([H])c4c(c3[H])C([H])([H])C([H])([H])O4)sc2[H])sc1[H]


 23 26  0  0  0  0  0  0  0  0999 V2000
  -85.3870   32.4830   -0.5127 C   0  0  0  0  0  0  0  0  0  0  0  0
  -86.1968   33.5154   -0.9153 C   0  0  0  0  0  0  0  0  0  0  0  0
  -87.6251   32.6920   -1.3611 S   0  0  0  0  0  0  0  0  0  0  0  0
  -87.1176   31.1001   -1.0163 C   0  0  0  0  0  0  0  0  0  0  0  0
  -85.8901   31.2800   -0.5803 N   0  0  0  0  0  0  0  0  0  0  0  0
  -87.8451   29.8243   -1.1594 C   0  0  0  0  0  0  0  0  0  0  0  0
  -88.3803   29.5162   -2.3835 C   0  0  0  0  0  0  0  0  0  0  0  0
  -89.0670   28.3007   -2.4985 C   0  0  0  0  0  0  0  0  0  0  0  0
  -89.2095   27.4330   -1.4309 C   0  0  0  0  0  0  0  0  0  0  0  0
  -89.8415   26.1834   -1.3040 O   0  0  0  0  0  0  0  0  0  0  0  0
  -89.2296   25.5150   -0.2179 C   0  0  0  0  0  0  0  0  0  0  0  0
  -88.9581   26.6778    0.7379 C   0  0  0  0  0  0  0  0  0  0  0  0
  -88.6585   27.7744   -0.2137 C   0  0  0  0  0  0  0  0  0  0  0  0
  -87.9730   28.9844   -0.0927 C   0  0  0  0  0  0  0  0  0  0  0  0
  -83.3543   33.6779   -0.5266 O   0  0  0  0  0  0  0  0  0  0  0  0
  -84.0258   32.7011    0.0123 C   0  0  0  0  0  0  0  0  0  0  0  0
  -83.3855   32.0017    0.9946 N   0  0  0  0  0  0  0  0  0  0  0  0
  -82.3724   32.3375    1.2589 H   0  0  0  0  0  0  0  0  0  0  0  0
  -83.7574   30.7921    1.6804 C   0  0  0  0  0  0  0  0  0  0  0  0
  -84.8598   30.6376    2.4304 N   0  0  0  0  0  0  0  0  0  0  0  0
  -85.0594   29.5259    3.0453 C   0  0  0  0  0  0  0  0  0  0  0  0
  -84.1351   28.5272    2.9154 C   0  0  0  0  0  0  0  0  0  0  0  0
  -83.0045   29.2771    1.8847 S   0  0  0  0  0  0  0  0  0  0  0  0
 15 16  2  0  0  0
 16 17  1  0  0  0
 17 19  1  0  0  0
 19 20  2  0  0  0
 20 21  1  0  0  0
 21 22  2  0  0  0
 22 23  1  0  0  0
 16  1  1  0  0  0
  1  2  2  0  0  0
  2  3  1  0  0  0
  3  4  1  0  0  0
  4  5  2  0  0  0
  4  6  1  0  0  0
  6  7  2  0  0  0
  7  8  1  0  0  0
  8  9  2  0  0  0
  9 10  1  0  0  0
 10 11  1  0  0  0
 11 12  1  0  0  0
 12 13  1  0  0  0
 13 14  2  0  0  0
 23 19  1  0  0  0
  5  1  1  0  0  0
 14  6  1  0  0  0
 13  9  1  0  0  0
 17 18  1  0  0  0
M  END
> <minimizedAffinity>
-7.26536

> <CNNscore>
0.5317257643

> <CNNaffinity>
6.3323011398

> <CNN_VS>
3.3670475483

> <CNNaffinity_variance>
0.0844692141

$$$$
[H]c1nc(N([H])C(=O)c2nc(-c3c([H])c([H])c4c(c3[H])C([H])([H])C([H])([H])O4)sc2[H])sc1[H]


 23 26  0  0  0  0  0  0  0  0999 V2000
  -85.4519   27.8431    1.6481 C   0  0  0  0  0  0  0  0  0  0  0  0
  -86.2373   26.7434    1.8882 C   0  0  0  0  0  0  0  0  0  0  0  0
  -87.6030   27.0642    0.9142 S   0  0  0  0  0  0  0  0  0  0  0  0
  -87.1053   28.5616    0.2657 C   0  0  0  0  0  0  0  0  0  0  0  0
  -85.9276   28.7370    0.8237 N   0  0  0  0  0  0  0  0  0  0  0  0
  -87.7958   29.4575   -0.6819 C   0  0  0  0  0  0  0  0  0  0  0  0
  -88.8406   30.2134   -0.2164 C   0  0  0  0  0  0  0  0  0  0  0  0
  -89.4828   31.0574   -1.1316 C   0  0  0  0  0  0  0  0  0  0  0  0
  -89.0924   31.1383   -2.4560 C   0  0  0  0  0  0  0  0  0  0  0  0
  -89.5718   31.8947   -3.5401 O   0  0  0  0  0  0  0  0  0  0  0  0
  -88.5103   32.0133   -4.4675 C   0  0  0  0  0  0  0  0  0  0  0  0
  -87.8369   30.6468   -4.3319 C   0  0  0  0  0  0  0  0  0  0  0  0
  -88.0374   30.3639   -2.8905 C   0  0  0  0  0  0  0  0  0  0  0  0
  -87.3934   29.5208   -1.9833 C   0  0  0  0  0  0  0  0  0  0  0  0
  -83.7255   27.0595    3.0500 O   0  0  0  0  0  0  0  0  0  0  0  0
  -84.1150   28.0094    2.2491 C   0  0  0  0  0  0  0  0  0  0  0  0
  -83.2375   29.0394    2.0668 N   0  0  0  0  0  0  0  0  0  0  0  0
  -82.2744   28.9658    2.5921 H   0  0  0  0  0  0  0  0  0  0  0  0
  -83.3979   30.3008    1.3923 C   0  0  0  0  0  0  0  0  0  0  0  0
  -82.7041   30.6922    0.3119 N   0  0  0  0  0  0  0  0  0  0  0  0
  -82.8920   31.8689   -0.1719 C   0  0  0  0  0  0  0  0  0  0  0  0
  -83.7999   32.6919    0.4337 C   0  0  0  0  0  0  0  0  0  0  0  0
  -84.3404   31.6870    1.6990 S   0  0  0  0  0  0  0  0  0  0  0  0
 15 16  2  0  0  0
 16 17  1  0  0  0
 17 19  1  0  0  0
 19 20  2  0  0  0
 20 21  1  0  0  0
 21 22  2  0  0  0
 22 23  1  0  0  0
 16  1  1  0  0  0
  1  2  2  0  0  0
  2  3  1  0  0  0
  3  4  1  0  0  0
  4  5  2  0  0  0
  4  6  1  0  0  0
  6  7  2  0  0  0
  7  8  1  0  0  0
  8  9  2  0  0  0
  9 10  1  0  0  0
 10 11  1  0  0  0
 11 12  1  0  0  0
 12 13  1  0  0  0
 13 14  2  0  0  0
 23 19  1  0  0  0
  5  1  1  0  0  0
 14  6  1  0  0  0
 13  9  1  0  0  0
 17 18  1  0  0  0
M  END
> <minimizedAffinity>
-7.60291

> <CNNscore>
0.4493101239

> <CNNaffinity>
6.4046201706

> <CNN_VS>
2.8776607513

> <CNNaffinity_variance>
0.3156615496

$$$$
[H]c1nc(N([H])C(=O)c2nc(-c3c([H])c([H])c4c(c3[H])C([H])([H])C([H])([H])O4)sc2[H])sc1[H]


 23 26  0  0  0  0  0  0  0  0999 V2000
  -85.0354   29.0210    1.6304 C   0  0  0  0  0  0  0  0  0  0  0  0
  -84.0662   29.8888    2.0679 C   0  0  0  0  0  0  0  0  0  0  0  0
  -84.5435   31.3535    1.3305 S   0  0  0  0  0  0  0  0  0  0  0  0
  -85.9310   30.7865    0.5157 C   0  0  0  0  0  0  0  0  0  0  0  0
  -85.9573   29.5145    0.8484 N   0  0  0  0  0  0  0  0  0  0  0  0
  -86.8811   31.5114   -0.3497 C   0  0  0  0  0  0  0  0  0  0  0  0
  -88.1896   31.1022   -0.3623 C   0  0  0  0  0  0  0  0  0  0  0  0
  -89.0756   31.8034   -1.1903 C   0  0  0  0  0  0  0  0  0  0  0  0
  -88.6651   32.8686   -1.9711 C   0  0  0  0  0  0  0  0  0  0  0  0
  -89.3536   33.7098   -2.8630 O   0  0  0  0  0  0  0  0  0  0  0  0
  -88.6213   34.9171   -2.9470 C   0  0  0  0  0  0  0  0  0  0  0  0
  -87.1831   34.4050   -2.8546 C   0  0  0  0  0  0  0  0  0  0  0  0
  -87.3414   33.2537   -1.9341 C   0  0  0  0  0  0  0  0  0  0  0  0
  -86.4536   32.5589   -1.1109 C   0  0  0  0  0  0  0  0  0  0  0  0
  -84.0146   27.1531    2.6447 O   0  0  0  0  0  0  0  0  0  0  0  0
  -85.0770   27.6053    2.0426 C   0  0  0  0  0  0  0  0  0  0  0  0
  -86.0949   26.7122    1.8684 N   0  0  0  0  0  0  0  0  0  0  0  0
  -85.9380   25.7008    2.2699 H   0  0  0  0  0  0  0  0  0  0  0  0
  -87.3215   26.8208    1.1230 C   0  0  0  0  0  0  0  0  0  0  0  0
  -87.4720   26.4881   -0.1687 N   0  0  0  0  0  0  0  0  0  0  0  0
  -88.6036   26.6838   -0.7476 C   0  0  0  0  0  0  0  0  0  0  0  0
  -89.6271   27.2291   -0.0239 C   0  0  0  0  0  0  0  0  0  0  0  0
  -88.8700   27.4306    1.4891 S   0  0  0  0  0  0  0  0  0  0  0  0
 15 16  2  0  0  0
 16 17  1  0  0  0
 17 19  1  0  0  0
 19 20  2  0  0  0
 20 21  1  0  0  0
 21 22  2  0  0  0
 22 23  1  0  0  0
 16  1  1  0  0  0
  1  2  2  0  0  0
  2  3  1  0  0  0
  3  4  1  0  0  0
  4  5  2  0  0  0
  4  6  1  0  0  0
  6  7  2  0  0  0
  7  8  1  0  0  0
  8  9  2  0  0  0
  9 10  1  0  0  0
 10 11  1  0  0  0
 11 12  1  0  0  0
 12 13  1  0  0  0
 13 14  2  0  0  0
 23 19  1  0  0  0
  5  1  1  0  0  0
 14  6  1  0  0  0
 13  9  1  0  0  0
 17 18  1  0  0  0
M  END
> <minimizedAffinity>
-7.73043

> <CNNscore>
0.3885082901

> <CNNaffinity>
6.2767567635

> <CNN_VS>
2.4385719299

> <CNNaffinity_variance>
0.2651572526

$$$$
[H]c1nc(N([H])C(=O)c2nc(-c3c([H])c([H])c4c(c3[H])C([H])([H])C([H])([H])O4)sc2[H])sc1[H]


 23 26  0  0  0  0  0  0  0  0999 V2000
  -87.4245   32.3574   -2.7102 C   0  0  0  0  0  0  0  0  0  0  0  0
  -87.6156   32.1654   -4.0557 C   0  0  0  0  0  0  0  0  0  0  0  0
  -87.9476   30.4919   -4.1309 S   0  0  0  0  0  0  0  0  0  0  0  0
  -87.8245   30.1343   -2.4673 C   0  0  0  0  0  0  0  0  0  0  0  0
  -87.5383   31.3063   -1.9440 N   0  0  0  0  0  0  0  0  0  0  0  0
  -87.9907   28.8489   -1.7621 C   0  0  0  0  0  0  0  0  0  0  0  0
  -87.2568   28.6334   -0.6243 C   0  0  0  0  0  0  0  0  0  0  0  0
  -87.4290   27.4070    0.0304 C   0  0  0  0  0  0  0  0  0  0  0  0
  -88.3000   26.4399   -0.4375 C   0  0  0  0  0  0  0  0  0  0  0  0
  -88.6364   25.1594    0.0361 O   0  0  0  0  0  0  0  0  0  0  0  0
  -89.9219   24.8528   -0.4682 C   0  0  0  0  0  0  0  0  0  0  0  0
  -89.8653   25.4998   -1.8528 C   0  0  0  0  0  0  0  0  0  0  0  0
  -89.0226   26.6898   -1.5851 C   0  0  0  0  0  0  0  0  0  0  0  0
  -88.8555   27.9101   -2.2420 C   0  0  0  0  0  0  0  0  0  0  0  0
  -87.8729   34.6683   -2.5725 O   0  0  0  0  0  0  0  0  0  0  0  0
  -87.1434   33.6844   -2.1305 C   0  0  0  0  0  0  0  0  0  0  0  0
  -86.2101   34.0050   -1.1868 N   0  0  0  0  0  0  0  0  0  0  0  0
  -86.1720   35.0566   -0.8680 H   0  0  0  0  0  0  0  0  0  0  0  0
  -85.1526   33.2189   -0.6076 C   0  0  0  0  0  0  0  0  0  0  0  0
  -83.8492   33.3399   -0.9047 N   0  0  0  0  0  0  0  0  0  0  0  0
  -82.9978   32.5406   -0.3660 C   0  0  0  0  0  0  0  0  0  0  0  0
  -83.4499   31.5843    0.4999 C   0  0  0  0  0  0  0  0  0  0  0  0
  -85.1224   31.9083    0.4811 S   0  0  0  0  0  0  0  0  0  0  0  0
 15 16  2  0  0  0
 16 17  1  0  0  0
 17 19  1  0  0  0
 19 20  2  0  0  0
 20 21  1  0  0  0
 21 22  2  0  0  0
 22 23  1  0  0  0
 16  1  1  0  0  0
  1  2  2  0  0  0
  2  3  1  0  0  0
  3  4  1  0  0  0
  4  5  2  0  0  0
  4  6  1  0  0  0
  6  7  2  0  0  0
  7  8  1  0  0  0
  8  9  2  0  0  0
  9 10  1  0  0  0
 10 11  1  0  0  0
 11 12  1  0  0  0
 12 13  1  0  0  0
 13 14  2  0  0  0
 23 19  1  0  0  0
  5  1  1  0  0  0
 14  6  1  0  0  0
 13  9  1  0  0  0
 17 18  1  0  0  0
M  END
> <minimizedAffinity>
-6.98747

> <CNNscore>
0.3268803358

> <CNNaffinity>
6.1084494591

> <CNN_VS>
1.9967319965

> <CNNaffinity_variance>
0.2266574800

$$$$
[H]c1nc(N([H])C(=O)c2nc(-c3c([H])c([H])c4c(c3[H])C([H])([H])C([H])([H])O4)sc2[H])sc1[H]


 23 26  0  0  0  0  0  0  0  0999 V2000
  -85.6307   28.3844    1.3972 C   0  0  0  0  0  0  0  0  0  0  0  0
  -85.8850   28.8418    0.1284 C   0  0  0  0  0  0  0  0  0  0  0  0
  -87.3612   28.0653   -0.2387 S   0  0  0  0  0  0  0  0  0  0  0  0
  -87.5686   27.2114    1.2237 C   0  0  0  0  0  0  0  0  0  0  0  0
  -86.5051   27.5630    1.9126 N   0  0  0  0  0  0  0  0  0  0  0  0
  -88.6528   26.3020    1.6415 C   0  0  0  0  0  0  0  0  0  0  0  0
  -89.0593   26.3351    2.9504 C   0  0  0  0  0  0  0  0  0  0  0  0
  -90.0898   25.4641    3.3269 C   0  0  0  0  0  0  0  0  0  0  0  0
  -90.6856   24.5982    2.4279 C   0  0  0  0  0  0  0  0  0  0  0  0
  -91.7151   23.6505    2.5660 O   0  0  0  0  0  0  0  0  0  0  0  0
  -92.2856   23.4648    1.2850 C   0  0  0  0  0  0  0  0  0  0  0  0
  -91.0537   23.5819    0.3862 C   0  0  0  0  0  0  0  0  0  0  0  0
  -90.2521   24.5911    1.1188 C   0  0  0  0  0  0  0  0  0  0  0  0
  -89.2255   25.4568    0.7375 C   0  0  0  0  0  0  0  0  0  0  0  0
  -84.1028   28.0412    3.1601 O   0  0  0  0  0  0  0  0  0  0  0  0
  -84.4547   28.8172    2.1754 C   0  0  0  0  0  0  0  0  0  0  0  0
  -83.6913   29.9336    1.9877 N   0  0  0  0  0  0  0  0  0  0  0  0
  -82.8371   30.0670    2.6669 H   0  0  0  0  0  0  0  0  0  0  0  0
  -83.8804   31.0644    1.1175 C   0  0  0  0  0  0  0  0  0  0  0  0
  -85.0108   31.7812    1.0176 N   0  0  0  0  0  0  0  0  0  0  0  0
  -85.0834   32.7372    0.1605 C   0  0  0  0  0  0  0  0  0  0  0  0
  -83.9982   32.9964   -0.6293 C   0  0  0  0  0  0  0  0  0  0  0  0
  -82.9109   31.8103   -0.0690 S   0  0  0  0  0  0  0  0  0  0  0  0
 15 16  2  0  0  0
 16 17  1  0  0  0
 17 19  1  0  0  0
 19 20  2  0  0  0
 20 21  1  0  0  0
 21 22  2  0  0  0
 22 23  1  0  0  0
 16  1  1  0  0  0
  1  2  2  0  0  0
  2  3  1  0  0  0
  3  4  1  0  0  0
  4  5  2  0  0  0
  4  6  1  0  0  0
  6  7  2  0  0  0
  7  8  1  0  0  0
  8  9  2  0  0  0
  9 10  1  0  0  0
 10 11  1  0  0  0
 11 12  1  0  0  0
 12 13  1  0  0  0
 13 14  2  0  0  0
 23 19  1  0  0  0
  5  1  1  0  0  0
 14  6  1  0  0  0
 13  9  1  0  0  0
 17 18  1  0  0  0
M  END
> <minimizedAffinity>
-7.11816

> <CNNscore>
0.3091847897

> <CNNaffinity>
5.9299726486

> <CNN_VS>
1.8334573507

> <CNNaffinity_variance>
0.3048756719

$$$$
[H]c1nc(N([H])C(=O)c2nc(-c3c([H])c([H])c4c(c3[H])C([H])([H])C([H])([H])O4)sc2[H])sc1[H]


 23 26  0  0  0  0  0  0  0  0999 V2000
  -88.5106   31.5559   -2.8510 C   0  0  0  0  0  0  0  0  0  0  0  0
  -89.5876   32.0050   -2.1284 C   0  0  0  0  0  0  0  0  0  0  0  0
  -89.1749   31.5248   -0.5423 S   0  0  0  0  0  0  0  0  0  0  0  0
  -87.6749   30.7872   -0.8833 C   0  0  0  0  0  0  0  0  0  0  0  0
  -87.5680   30.9461   -2.1843 N   0  0  0  0  0  0  0  0  0  0  0  0
  -86.7168   30.1293    0.0258 C   0  0  0  0  0  0  0  0  0  0  0  0
  -87.0885   28.9495    0.6170 C   0  0  0  0  0  0  0  0  0  0  0  0
  -86.1649   28.3409    1.4766 C   0  0  0  0  0  0  0  0  0  0  0  0
  -84.9226   28.8933    1.7308 C   0  0  0  0  0  0  0  0  0  0  0  0
  -83.8488   28.4781    2.5380 O   0  0  0  0  0  0  0  0  0  0  0  0
  -82.6788   29.0780    2.0164 C   0  0  0  0  0  0  0  0  0  0  0  0
  -83.2128   30.4378    1.5638 C   0  0  0  0  0  0  0  0  0  0  0  0
  -84.5813   30.0811    1.1191 C   0  0  0  0  0  0  0  0  0  0  0  0
  -85.4974   30.6925    0.2615 C   0  0  0  0  0  0  0  0  0  0  0  0
  -88.2205   30.7082   -5.0321 O   0  0  0  0  0  0  0  0  0  0  0  0
  -88.3834   31.7755   -4.3041 C   0  0  0  0  0  0  0  0  0  0  0  0
  -88.4152   32.9630   -4.9773 N   0  0  0  0  0  0  0  0  0  0  0  0
  -88.3238   32.9122   -6.0718 H   0  0  0  0  0  0  0  0  0  0  0  0
  -88.4214   34.3177   -4.4909 C   0  0  0  0  0  0  0  0  0  0  0  0
  -87.3272   35.0376   -4.1974 N   0  0  0  0  0  0  0  0  0  0  0  0
  -87.4567   36.2217   -3.7128 C   0  0  0  0  0  0  0  0  0  0  0  0
  -88.7152   36.7153   -3.5096 C   0  0  0  0  0  0  0  0  0  0  0  0
  -89.6585   35.4019   -4.0461 S   0  0  0  0  0  0  0  0  0  0  0  0
 15 16  2  0  0  0
 16 17  1  0  0  0
 17 19  1  0  0  0
 19 20  2  0  0  0
 20 21  1  0  0  0
 21 22  2  0  0  0
 22 23  1  0  0  0
 16  1  1  0  0  0
  1  2  2  0  0  0
  2  3  1  0  0  0
  3  4  1  0  0  0
  4  5  2  0  0  0
  4  6  1  0  0  0
  6  7  2  0  0  0
  7  8  1  0  0  0
  8  9  2  0  0  0
  9 10  1  0  0  0
 10 11  1  0  0  0
 11 12  1  0  0  0
 12 13  1  0  0  0
 13 14  2  0  0  0
 23 19  1  0  0  0
  5  1  1  0  0  0
 14  6  1  0  0  0
 13  9  1  0  0  0
 17 18  1  0  0  0
M  END
> <minimizedAffinity>
-7.91698

> <CNNscore>
0.2797050774

> <CNNaffinity>
5.8176169395

> <CNN_VS>
1.6272170544

> <CNNaffinity_variance>
0.3036032915

$$$$
[H]N=C(OC([H])([H])[H])c1nc2c([H])c([H])c3nc([H])nc(N([H])c4c([H])c(Br)c5c(c4[H])OC([H])([H])O5)c3c2s1


 30 34  0  0  0  0  0  0  0  0999 V2000
  -86.2308   32.6001   -1.2169 C   0  0  0  0  0  0  0  0  0  0  0  0
  -85.0255   32.7284   -0.6982 N   0  0  0  0  0  0  0  0  0  0  0  0
  -84.5321   31.7900    0.0613 C   0  0  0  0  0  0  0  0  0  0  0  0
  -83.2515   31.8166    0.6647 C   0  0  0  0  0  0  0  0  0  0  0  0
  -82.8508   30.7765    1.4274 C   0  0  0  0  0  0  0  0  0  0  0  0
  -83.6176   29.6610    1.6682 C   0  0  0  0  0  0  0  0  0  0  0  0
  -83.2313   28.6313    2.4083 N   0  0  0  0  0  0  0  0  0  0  0  0
  -84.0793   27.5787    2.5664 C   0  0  0  0  0  0  0  0  0  0  0  0
  -85.2762   27.5342    2.0148 N   0  0  0  0  0  0  0  0  0  0  0  0
  -85.7546   28.5537    1.2366 C   0  0  0  0  0  0  0  0  0  0  0  0
  -84.8869   29.6079    1.0856 C   0  0  0  0  0  0  0  0  0  0  0  0
  -85.3102   30.6826    0.2925 C   0  0  0  0  0  0  0  0  0  0  0  0
  -86.6985   31.0876   -0.6106 S   0  0  0  0  0  0  0  0  0  0  0  0
  -86.9670   33.5281   -2.0901 C   0  0  0  0  0  0  0  0  0  0  0  0
  -86.3314   34.0962   -3.0398 N   0  0  0  0  0  0  0  0  0  0  0  0
  -85.3186   33.9227   -3.2113 H   0  0  0  0  0  0  0  0  0  0  0  0
  -89.1777   34.0380   -2.8807 C   0  0  0  0  0  0  0  0  0  0  0  0
  -88.2896   33.7173   -1.8197 O   0  0  0  0  0  0  0  0  0  0  0  0
  -87.0693   28.4738    0.7223 N   0  0  0  0  0  0  0  0  0  0  0  0
  -87.3988   29.0254   -0.0545 H   0  0  0  0  0  0  0  0  0  0  0  0
  -88.0313   27.5997    1.3002 C   0  0  0  0  0  0  0  0  0  0  0  0
  -88.4893   26.5228    0.5405 C   0  0  0  0  0  0  0  0  0  0  0  0
  -89.3924   25.6014    1.0239 C   0  0  0  0  0  0  0  0  0  0  0  0
  -90.0004   24.4587    0.4885 O   0  0  0  0  0  0  0  0  0  0  0  0
  -90.5796   23.6992    1.5301 C   0  0  0  0  0  0  0  0  0  0  0  0
  -90.7763   24.6635    2.5453 O   0  0  0  0  0  0  0  0  0  0  0  0
  -89.8817   25.7167    2.2996 C   0  0  0  0  0  0  0  0  0  0  0  0
  -89.4315   26.7782    3.0526 C   0  0  0  0  0  0  0  0  0  0  0  0
  -90.1138   26.9348    4.8242 Br  0  0  0  0  0  0  0  0  0  0  0  0
  -88.5125   27.7199    2.5687 C   0  0  0  0  0  0  0  0  0  0  0  0
 17 18  1  0  0  0
 18 14  1  0  0  0
 14 15  2  0  0  0
 14  1  1  0  0  0
  1  2  2  0  0  0
  2  3  1  0  0  0
  3  4  2  0  0  0
  4  5  1  0  0  0
  5  6  2  0  0  0
  6  7  1  0  0  0
  7  8  2  0  0  0
  8  9  1  0  0  0
  9 10  2  0  0  0
 10 19  1  0  0  0
 19 21  1  0  0  0
 21 22  2  0  0  0
 22 23  1  0  0  0
 23 24  1  0  0  0
 24 25  1  0  0  0
 25 26  1  0  0  0
 26 27  1  0  0  0
 27 28  1  0  0  0
 28 29  1  0  0  0
 28 30  2  0  0  0
 10 11  1  0  0  0
 11 12  2  0  0  0
 12 13  1  0  0  0
 13  1  1  0  0  0
 12  3  1  0  0  0
 11  6  1  0  0  0
 30 21  1  0  0  0
 27 23  2  0  0  0
 15 16  1  0  0  0
 19 20  1  0  0  0
M  END
> <minimizedAffinity>
-9.46780

> <CNNscore>
0.8321695924

> <CNNaffinity>
7.5518302917

> <CNN_VS>
6.2844033241

> <CNNaffinity_variance>
0.1334023327

$$$$
[H]N=C(OC([H])([H])[H])c1nc2c([H])c([H])c3nc([H])nc(N([H])c4c([H])c(Br)c5c(c4[H])OC([H])([H])O5)c3c2s1


 30 34  0  0  0  0  0  0  0  0999 V2000
  -87.1660   27.0395    1.9626 C   0  0  0  0  0  0  0  0  0  0  0  0
  -85.8921   26.9002    2.2725 N   0  0  0  0  0  0  0  0  0  0  0  0
  -85.0481   27.8667    2.0390 C   0  0  0  0  0  0  0  0  0  0  0  0
  -83.6639   27.8315    2.3349 C   0  0  0  0  0  0  0  0  0  0  0  0
  -82.8927   28.9030    2.0503 C   0  0  0  0  0  0  0  0  0  0  0  0
  -83.3666   30.0594    1.4773 C   0  0  0  0  0  0  0  0  0  0  0  0
  -82.6204   31.1196    1.2010 N   0  0  0  0  0  0  0  0  0  0  0  0
  -83.2085   32.2110    0.6397 C   0  0  0  0  0  0  0  0  0  0  0  0
  -84.4949   32.2643    0.3547 N   0  0  0  0  0  0  0  0  0  0  0  0
  -85.3375   31.2152    0.6062 C   0  0  0  0  0  0  0  0  0  0  0  0
  -84.7294   30.1219    1.1736 C   0  0  0  0  0  0  0  0  0  0  0  0
  -85.5369   29.0149    1.4662 C   0  0  0  0  0  0  0  0  0  0  0  0
  -87.1843   28.6043    1.3105 S   0  0  0  0  0  0  0  0  0  0  0  0
  -88.2721   26.0851    2.1398 C   0  0  0  0  0  0  0  0  0  0  0  0
  -88.5923   25.3420    1.1529 N   0  0  0  0  0  0  0  0  0  0  0  0
  -88.0979   25.3922    0.2372 H   0  0  0  0  0  0  0  0  0  0  0  0
  -89.7172   27.1468    3.7388 C   0  0  0  0  0  0  0  0  0  0  0  0
  -88.8829   26.0622    3.3582 O   0  0  0  0  0  0  0  0  0  0  0  0
  -86.6952   31.3105    0.2230 N   0  0  0  0  0  0  0  0  0  0  0  0
  -87.4627   31.0339    0.8152 H   0  0  0  0  0  0  0  0  0  0  0  0
  -87.0624   31.7985   -1.0618 C   0  0  0  0  0  0  0  0  0  0  0  0
  -87.4920   30.8813   -2.0214 C   0  0  0  0  0  0  0  0  0  0  0  0
  -87.9024   31.2591   -3.2812 C   0  0  0  0  0  0  0  0  0  0  0  0
  -88.3683   30.5634   -4.4041 O   0  0  0  0  0  0  0  0  0  0  0  0
  -88.9669   31.4706   -5.3074 C   0  0  0  0  0  0  0  0  0  0  0  0
  -88.3588   32.6995   -4.9623 O   0  0  0  0  0  0  0  0  0  0  0  0
  -87.9017   32.5823   -3.6405 C   0  0  0  0  0  0  0  0  0  0  0  0
  -87.4788   33.4906   -2.6958 C   0  0  0  0  0  0  0  0  0  0  0  0
  -87.4793   35.3279   -3.1990 Br  0  0  0  0  0  0  0  0  0  0  0  0
  -87.0600   33.1149   -1.4116 C   0  0  0  0  0  0  0  0  0  0  0  0
 17 18  1  0  0  0
 18 14  1  0  0  0
 14 15  2  0  0  0
 14  1  1  0  0  0
  1  2  2  0  0  0
  2  3  1  0  0  0
  3  4  2  0  0  0
  4  5  1  0  0  0
  5  6  2  0  0  0
  6  7  1  0  0  0
  7  8  2  0  0  0
  8  9  1  0  0  0
  9 10  2  0  0  0
 10 19  1  0  0  0
 19 21  1  0  0  0
 21 22  2  0  0  0
 22 23  1  0  0  0
 23 24  1  0  0  0
 24 25  1  0  0  0
 25 26  1  0  0  0
 26 27  1  0  0  0
 27 28  1  0  0  0
 28 29  1  0  0  0
 28 30  2  0  0  0
 10 11  1  0  0  0
 11 12  2  0  0  0
 12 13  1  0  0  0
 13  1  1  0  0  0
 12  3  1  0  0  0
 11  6  1  0  0  0
 30 21  1  0  0  0
 27 23  2  0  0  0
 15 16  1  0  0  0
 19 20  1  0  0  0
M  END
> <minimizedAffinity>
-9.51315

> <CNNscore>
0.4990434051

> <CNNaffinity>
7.1857728958

> <CNN_VS>
3.5860126019

> <CNNaffinity_variance>
0.1258025318

$$$$
[H]N=C(OC([H])([H])[H])c1nc2c([H])c([H])c3nc([H])nc(N([H])c4c([H])c(Br)c5c(c4[H])OC([H])([H])O5)c3c2s1


 30 34  0  0  0  0  0  0  0  0999 V2000
  -85.0305   30.3606    0.8059 C   0  0  0  0  0  0  0  0  0  0  0  0
  -85.5339   31.4533    0.2666 N   0  0  0  0  0  0  0  0  0  0  0  0
  -86.7288   31.4396   -0.2558 C   0  0  0  0  0  0  0  0  0  0  0  0
  -87.3714   32.5503   -0.8540 C   0  0  0  0  0  0  0  0  0  0  0  0
  -88.6177   32.4105   -1.3554 C   0  0  0  0  0  0  0  0  0  0  0  0
  -89.3290   31.2344   -1.3269 C   0  0  0  0  0  0  0  0  0  0  0  0
  -90.5553   31.0882   -1.8088 N   0  0  0  0  0  0  0  0  0  0  0  0
  -91.1596   29.8725   -1.7142 C   0  0  0  0  0  0  0  0  0  0  0  0
  -90.5790   28.8250   -1.1625 N   0  0  0  0  0  0  0  0  0  0  0  0
  -89.3149   28.8875   -0.6408 C   0  0  0  0  0  0  0  0  0  0  0  0
  -88.7189   30.1209   -0.7429 C   0  0  0  0  0  0  0  0  0  0  0  0
  -87.4263   30.2574   -0.2197 C   0  0  0  0  0  0  0  0  0  0  0  0
  -86.2947   29.2560    0.5700 S   0  0  0  0  0  0  0  0  0  0  0  0
  -83.7185   30.1614    1.4422 C   0  0  0  0  0  0  0  0  0  0  0  0
  -82.7424   30.8852    1.0525 N   0  0  0  0  0  0  0  0  0  0  0  0
  -82.8480   31.6040    0.3058 H   0  0  0  0  0  0  0  0  0  0  0  0
  -82.6124   28.2278    2.3422 C   0  0  0  0  0  0  0  0  0  0  0  0
  -83.6380   29.2078    2.4130 O   0  0  0  0  0  0  0  0  0  0  0  0
  -88.7235   27.7149   -0.1167 N   0  0  0  0  0  0  0  0  0  0  0  0
  -87.8872   27.2960   -0.4927 H   0  0  0  0  0  0  0  0  0  0  0  0
  -89.3022   27.0327    0.9893 C   0  0  0  0  0  0  0  0  0  0  0  0
  -89.7620   25.7294    0.7975 C   0  0  0  0  0  0  0  0  0  0  0  0
  -90.3045   24.9741    1.8140 C   0  0  0  0  0  0  0  0  0  0  0  0
  -90.8279   23.6773    1.8923 O   0  0  0  0  0  0  0  0  0  0  0  0
  -90.9319   23.2905    3.2476 C   0  0  0  0  0  0  0  0  0  0  0  0
  -90.9925   24.5321    3.9213 O   0  0  0  0  0  0  0  0  0  0  0  0
  -90.4121   25.4929    3.0787 C   0  0  0  0  0  0  0  0  0  0  0  0
  -89.9589   26.7788    3.2720 C   0  0  0  0  0  0  0  0  0  0  0  0
  -90.1103   27.4957    5.0304 Br  0  0  0  0  0  0  0  0  0  0  0  0
  -89.4052   27.5540    2.2434 C   0  0  0  0  0  0  0  0  0  0  0  0
 17 18  1  0  0  0
 18 14  1  0  0  0
 14 15  2  0  0  0
 14  1  1  0  0  0
  1  2  2  0  0  0
  2  3  1  0  0  0
  3  4  2  0  0  0
  4  5  1  0  0  0
  5  6  2  0  0  0
  6  7  1  0  0  0
  7  8  2  0  0  0
  8  9  1  0  0  0
  9 10  2  0  0  0
 10 19  1  0  0  0
 19 21  1  0  0  0
 21 22  2  0  0  0
 22 23  1  0  0  0
 23 24  1  0  0  0
 24 25  1  0  0  0
 25 26  1  0  0  0
 26 27  1  0  0  0
 27 28  1  0  0  0
 28 29  1  0  0  0
 28 30  2  0  0  0
 10 11  1  0  0  0
 11 12  2  0  0  0
 12 13  1  0  0  0
 13  1  1  0  0  0
 12  3  1  0  0  0
 11  6  1  0  0  0
 30 21  1  0  0  0
 27 23  2  0  0  0
 15 16  1  0  0  0
 19 20  1  0  0  0
M  END
> <minimizedAffinity>
-8.39321

> <CNNscore>
0.1526968926

> <CNNaffinity>
6.7631211281

> <CNN_VS>
1.0327075720

> <CNNaffinity_variance>
0.0441776253

$$$$
[H]N=C(OC([H])([H])[H])c1nc2c([H])c([H])c3nc([H])nc(N([H])c4c([H])c(Br)c5c(c4[H])OC([H])([H])O5)c3c2s1


 30 34  0  0  0  0  0  0  0  0999 V2000
  -87.2440   32.1508   -1.4733 C   0  0  0  0  0  0  0  0  0  0  0  0
  -86.1339   32.5767   -0.9038 N   0  0  0  0  0  0  0  0  0  0  0  0
  -85.4533   31.7897   -0.1174 C   0  0  0  0  0  0  0  0  0  0  0  0
  -84.2484   32.1359    0.5407 C   0  0  0  0  0  0  0  0  0  0  0  0
  -83.6319   31.2270    1.3268 C   0  0  0  0  0  0  0  0  0  0  0  0
  -84.1022   29.9531    1.5416 C   0  0  0  0  0  0  0  0  0  0  0  0
  -83.5012   29.0509    2.3045 N   0  0  0  0  0  0  0  0  0  0  0  0
  -84.0624   27.8177    2.4327 C   0  0  0  0  0  0  0  0  0  0  0  0
  -85.1842   27.4750    1.8302 N   0  0  0  0  0  0  0  0  0  0  0  0
  -85.8698   28.3444    1.0252 C   0  0  0  0  0  0  0  0  0  0  0  0
  -85.2905   29.5841    0.9050 C   0  0  0  0  0  0  0  0  0  0  0  0
  -85.9362   30.5208    0.0872 C   0  0  0  0  0  0  0  0  0  0  0  0
  -87.3410   30.5665   -0.8778 S   0  0  0  0  0  0  0  0  0  0  0  0
  -88.1518   32.8670   -2.3837 C   0  0  0  0  0  0  0  0  0  0  0  0
  -89.2382   33.3370   -1.9067 N   0  0  0  0  0  0  0  0  0  0  0  0
  -89.4961   33.2289   -0.9031 H   0  0  0  0  0  0  0  0  0  0  0  0
  -87.6344   31.8056   -4.4761 C   0  0  0  0  0  0  0  0  0  0  0  0
  -87.7640   32.9786   -3.6858 O   0  0  0  0  0  0  0  0  0  0  0  0
  -87.0982   27.9377    0.4550 N   0  0  0  0  0  0  0  0  0  0  0  0
  -87.3852   28.1779   -0.4811 H   0  0  0  0  0  0  0  0  0  0  0  0
  -88.0303   27.1611    1.1977 C   0  0  0  0  0  0  0  0  0  0  0  0
  -88.3758   27.5880    2.4803 C   0  0  0  0  0  0  0  0  0  0  0  0
  -89.2951   26.9248    3.2633 C   0  0  0  0  0  0  0  0  0  0  0  0
  -89.8106   27.1322    4.5490 O   0  0  0  0  0  0  0  0  0  0  0  0
  -90.9731   26.3479    4.7246 C   0  0  0  0  0  0  0  0  0  0  0  0
  -90.7974   25.3152    3.7749 O   0  0  0  0  0  0  0  0  0  0  0  0
  -89.9155   25.7955    2.7943 C   0  0  0  0  0  0  0  0  0  0  0  0
  -89.5774   25.3714    1.5286 C   0  0  0  0  0  0  0  0  0  0  0  0
  -90.4415   23.8020    0.8810 Br  0  0  0  0  0  0  0  0  0  0  0  0
  -88.6435   26.0404    0.7251 C   0  0  0  0  0  0  0  0  0  0  0  0
 17 18  1  0  0  0
 18 14  1  0  0  0
 14 15  2  0  0  0
 14  1  1  0  0  0
  1  2  2  0  0  0
  2  3  1  0  0  0
  3  4  2  0  0  0
  4  5  1  0  0  0
  5  6  2  0  0  0
  6  7  1  0  0  0
  7  8  2  0  0  0
  8  9  1  0  0  0
  9 10  2  0  0  0
 10 19  1  0  0  0
 19 21  1  0  0  0
 21 22  2  0  0  0
 22 23  1  0  0  0
 23 24  1  0  0  0
 24 25  1  0  0  0
 25 26  1  0  0  0
 26 27  1  0  0  0
 27 28  1  0  0  0
 28 29  1  0  0  0
 28 30  2  0  0  0
 10 11  1  0  0  0
 11 12  2  0  0  0
 12 13  1  0  0  0
 13  1  1  0  0  0
 12  3  1  0  0  0
 11  6  1  0  0  0
 30 21  1  0  0  0
 27 23  2  0  0  0
 15 16  1  0  0  0
 19 20  1  0  0  0
M  END
> <minimizedAffinity>
-8.92507

> <CNNscore>
0.1478984654

> <CNNaffinity>
6.7041687965

> <CNN_VS>
0.9915362597

> <CNNaffinity_variance>
0.1974949986

$$$$
[H]N=C(OC([H])([H])[H])c1nc2c([H])c([H])c3nc([H])nc(N([H])c4c([H])c(Br)c5c(c4[H])OC([H])([H])O5)c3c2s1


 30 34  0  0  0  0  0  0  0  0999 V2000
  -88.3650   30.8450   -3.0487 C   0  0  0  0  0  0  0  0  0  0  0  0
  -87.7117   31.8713   -2.5405 N   0  0  0  0  0  0  0  0  0  0  0  0
  -86.9858   31.7236   -1.4671 C   0  0  0  0  0  0  0  0  0  0  0  0
  -86.2385   32.7492   -0.8391 C   0  0  0  0  0  0  0  0  0  0  0  0
  -85.5182   32.4682    0.2683 C   0  0  0  0  0  0  0  0  0  0  0  0
  -85.4555   31.2230    0.8477 C   0  0  0  0  0  0  0  0  0  0  0  0
  -84.7456   30.9344    1.9295 N   0  0  0  0  0  0  0  0  0  0  0  0
  -84.7578   29.6592    2.4045 C   0  0  0  0  0  0  0  0  0  0  0  0
  -85.4475   28.6896    1.8361 N   0  0  0  0  0  0  0  0  0  0  0  0
  -86.2074   28.8999    0.7170 C   0  0  0  0  0  0  0  0  0  0  0  0
  -86.1840   30.1913    0.2492 C   0  0  0  0  0  0  0  0  0  0  0  0
  -86.9336   30.4741   -0.9002 C   0  0  0  0  0  0  0  0  0  0  0  0
  -87.9418   29.6088   -1.9687 S   0  0  0  0  0  0  0  0  0  0  0  0
  -89.2296   30.7947   -4.2386 C   0  0  0  0  0  0  0  0  0  0  0  0
  -88.7316   31.1399   -5.3617 N   0  0  0  0  0  0  0  0  0  0  0  0
  -87.7423   31.4522   -5.4576 H   0  0  0  0  0  0  0  0  0  0  0  0
  -91.3574   31.0954   -3.1641 C   0  0  0  0  0  0  0  0  0  0  0  0
  -90.5146   30.3786   -4.0548 O   0  0  0  0  0  0  0  0  0  0  0  0
  -86.9720   27.8341    0.1891 N   0  0  0  0  0  0  0  0  0  0  0  0
  -86.8528   27.4707   -0.7437 H   0  0  0  0  0  0  0  0  0  0  0  0
  -87.9920   27.2107    0.9600 C   0  0  0  0  0  0  0  0  0  0  0  0
  -88.5293   26.0081    0.4999 C   0  0  0  0  0  0  0  0  0  0  0  0
  -89.4943   25.3103    1.1927 C   0  0  0  0  0  0  0  0  0  0  0  0
  -90.1850   24.1134    0.9639 O   0  0  0  0  0  0  0  0  0  0  0  0
  -90.8131   23.6942    2.1584 C   0  0  0  0  0  0  0  0  0  0  0  0
  -90.9360   24.9009    2.8849 O   0  0  0  0  0  0  0  0  0  0  0  0
  -89.9690   25.7881    2.3871 C   0  0  0  0  0  0  0  0  0  0  0  0
  -89.4407   26.9746    2.8447 C   0  0  0  0  0  0  0  0  0  0  0  0
  -90.1029   27.6349    4.5043 Br  0  0  0  0  0  0  0  0  0  0  0  0
  -88.4584   27.6907    2.1463 C   0  0  0  0  0  0  0  0  0  0  0  0
 17 18  1  0  0  0
 18 14  1  0  0  0
 14 15  2  0  0  0
 14  1  1  0  0  0
  1  2  2  0  0  0
  2  3  1  0  0  0
  3  4  2  0  0  0
  4  5  1  0  0  0
  5  6  2  0  0  0
  6  7  1  0  0  0
  7  8  2  0  0  0
  8  9  1  0  0  0
  9 10  2  0  0  0
 10 19  1  0  0  0
 19 21  1  0  0  0
 21 22  2  0  0  0
 22 23  1  0  0  0
 23 24  1  0  0  0
 24 25  1  0  0  0
 25 26  1  0  0  0
 26 27  1  0  0  0
 27 28  1  0  0  0
 28 29  1  0  0  0
 28 30  2  0  0  0
 10 11  1  0  0  0
 11 12  2  0  0  0
 12 13  1  0  0  0
 13  1  1  0  0  0
 12  3  1  0  0  0
 11  6  1  0  0  0
 30 21  1  0  0  0
 27 23  2  0  0  0
 15 16  1  0  0  0
 19 20  1  0  0  0
M  END
> <minimizedAffinity>
-8.62465

> <CNNscore>
0.0838566497

> <CNNaffinity>
6.4619355202

> <CNN_VS>
0.5418762565

> <CNNaffinity_variance>
0.1872949600

$$$$
[H]N=C(OC([H])([H])[H])c1nc2c([H])c([H])c3nc([H])nc(N([H])c4c([H])c(Br)c5c(c4[H])OC([H])([H])O5)c3c2s1


 30 34  0  0  0  0  0  0  0  0999 V2000
  -90.1807   26.0381   -1.7459 C   0  0  0  0  0  0  0  0  0  0  0  0
  -90.7645   26.8579   -2.5977 N   0  0  0  0  0  0  0  0  0  0  0  0
  -90.5278   28.1394   -2.5459 C   0  0  0  0  0  0  0  0  0  0  0  0
  -91.0905   29.1094   -3.4103 C   0  0  0  0  0  0  0  0  0  0  0  0
  -90.7603   30.4103   -3.2593 C   0  0  0  0  0  0  0  0  0  0  0  0
  -89.8927   30.8755   -2.2996 C   0  0  0  0  0  0  0  0  0  0  0  0
  -89.5557   32.1486   -2.1477 N   0  0  0  0  0  0  0  0  0  0  0  0
  -88.6783   32.4847   -1.1631 C   0  0  0  0  0  0  0  0  0  0  0  0
  -88.1438   31.5979   -0.3466 N   0  0  0  0  0  0  0  0  0  0  0  0
  -88.4368   30.2635   -0.4329 C   0  0  0  0  0  0  0  0  0  0  0  0
  -89.3226   29.9401   -1.4318 C   0  0  0  0  0  0  0  0  0  0  0  0
  -89.6593   28.5883   -1.5818 C   0  0  0  0  0  0  0  0  0  0  0  0
  -89.2521   27.1162   -0.8243 S   0  0  0  0  0  0  0  0  0  0  0  0
  -90.3069   24.5762   -1.6326 C   0  0  0  0  0  0  0  0  0  0  0  0
  -89.3361   23.8533   -2.0371 N   0  0  0  0  0  0  0  0  0  0  0  0
  -88.4680   24.2650   -2.4399 H   0  0  0  0  0  0  0  0  0  0  0  0
  -91.6841   24.2039    0.3006 C   0  0  0  0  0  0  0  0  0  0  0  0
  -91.4640   24.0928   -1.0982 O   0  0  0  0  0  0  0  0  0  0  0  0
  -87.8781   29.3697    0.5096 N   0  0  0  0  0  0  0  0  0  0  0  0
  -88.4109   28.6627    0.9918 H   0  0  0  0  0  0  0  0  0  0  0  0
  -86.4989   29.4325    0.8522 C   0  0  0  0  0  0  0  0  0  0  0  0
  -85.9790   28.4475    1.6926 C   0  0  0  0  0  0  0  0  0  0  0  0
  -84.6500   28.4014    2.0527 C   0  0  0  0  0  0  0  0  0  0  0  0
  -83.8874   27.5465    2.8586 O   0  0  0  0  0  0  0  0  0  0  0  0
  -82.5132   27.7618    2.6084 C   0  0  0  0  0  0  0  0  0  0  0  0
  -82.4938   29.0785    2.0935 O   0  0  0  0  0  0  0  0  0  0  0  0
  -83.7739   29.3465    1.5842 C   0  0  0  0  0  0  0  0  0  0  0  0
  -84.2832   30.3200    0.7540 C   0  0  0  0  0  0  0  0  0  0  0  0
  -83.0628   31.6310    0.1055 Br  0  0  0  0  0  0  0  0  0  0  0  0
  -85.6340   30.3740    0.3824 C   0  0  0  0  0  0  0  0  0  0  0  0
 17 18  1  0  0  0
 18 14  1  0  0  0
 14 15  2  0  0  0
 14  1  1  0  0  0
  1  2  2  0  0  0
  2  3  1  0  0  0
  3  4  2  0  0  0
  4  5  1  0  0  0
  5  6  2  0  0  0
  6  7  1  0  0  0
  7  8  2  0  0  0
  8  9  1  0  0  0
  9 10  2  0  0  0
 10 19  1  0  0  0
 19 21  1  0  0  0
 21 22  2  0  0  0
 22 23  1  0  0  0
 23 24  1  0  0  0
 24 25  1  0  0  0
 25 26  1  0  0  0
 26 27  1  0  0  0
 27 28  1  0  0  0
 28 29  1  0  0  0
 28 30  2  0  0  0
 10 11  1  0  0  0
 11 12  2  0  0  0
 12 13  1  0  0  0
 13  1  1  0  0  0
 12  3  1  0  0  0
 11  6  1  0  0  0
 30 21  1  0  0  0
 27 23  2  0  0  0
 15 16  1  0  0  0
 19 20  1  0  0  0
M  END
> <minimizedAffinity>
-8.06983

> <CNNscore>
0.0792558417

> <CNNaffinity>
6.1208367348

> <CNN_VS>
0.4851120710

> <CNNaffinity_variance>
0.2390597612

$$$$
[H]N=C(OC([H])([H])[H])c1nc2c([H])c([H])c3nc([H])nc(N([H])c4c([H])c(Br)c5c(c4[H])OC([H])([H])O5)c3c2s1


 30 34  0  0  0  0  0  0  0  0999 V2000
  -90.4006   25.7844    2.4228 C   0  0  0  0  0  0  0  0  0  0  0  0
  -90.8355   25.3674    1.2501 N   0  0  0  0  0  0  0  0  0  0  0  0
  -90.4254   25.9418    0.1534 C   0  0  0  0  0  0  0  0  0  0  0  0
  -90.8183   25.5754   -1.1566 C   0  0  0  0  0  0  0  0  0  0  0  0
  -90.3164   26.2456   -2.2163 C   0  0  0  0  0  0  0  0  0  0  0  0
  -89.4262   27.2882   -2.1136 C   0  0  0  0  0  0  0  0  0  0  0  0
  -88.9214   27.9475   -3.1470 N   0  0  0  0  0  0  0  0  0  0  0  0
  -88.0403   28.9587   -2.9165 C   0  0  0  0  0  0  0  0  0  0  0  0
  -87.6622   29.3171   -1.7051 N   0  0  0  0  0  0  0  0  0  0  0  0
  -88.1341   28.6908   -0.5831 C   0  0  0  0  0  0  0  0  0  0  0  0
  -89.0214   27.6721   -0.8322 C   0  0  0  0  0  0  0  0  0  0  0  0
  -89.5368   26.9817    0.2728 C   0  0  0  0  0  0  0  0  0  0  0  0
  -89.3638   27.0461    1.9677 S   0  0  0  0  0  0  0  0  0  0  0  0
  -90.7319   25.2819    3.7658 C   0  0  0  0  0  0  0  0  0  0  0  0
  -90.7312   24.0199    3.9553 N   0  0  0  0  0  0  0  0  0  0  0  0
  -90.5052   23.3447    3.1948 H   0  0  0  0  0  0  0  0  0  0  0  0
  -89.9849   26.6663    5.5818 C   0  0  0  0  0  0  0  0  0  0  0  0
  -91.0193   26.2098    4.7221 O   0  0  0  0  0  0  0  0  0  0  0  0
  -87.7374   29.1601    0.6904 N   0  0  0  0  0  0  0  0  0  0  0  0
  -88.3845   29.4875    1.3906 H   0  0  0  0  0  0  0  0  0  0  0  0
  -86.3640   29.2145    1.0571 C   0  0  0  0  0  0  0  0  0  0  0  0
  -85.8321   28.1556    1.7937 C   0  0  0  0  0  0  0  0  0  0  0  0
  -84.5067   28.0989    2.1653 C   0  0  0  0  0  0  0  0  0  0  0  0
  -83.7346   27.1782    2.8851 O   0  0  0  0  0  0  0  0  0  0  0  0
  -82.3627   27.4482    2.6788 C   0  0  0  0  0  0  0  0  0  0  0  0
  -82.3668   28.8129    2.3091 O   0  0  0  0  0  0  0  0  0  0  0  0
  -83.6466   29.1073    1.8137 C   0  0  0  0  0  0  0  0  0  0  0  0
  -84.1679   30.1539    1.0862 C   0  0  0  0  0  0  0  0  0  0  0  0
  -82.9697   31.5526    0.5999 Br  0  0  0  0  0  0  0  0  0  0  0  0
  -85.5150   30.2192    0.7036 C   0  0  0  0  0  0  0  0  0  0  0  0
 17 18  1  0  0  0
 18 14  1  0  0  0
 14 15  2  0  0  0
 14  1  1  0  0  0
  1  2  2  0  0  0
  2  3  1  0  0  0
  3  4  2  0  0  0
  4  5  1  0  0  0
  5  6  2  0  0  0
  6  7  1  0  0  0
  7  8  2  0  0  0
  8  9  1  0  0  0
  9 10  2  0  0  0
 10 19  1  0  0  0
 19 21  1  0  0  0
 21 22  2  0  0  0
 22 23  1  0  0  0
 23 24  1  0  0  0
 24 25  1  0  0  0
 25 26  1  0  0  0
 26 27  1  0  0  0
 27 28  1  0  0  0
 28 29  1  0  0  0
 28 30  2  0  0  0
 10 11  1  0  0  0
 11 12  2  0  0  0
 12 13  1  0  0  0
 13  1  1  0  0  0
 12  3  1  0  0  0
 11  6  1  0  0  0
 30 21  1  0  0  0
 27 23  2  0  0  0
 15 16  1  0  0  0
 19 20  1  0  0  0
M  END
> <minimizedAffinity>
-9.28365

> <CNNscore>
0.0736277997

> <CNNaffinity>
6.0835385323

> <CNN_VS>
0.4479175508

> <CNNaffinity_variance>
0.3403735459

$$$$
[H]N=C(OC([H])([H])[H])c1nc2c([H])c([H])c3nc([H])nc(N([H])c4c([H])c(Br)c5c(c4[H])OC([H])([H])O5)c3c2s1


 30 34  0  0  0  0  0  0  0  0999 V2000
  -85.5402   30.8505    0.7113 C   0  0  0  0  0  0  0  0  0  0  0  0
  -86.2135   29.7663    0.3806 N   0  0  0  0  0  0  0  0  0  0  0  0
  -87.0776   29.7998   -0.5956 C   0  0  0  0  0  0  0  0  0  0  0  0
  -87.8499   28.6998   -1.0409 C   0  0  0  0  0  0  0  0  0  0  0  0
  -88.7092   28.8603   -2.0705 C   0  0  0  0  0  0  0  0  0  0  0  0
  -88.8947   30.0482   -2.7374 C   0  0  0  0  0  0  0  0  0  0  0  0
  -89.7292   30.2147   -3.7538 N   0  0  0  0  0  0  0  0  0  0  0  0
  -89.8188   31.4404   -4.3386 C   0  0  0  0  0  0  0  0  0  0  0  0
  -89.1101   32.4781   -3.9389 N   0  0  0  0  0  0  0  0  0  0  0  0
  -88.2257   32.3946   -2.8974 C   0  0  0  0  0  0  0  0  0  0  0  0
  -88.1459   31.1514   -2.3186 C   0  0  0  0  0  0  0  0  0  0  0  0
  -87.2516   30.9935   -1.2515 C   0  0  0  0  0  0  0  0  0  0  0  0
  -86.1475   31.9759   -0.4015 S   0  0  0  0  0  0  0  0  0  0  0  0
  -84.5306   31.0278    1.7673 C   0  0  0  0  0  0  0  0  0  0  0  0
  -84.8981   31.5496    2.8724 N   0  0  0  0  0  0  0  0  0  0  0  0
  -85.8808   31.8494    3.0449 H   0  0  0  0  0  0  0  0  0  0  0  0
  -82.8466   29.3180    1.8817 C   0  0  0  0  0  0  0  0  0  0  0  0
  -83.2610   30.6180    1.4872 O   0  0  0  0  0  0  0  0  0  0  0  0
  -87.5394   33.5572   -2.4771 N   0  0  0  0  0  0  0  0  0  0  0  0
  -86.9924   33.6071   -1.6317 H   0  0  0  0  0  0  0  0  0  0  0  0
  -87.5994   34.7592   -3.2356 C   0  0  0  0  0  0  0  0  0  0  0  0
  -87.3971   34.6840   -4.6140 C   0  0  0  0  0  0  0  0  0  0  0  0
  -87.4708   35.7853   -5.4385 C   0  0  0  0  0  0  0  0  0  0  0  0
  -87.3151   35.9837   -6.8163 O   0  0  0  0  0  0  0  0  0  0  0  0
  -87.8326   37.2495   -7.1731 C   0  0  0  0  0  0  0  0  0  0  0  0
  -87.7695   37.9654   -5.9555 O   0  0  0  0  0  0  0  0  0  0  0  0
  -87.7526   37.0216   -4.9167 C   0  0  0  0  0  0  0  0  0  0  0  0
  -87.9534   37.0997   -3.5566 C   0  0  0  0  0  0  0  0  0  0  0  0
  -88.3446   38.8190   -2.8359 Br  0  0  0  0  0  0  0  0  0  0  0  0
  -87.8807   35.9841   -2.7106 C   0  0  0  0  0  0  0  0  0  0  0  0
 17 18  1  0  0  0
 18 14  1  0  0  0
 14 15  2  0  0  0
 14  1  1  0  0  0
  1  2  2  0  0  0
  2  3  1  0  0  0
  3  4  2  0  0  0
  4  5  1  0  0  0
  5  6  2  0  0  0
  6  7  1  0  0  0
  7  8  2  0  0  0
  8  9  1  0  0  0
  9 10  2  0  0  0
 10 19  1  0  0  0
 19 21  1  0  0  0
 21 22  2  0  0  0
 22 23  1  0  0  0
 23 24  1  0  0  0
 24 25  1  0  0  0
 25 26  1  0  0  0
 26 27  1  0  0  0
 27 28  1  0  0  0
 28 29  1  0  0  0
 28 30  2  0  0  0
 10 11  1  0  0  0
 11 12  2  0  0  0
 12 13  1  0  0  0
 13  1  1  0  0  0
 12  3  1  0  0  0
 11  6  1  0  0  0
 30 21  1  0  0  0
 27 23  2  0  0  0
 15 16  1  0  0  0
 19 20  1  0  0  0
M  END
> <minimizedAffinity>
-7.62101

> <CNNscore>
0.0712703913

> <CNNaffinity>
6.2648239136

> <CNN_VS>
0.4464964569

> <CNNaffinity_variance>
0.0968185738

$$$$
[H]N=C(OC([H])([H])[H])c1nc2c([H])c([H])c3nc([H])nc(N([H])c4c([H])c(Br)c5c(c4[H])OC([H])([H])O5)c3c2s1


 30 34  0  0  0  0  0  0  0  0999 V2000
  -85.4659   32.7930   -0.9240 C   0  0  0  0  0  0  0  0  0  0  0  0
  -85.6403   33.5536   -1.9867 N   0  0  0  0  0  0  0  0  0  0  0  0
  -86.7649   33.5160   -2.6461 C   0  0  0  0  0  0  0  0  0  0  0  0
  -87.0653   34.2899   -3.7931 C   0  0  0  0  0  0  0  0  0  0  0  0
  -88.2729   34.1654   -4.3851 C   0  0  0  0  0  0  0  0  0  0  0  0
  -89.2607   33.3175   -3.9430 C   0  0  0  0  0  0  0  0  0  0  0  0
  -90.4518   33.1934   -4.5115 N   0  0  0  0  0  0  0  0  0  0  0  0
  -91.3505   32.3237   -3.9748 C   0  0  0  0  0  0  0  0  0  0  0  0
  -91.0908   31.5927   -2.9084 N   0  0  0  0  0  0  0  0  0  0  0  0
  -89.8870   31.6580   -2.2599 C   0  0  0  0  0  0  0  0  0  0  0  0
  -88.9914   32.5407   -2.8128 C   0  0  0  0  0  0  0  0  0  0  0  0
  -87.7413   32.6640   -2.1922 C   0  0  0  0  0  0  0  0  0  0  0  0
  -86.9528   31.9828   -0.8427 S   0  0  0  0  0  0  0  0  0  0  0  0
  -84.2896   32.6831   -0.0465 C   0  0  0  0  0  0  0  0  0  0  0  0
  -83.2258   33.3027   -0.3824 N   0  0  0  0  0  0  0  0  0  0  0  0
  -83.1685   33.8769   -1.2499 H   0  0  0  0  0  0  0  0  0  0  0  0
  -83.5583   30.8067    1.2638 C   0  0  0  0  0  0  0  0  0  0  0  0
  -84.4210   31.9191    1.0748 O   0  0  0  0  0  0  0  0  0  0  0  0
  -89.6472   30.8052   -1.1579 N   0  0  0  0  0  0  0  0  0  0  0  0
  -89.4032   31.1377   -0.2380 H   0  0  0  0  0  0  0  0  0  0  0  0
  -89.7214   29.3912   -1.2947 C   0  0  0  0  0  0  0  0  0  0  0  0
  -88.9857   28.6002   -0.4116 C   0  0  0  0  0  0  0  0  0  0  0  0
  -89.0196   27.2233   -0.4403 C   0  0  0  0  0  0  0  0  0  0  0  0
  -88.3974   26.2169    0.3094 O   0  0  0  0  0  0  0  0  0  0  0  0
  -89.0487   24.9841    0.0784 C   0  0  0  0  0  0  0  0  0  0  0  0
  -89.6565   25.1853   -1.1822 O   0  0  0  0  0  0  0  0  0  0  0  0
  -89.7977   26.5702   -1.3613 C   0  0  0  0  0  0  0  0  0  0  0  0
  -90.5257   27.3475   -2.2343 C   0  0  0  0  0  0  0  0  0  0  0  0
  -91.6052   26.4363   -3.5122 Br  0  0  0  0  0  0  0  0  0  0  0  0
  -90.4972   28.7490   -2.2117 C   0  0  0  0  0  0  0  0  0  0  0  0
 17 18  1  0  0  0
 18 14  1  0  0  0
 14 15  2  0  0  0
 14  1  1  0  0  0
  1  2  2  0  0  0
  2  3  1  0  0  0
  3  4  2  0  0  0
  4  5  1  0  0  0
  5  6  2  0  0  0
  6  7  1  0  0  0
  7  8  2  0  0  0
  8  9  1  0  0  0
  9 10  2  0  0  0
 10 19  1  0  0  0
 19 21  1  0  0  0
 21 22  2  0  0  0
 22 23  1  0  0  0
 23 24  1  0  0  0
 24 25  1  0  0  0
 25 26  1  0  0  0
 26 27  1  0  0  0
 27 28  1  0  0  0
 28 29  1  0  0  0
 28 30  2  0  0  0
 10 11  1  0  0  0
 11 12  2  0  0  0
 12 13  1  0  0  0
 13  1  1  0  0  0
 12  3  1  0  0  0
 11  6  1  0  0  0
 30 21  1  0  0  0
 27 23  2  0  0  0
 15 16  1  0  0  0
 19 20  1  0  0  0
M  END
> <minimizedAffinity>
-7.14159

> <CNNscore>
0.0704555809

> <CNNaffinity>
6.3283300400

> <CNN_VS>
0.4458661675

> <CNNaffinity_variance>
0.0838671550

$$$$
[H]c1sc(C([H])([H])N([H])C(=O)c2c([H])c([H])c(Cl)c(N([H])C(=O)c3c([H])c4c([H])nc(OC([H])([H])[H])nc4n([H])c3=O)c2[H])c([H])c1[H]


 35 38  0  0  0  0  0  0  0  0999 V2000
  -86.9486   32.3696   -1.3443 C   0  0  0  0  0  0  0  0  0  0  0  0
  -87.8241   32.2591   -0.4498 O   0  0  0  0  0  0  0  0  0  0  0  0
  -85.7081   31.7532   -1.2029 N   0  0  0  0  0  0  0  0  0  0  0  0
  -85.0053   31.9232   -1.9836 H   0  0  0  0  0  0  0  0  0  0  0  0
  -88.4093   36.9475   -5.5354 C   0  0  0  0  0  0  0  0  0  0  0  0
  -88.2559   37.4799   -4.2871 N   0  0  0  0  0  0  0  0  0  0  0  0
  -87.9544   36.6987   -3.2385 C   0  0  0  0  0  0  0  0  0  0  0  0
  -87.7889   35.3226   -3.3910 C   0  0  0  0  0  0  0  0  0  0  0  0
  -87.4790   34.5569   -2.2986 C   0  0  0  0  0  0  0  0  0  0  0  0
  -87.3158   33.1636   -2.4942 C   0  0  0  0  0  0  0  0  0  0  0  0
  -87.4820   32.6935   -3.7589 C   0  0  0  0  0  0  0  0  0  0  0  0
  -87.3575   31.4754   -4.0027 O   0  0  0  0  0  0  0  0  0  0  0  0
  -87.7910   33.4936   -4.8200 N   0  0  0  0  0  0  0  0  0  0  0  0
  -87.9481   34.8101   -4.6560 C   0  0  0  0  0  0  0  0  0  0  0  0
  -88.2548   35.6251   -5.7062 N   0  0  0  0  0  0  0  0  0  0  0  0
  -87.9037   33.0670   -5.7610 H   0  0  0  0  0  0  0  0  0  0  0  0
  -88.2625   37.5745   -7.9225 C   0  0  0  0  0  0  0  0  0  0  0  0
  -88.7164   37.7680   -6.5927 O   0  0  0  0  0  0  0  0  0  0  0  0
  -85.2271   30.9436   -0.1475 C   0  0  0  0  0  0  0  0  0  0  0  0
  -85.8306   29.7808    0.2277 C   0  0  0  0  0  0  0  0  0  0  0  0
  -85.2887   29.0291    1.2775 C   0  0  0  0  0  0  0  0  0  0  0  0
  -84.1637   29.4127    1.9565 C   0  0  0  0  0  0  0  0  0  0  0  0
  -83.5628   30.5952    1.5631 C   0  0  0  0  0  0  0  0  0  0  0  0
  -84.0670   31.3492    0.5437 C   0  0  0  0  0  0  0  0  0  0  0  0
  -83.2799   32.8394    0.0802 Cl  0  0  0  0  0  0  0  0  0  0  0  0
  -85.9377   27.7865    1.6553 C   0  0  0  0  0  0  0  0  0  0  0  0
  -85.2690   26.8958    2.2828 O   0  0  0  0  0  0  0  0  0  0  0  0
  -87.2876   27.4860    1.3695 N   0  0  0  0  0  0  0  0  0  0  0  0
  -87.8734   28.1799    0.8544 H   0  0  0  0  0  0  0  0  0  0  0  0
  -87.8888   26.2480    1.7617 C   0  0  0  0  0  0  0  0  0  0  0  0
  -88.8269   26.4729    2.9276 C   0  0  0  0  0  0  0  0  0  0  0  0
  -89.3198   27.6607    3.3844 C   0  0  0  0  0  0  0  0  0  0  0  0
  -90.1442   27.6128    4.4501 C   0  0  0  0  0  0  0  0  0  0  0  0
  -90.4131   26.3789    4.9786 C   0  0  0  0  0  0  0  0  0  0  0  0
  -89.5183   25.3274    3.9852 S   0  0  0  0  0  0  0  0  0  0  0  0
 17 18  1  0  0  0
 18  5  1  0  0  0
  5  6  2  0  0  0
  6  7  1  0  0  0
  7  8  2  0  0  0
  8  9  1  0  0  0
  9 10  2  0  0  0
 10  1  1  0  0  0
  1  2  2  0  0  0
  1  3  1  0  0  0
  3 19  1  0  0  0
 19 20  2  0  0  0
 20 21  1  0  0  0
 21 22  2  0  0  0
 22 23  1  0  0  0
 23 24  2  0  0  0
 24 25  1  0  0  0
 21 26  1  0  0  0
 26 27  2  0  0  0
 26 28  1  0  0  0
 28 30  1  0  0  0
 30 31  1  0  0  0
 31 32  2  0  0  0
 32 33  1  0  0  0
 33 34  2  0  0  0
 34 35  1  0  0  0
 10 11  1  0  0  0
 11 12  2  0  0  0
 11 13  1  0  0  0
 13 14  1  0  0  0
 14 15  2  0  0  0
 15  5  1  0  0  0
 14  8  1  0  0  0
 24 19  1  0  0  0
 35 31  1  0  0  0
  3  4  1  0  0  0
 28 29  1  0  0  0
 13 16  1  0  0  0
M  END
> <minimizedAffinity>
-8.71864

> <CNNscore>
0.5312359333

> <CNNaffinity>
6.9724168777

> <CNN_VS>
3.7039983273

> <CNNaffinity_variance>
0.0738113374

$$$$
[H]c1sc(C([H])([H])N([H])C(=O)c2c([H])c([H])c(Cl)c(N([H])C(=O)c3c([H])c4c([H])nc(OC([H])([H])[H])nc4n([H])c3=O)c2[H])c([H])c1[H]


 35 38  0  0  0  0  0  0  0  0999 V2000
  -87.3403   31.9205   -0.9706 C   0  0  0  0  0  0  0  0  0  0  0  0
  -88.4145   31.7849   -0.3330 O   0  0  0  0  0  0  0  0  0  0  0  0
  -86.1869   31.2527   -0.5676 N   0  0  0  0  0  0  0  0  0  0  0  0
  -85.3073   31.4467   -1.1342 H   0  0  0  0  0  0  0  0  0  0  0  0
  -88.9275   35.4656   -6.0273 C   0  0  0  0  0  0  0  0  0  0  0  0
  -89.9943   34.7156   -5.6213 N   0  0  0  0  0  0  0  0  0  0  0  0
  -89.8904   33.8817   -4.5750 C   0  0  0  0  0  0  0  0  0  0  0  0
  -88.6928   33.7557   -3.8721 C   0  0  0  0  0  0  0  0  0  0  0  0
  -88.6244   32.8964   -2.8078 C   0  0  0  0  0  0  0  0  0  0  0  0
  -87.3917   32.7984   -2.1170 C   0  0  0  0  0  0  0  0  0  0  0  0
  -86.3671   33.5691   -2.5690 C   0  0  0  0  0  0  0  0  0  0  0  0
  -85.2513   33.5294   -2.0103 O   0  0  0  0  0  0  0  0  0  0  0  0
  -86.4794   34.4131   -3.6351 N   0  0  0  0  0  0  0  0  0  0  0  0
  -87.6337   34.5202   -4.2990 C   0  0  0  0  0  0  0  0  0  0  0  0
  -87.7643   35.3607   -5.3656 N   0  0  0  0  0  0  0  0  0  0  0  0
  -85.6545   34.9739   -3.9271 H   0  0  0  0  0  0  0  0  0  0  0  0
  -89.9188   37.4405   -7.1362 C   0  0  0  0  0  0  0  0  0  0  0  0
  -89.0594   36.3128   -7.0998 O   0  0  0  0  0  0  0  0  0  0  0  0
  -86.0018   30.3612    0.5149 C   0  0  0  0  0  0  0  0  0  0  0  0
  -86.7650   29.2466    0.6946 C   0  0  0  0  0  0  0  0  0  0  0  0
  -86.5145   28.4072    1.7872 C   0  0  0  0  0  0  0  0  0  0  0  0
  -85.5242   28.6570    2.6986 C   0  0  0  0  0  0  0  0  0  0  0  0
  -84.7583   29.7922    2.5016 C   0  0  0  0  0  0  0  0  0  0  0  0
  -84.9779   30.6291    1.4466 C   0  0  0  0  0  0  0  0  0  0  0  0
  -83.9902   32.0557    1.2359 Cl  0  0  0  0  0  0  0  0  0  0  0  0
  -87.3292   27.2174    1.9558 C   0  0  0  0  0  0  0  0  0  0  0  0
  -86.8140   26.1753    2.4879 O   0  0  0  0  0  0  0  0  0  0  0  0
  -88.6825   27.1288    1.5622 N   0  0  0  0  0  0  0  0  0  0  0  0
  -89.1464   27.9521    1.1185 H   0  0  0  0  0  0  0  0  0  0  0  0
  -89.4503   25.9355    1.7483 C   0  0  0  0  0  0  0  0  0  0  0  0
  -89.6238   25.2186    0.4270 C   0  0  0  0  0  0  0  0  0  0  0  0
  -89.3823   25.7063   -0.8246 C   0  0  0  0  0  0  0  0  0  0  0  0
  -89.6151   24.8763   -1.8612 C   0  0  0  0  0  0  0  0  0  0  0  0
  -90.0723   23.6200   -1.5667 C   0  0  0  0  0  0  0  0  0  0  0  0
  -90.1647   23.6284    0.1317 S   0  0  0  0  0  0  0  0  0  0  0  0
 17 18  1  0  0  0
 18  5  1  0  0  0
  5  6  2  0  0  0
  6  7  1  0  0  0
  7  8  2  0  0  0
  8  9  1  0  0  0
  9 10  2  0  0  0
 10  1  1  0  0  0
  1  2  2  0  0  0
  1  3  1  0  0  0
  3 19  1  0  0  0
 19 20  2  0  0  0
 20 21  1  0  0  0
 21 22  2  0  0  0
 22 23  1  0  0  0
 23 24  2  0  0  0
 24 25  1  0  0  0
 21 26  1  0  0  0
 26 27  2  0  0  0
 26 28  1  0  0  0
 28 30  1  0  0  0
 30 31  1  0  0  0
 31 32  2  0  0  0
 32 33  1  0  0  0
 33 34  2  0  0  0
 34 35  1  0  0  0
 10 11  1  0  0  0
 11 12  2  0  0  0
 11 13  1  0  0  0
 13 14  1  0  0  0
 14 15  2  0  0  0
 15  5  1  0  0  0
 14  8  1  0  0  0
 24 19  1  0  0  0
 35 31  1  0  0  0
  3  4  1  0  0  0
 28 29  1  0  0  0
 13 16  1  0  0  0
M  END
> <minimizedAffinity>
-8.47965

> <CNNscore>
0.2192436755

> <CNNaffinity>
6.6469521523

> <CNN_VS>
1.4573022127

> <CNNaffinity_variance>
0.2587999701

$$$$
[H]c1sc(C([H])([H])N([H])C(=O)c2c([H])c([H])c(Cl)c(N([H])C(=O)c3c([H])c4c([H])nc(OC([H])([H])[H])nc4n([H])c3=O)c2[H])c([H])c1[H]


 35 38  0  0  0  0  0  0  0  0999 V2000
  -86.9789   32.2596   -1.3481 C   0  0  0  0  0  0  0  0  0  0  0  0
  -87.8596   32.1344   -0.4608 O   0  0  0  0  0  0  0  0  0  0  0  0
  -85.7169   31.6958   -1.1798 N   0  0  0  0  0  0  0  0  0  0  0  0
  -85.0123   31.8763   -1.9565 H   0  0  0  0  0  0  0  0  0  0  0  0
  -88.4465   36.6915   -5.6910 C   0  0  0  0  0  0  0  0  0  0  0  0
  -88.2270   37.2742   -4.4755 N   0  0  0  0  0  0  0  0  0  0  0  0
  -87.9115   36.5312   -3.4035 C   0  0  0  0  0  0  0  0  0  0  0  0
  -87.7983   35.1447   -3.4977 C   0  0  0  0  0  0  0  0  0  0  0  0
  -87.4721   34.4188   -2.3830 C   0  0  0  0  0  0  0  0  0  0  0  0
  -87.3635   33.0131   -2.5194 C   0  0  0  0  0  0  0  0  0  0  0  0
  -87.5944   32.4924   -3.7537 C   0  0  0  0  0  0  0  0  0  0  0  0
  -87.5204   31.2608   -3.9448 O   0  0  0  0  0  0  0  0  0  0  0  0
  -87.9172   33.2539   -4.8387 N   0  0  0  0  0  0  0  0  0  0  0  0
  -88.0236   34.5812   -4.7306 C   0  0  0  0  0  0  0  0  0  0  0  0
  -88.3433   35.3581   -5.8056 N   0  0  0  0  0  0  0  0  0  0  0  0
  -88.0806   32.7893   -5.7540 H   0  0  0  0  0  0  0  0  0  0  0  0
  -89.8708   37.2467   -7.6342 C   0  0  0  0  0  0  0  0  0  0  0  0
  -88.7667   37.4736   -6.7733 O   0  0  0  0  0  0  0  0  0  0  0  0
  -85.2167   30.9291   -0.1014 C   0  0  0  0  0  0  0  0  0  0  0  0
  -85.8205   29.7897    0.3395 C   0  0  0  0  0  0  0  0  0  0  0  0
  -85.2592   29.0801    1.4082 C   0  0  0  0  0  0  0  0  0  0  0  0
  -84.1146   29.4828    2.0421 C   0  0  0  0  0  0  0  0  0  0  0  0
  -83.5139   30.6410    1.5821 C   0  0  0  0  0  0  0  0  0  0  0  0
  -84.0367   31.3540    0.5429 C   0  0  0  0  0  0  0  0  0  0  0  0
  -83.2489   32.8149   -0.0052 Cl  0  0  0  0  0  0  0  0  0  0  0  0
  -85.9090   27.8615    1.8563 C   0  0  0  0  0  0  0  0  0  0  0  0
  -85.1948   26.8915    2.2847 O   0  0  0  0  0  0  0  0  0  0  0  0
  -87.3079   27.6684    1.8502 N   0  0  0  0  0  0  0  0  0  0  0  0
  -87.9329   28.4299    1.5048 H   0  0  0  0  0  0  0  0  0  0  0  0
  -87.9076   26.4504    2.3025 C   0  0  0  0  0  0  0  0  0  0  0  0
  -88.7675   25.8573    1.2076 C   0  0  0  0  0  0  0  0  0  0  0  0
  -88.5050   25.8202   -0.1312 C   0  0  0  0  0  0  0  0  0  0  0  0
  -89.4290   25.2370   -0.9209 C   0  0  0  0  0  0  0  0  0  0  0  0
  -90.5468   24.7348   -0.3107 C   0  0  0  0  0  0  0  0  0  0  0  0
  -90.2829   25.0850    1.3327 S   0  0  0  0  0  0  0  0  0  0  0  0
 17 18  1  0  0  0
 18  5  1  0  0  0
  5  6  2  0  0  0
  6  7  1  0  0  0
  7  8  2  0  0  0
  8  9  1  0  0  0
  9 10  2  0  0  0
 10  1  1  0  0  0
  1  2  2  0  0  0
  1  3  1  0  0  0
  3 19  1  0  0  0
 19 20  2  0  0  0
 20 21  1  0  0  0
 21 22  2  0  0  0
 22 23  1  0  0  0
 23 24  2  0  0  0
 24 25  1  0  0  0
 21 26  1  0  0  0
 26 27  2  0  0  0
 26 28  1  0  0  0
 28 30  1  0  0  0
 30 31  1  0  0  0
 31 32  2  0  0  0
 32 33  1  0  0  0
 33 34  2  0  0  0
 34 35  1  0  0  0
 10 11  1  0  0  0
 11 12  2  0  0  0
 11 13  1  0  0  0
 13 14  1  0  0  0
 14 15  2  0  0  0
 15  5  1  0  0  0
 14  8  1  0  0  0
 24 19  1  0  0  0
 35 31  1  0  0  0
  3  4  1  0  0  0
 28 29  1  0  0  0
 13 16  1  0  0  0
M  END
> <minimizedAffinity>
-8.40121

> <CNNscore>
0.1986906081

> <CNNaffinity>
6.6111516953

> <CNN_VS>
1.3135737181

> <CNNaffinity_variance>
0.0971497744

$$$$
[H]c1sc(C([H])([H])N([H])C(=O)c2c([H])c([H])c(Cl)c(N([H])C(=O)c3c([H])c4c([H])nc(OC([H])([H])[H])nc4n([H])c3=O)c2[H])c([H])c1[H]


 35 38  0  0  0  0  0  0  0  0999 V2000
  -88.3555   32.1353   -1.7415 C   0  0  0  0  0  0  0  0  0  0  0  0
  -89.0926   32.2983   -0.7370 O   0  0  0  0  0  0  0  0  0  0  0  0
  -87.0977   31.5523   -1.6114 N   0  0  0  0  0  0  0  0  0  0  0  0
  -86.5162   31.4822   -2.4999 H   0  0  0  0  0  0  0  0  0  0  0  0
  -90.6645   35.3976   -6.7096 C   0  0  0  0  0  0  0  0  0  0  0  0
  -90.5023   36.2242   -5.6346 N   0  0  0  0  0  0  0  0  0  0  0  0
  -90.0353   35.7523   -4.4684 C   0  0  0  0  0  0  0  0  0  0  0  0
  -89.7021   34.4067   -4.3189 C   0  0  0  0  0  0  0  0  0  0  0  0
  -89.2260   33.9610   -3.1145 C   0  0  0  0  0  0  0  0  0  0  0  0
  -88.8956   32.5882   -3.0027 C   0  0  0  0  0  0  0  0  0  0  0  0
  -89.0797   31.8164   -4.1066 C   0  0  0  0  0  0  0  0  0  0  0  0
  -88.8134   30.5970   -4.0777 O   0  0  0  0  0  0  0  0  0  0  0  0
  -89.5573   32.3028   -5.2885 N   0  0  0  0  0  0  0  0  0  0  0  0
  -89.8738   33.5946   -5.4141 C   0  0  0  0  0  0  0  0  0  0  0  0
  -90.3504   34.0982   -6.5890 N   0  0  0  0  0  0  0  0  0  0  0  0
  -89.6734   31.6556   -6.0934 H   0  0  0  0  0  0  0  0  0  0  0  0
  -91.6563   35.1211   -8.9574 C   0  0  0  0  0  0  0  0  0  0  0  0
  -91.1427   35.9048   -7.8927 O   0  0  0  0  0  0  0  0  0  0  0  0
  -86.4581   31.0554   -0.4517 C   0  0  0  0  0  0  0  0  0  0  0  0
  -86.7893   29.8655    0.1239 C   0  0  0  0  0  0  0  0  0  0  0  0
  -86.1033   29.4369    1.2670 C   0  0  0  0  0  0  0  0  0  0  0  0
  -85.0999   30.1680    1.8437 C   0  0  0  0  0  0  0  0  0  0  0  0
  -84.7755   31.3732    1.2468 C   0  0  0  0  0  0  0  0  0  0  0  0
  -85.4256   31.8175    0.1324 C   0  0  0  0  0  0  0  0  0  0  0  0
  -84.9880   33.3484   -0.5887 Cl  0  0  0  0  0  0  0  0  0  0  0  0
  -86.4610   28.1606    1.8595 C   0  0  0  0  0  0  0  0  0  0  0  0
  -85.5365   27.3825    2.2772 O   0  0  0  0  0  0  0  0  0  0  0  0
  -87.7903   27.7078    2.0085 N   0  0  0  0  0  0  0  0  0  0  0  0
  -88.5797   28.3057    1.6780 H   0  0  0  0  0  0  0  0  0  0  0  0
  -88.0988   26.4418    2.6000 C   0  0  0  0  0  0  0  0  0  0  0  0
  -89.2250   25.7747    1.8407 C   0  0  0  0  0  0  0  0  0  0  0  0
  -89.5115   25.8804    0.5106 C   0  0  0  0  0  0  0  0  0  0  0  0
  -90.5766   25.1898    0.0563 C   0  0  0  0  0  0  0  0  0  0  0  0
  -91.2750   24.4451    0.9683 C   0  0  0  0  0  0  0  0  0  0  0  0
  -90.4364   24.7241    2.4216 S   0  0  0  0  0  0  0  0  0  0  0  0
 17 18  1  0  0  0
 18  5  1  0  0  0
  5  6  2  0  0  0
  6  7  1  0  0  0
  7  8  2  0  0  0
  8  9  1  0  0  0
  9 10  2  0  0  0
 10  1  1  0  0  0
  1  2  2  0  0  0
  1  3  1  0  0  0
  3 19  1  0  0  0
 19 20  2  0  0  0
 20 21  1  0  0  0
 21 22  2  0  0  0
 22 23  1  0  0  0
 23 24  2  0  0  0
 24 25  1  0  0  0
 21 26  1  0  0  0
 26 27  2  0  0  0
 26 28  1  0  0  0
 28 30  1  0  0  0
 30 31  1  0  0  0
 31 32  2  0  0  0
 32 33  1  0  0  0
 33 34  2  0  0  0
 34 35  1  0  0  0
 10 11  1  0  0  0
 11 12  2  0  0  0
 11 13  1  0  0  0
 13 14  1  0  0  0
 14 15  2  0  0  0
 15  5  1  0  0  0
 14  8  1  0  0  0
 24 19  1  0  0  0
 35 31  1  0  0  0
  3  4  1  0  0  0
 28 29  1  0  0  0
 13 16  1  0  0  0
M  END
> <minimizedAffinity>
-7.99585

> <CNNscore>
0.1304014772

> <CNNaffinity>
6.3194804192

> <CNN_VS>
0.8240695596

> <CNNaffinity_variance>
0.2798151970

$$$$
[H]c1sc(C([H])([H])N([H])C(=O)c2c([H])c([H])c(Cl)c(N([H])C(=O)c3c([H])c4c([H])nc(OC([H])([H])[H])nc4n([H])c3=O)c2[H])c([H])c1[H]


 35 38  0  0  0  0  0  0  0  0999 V2000
  -88.2281   32.5060   -1.8586 C   0  0  0  0  0  0  0  0  0  0  0  0
  -88.9417   32.7244   -0.8477 O   0  0  0  0  0  0  0  0  0  0  0  0
  -87.0071   31.8480   -1.7364 N   0  0  0  0  0  0  0  0  0  0  0  0
  -86.4416   31.7332   -2.6305 H   0  0  0  0  0  0  0  0  0  0  0  0
  -91.6991   33.8947   -7.0239 C   0  0  0  0  0  0  0  0  0  0  0  0
  -92.3684   33.0096   -6.2277 N   0  0  0  0  0  0  0  0  0  0  0  0
  -91.8240   32.5649   -5.0846 C   0  0  0  0  0  0  0  0  0  0  0  0
  -90.5612   32.9921   -4.6756 C   0  0  0  0  0  0  0  0  0  0  0  0
  -90.0383   32.5189   -3.5016 C   0  0  0  0  0  0  0  0  0  0  0  0
  -88.7544   32.9785   -3.1185 C   0  0  0  0  0  0  0  0  0  0  0  0
  -88.1385   33.8577   -3.9526 C   0  0  0  0  0  0  0  0  0  0  0  0
  -87.0035   34.3002   -3.6793 O   0  0  0  0  0  0  0  0  0  0  0  0
  -88.6972   34.3036   -5.1147 N   0  0  0  0  0  0  0  0  0  0  0  0
  -89.9074   33.8825   -5.4929 C   0  0  0  0  0  0  0  0  0  0  0  0
  -90.4819   34.3198   -6.6504 N   0  0  0  0  0  0  0  0  0  0  0  0
  -88.1697   34.9765   -5.7055 H   0  0  0  0  0  0  0  0  0  0  0  0
  -93.1098   33.5486   -9.0245 C   0  0  0  0  0  0  0  0  0  0  0  0
  -92.2780   34.3361   -8.1881 O   0  0  0  0  0  0  0  0  0  0  0  0
  -86.3854   31.3246   -0.5787 C   0  0  0  0  0  0  0  0  0  0  0  0
  -86.6494   30.0777   -0.0963 C   0  0  0  0  0  0  0  0  0  0  0  0
  -85.9861   29.6268    1.0516 C   0  0  0  0  0  0  0  0  0  0  0  0
  -85.0705   30.3909    1.7236 C   0  0  0  0  0  0  0  0  0  0  0  0
  -84.8134   31.6539    1.2207 C   0  0  0  0  0  0  0  0  0  0  0  0
  -85.4436   32.1212    0.1043 C   0  0  0  0  0  0  0  0  0  0  0  0
  -85.0934   33.7249   -0.4963 Cl  0  0  0  0  0  0  0  0  0  0  0  0
  -86.2705   28.2909    1.5439 C   0  0  0  0  0  0  0  0  0  0  0  0
  -85.3736   27.6616    2.2026 O   0  0  0  0  0  0  0  0  0  0  0  0
  -87.4975   27.6223    1.3396 N   0  0  0  0  0  0  0  0  0  0  0  0
  -88.2593   28.0933    0.8033 H   0  0  0  0  0  0  0  0  0  0  0  0
  -87.7367   26.3046    1.8440 C   0  0  0  0  0  0  0  0  0  0  0  0
  -88.8434   26.3366    2.8756 C   0  0  0  0  0  0  0  0  0  0  0  0
  -89.0797   25.4362    3.8735 C   0  0  0  0  0  0  0  0  0  0  0  0
  -90.1368   25.6740    4.6759 C   0  0  0  0  0  0  0  0  0  0  0  0
  -90.8781   26.7957    4.4185 C   0  0  0  0  0  0  0  0  0  0  0  0
  -90.0894   27.4835    3.0775 S   0  0  0  0  0  0  0  0  0  0  0  0
 17 18  1  0  0  0
 18  5  1  0  0  0
  5  6  2  0  0  0
  6  7  1  0  0  0
  7  8  2  0  0  0
  8  9  1  0  0  0
  9 10  2  0  0  0
 10  1  1  0  0  0
  1  2  2  0  0  0
  1  3  1  0  0  0
  3 19  1  0  0  0
 19 20  2  0  0  0
 20 21  1  0  0  0
 21 22  2  0  0  0
 22 23  1  0  0  0
 23 24  2  0  0  0
 24 25  1  0  0  0
 21 26  1  0  0  0
 26 27  2  0  0  0
 26 28  1  0  0  0
 28 30  1  0  0  0
 30 31  1  0  0  0
 31 32  2  0  0  0
 32 33  1  0  0  0
 33 34  2  0  0  0
 34 35  1  0  0  0
 10 11  1  0  0  0
 11 12  2  0  0  0
 11 13  1  0  0  0
 13 14  1  0  0  0
 14 15  2  0  0  0
 15  5  1  0  0  0
 14  8  1  0  0  0
 24 19  1  0  0  0
 35 31  1  0  0  0
  3  4  1  0  0  0
 28 29  1  0  0  0
 13 16  1  0  0  0
M  END
> <minimizedAffinity>
-8.20177

> <CNNscore>
0.1052285880

> <CNNaffinity>
6.3956785202

> <CNN_VS>
0.6730082035

> <CNNaffinity_variance>
0.2042435408

$$$$
[H]c1sc(C([H])([H])N([H])C(=O)c2c([H])c([H])c(Cl)c(N([H])C(=O)c3c([H])c4c([H])nc(OC([H])([H])[H])nc4n([H])c3=O)c2[H])c([H])c1[H]


 35 38  0  0  0  0  0  0  0  0999 V2000
  -87.9072   32.0174   -1.1409 C   0  0  0  0  0  0  0  0  0  0  0  0
  -88.8865   31.9998   -0.3538 O   0  0  0  0  0  0  0  0  0  0  0  0
  -86.9652   30.9922   -1.1244 N   0  0  0  0  0  0  0  0  0  0  0  0
  -86.1440   31.0954   -1.7933 H   0  0  0  0  0  0  0  0  0  0  0  0
  -88.9821   36.9870   -4.9886 C   0  0  0  0  0  0  0  0  0  0  0  0
  -90.1623   36.3962   -4.6374 N   0  0  0  0  0  0  0  0  0  0  0  0
  -90.1810   35.3198   -3.8364 C   0  0  0  0  0  0  0  0  0  0  0  0
  -88.9987   34.7727   -3.3393 C   0  0  0  0  0  0  0  0  0  0  0  0
  -89.0564   33.6750   -2.5223 C   0  0  0  0  0  0  0  0  0  0  0  0
  -87.8344   33.1501   -2.0350 C   0  0  0  0  0  0  0  0  0  0  0  0
  -86.6935   33.7809   -2.4204 C   0  0  0  0  0  0  0  0  0  0  0  0
  -85.5807   33.3692   -2.0320 O   0  0  0  0  0  0  0  0  0  0  0  0
  -86.6821   34.8737   -3.2371 N   0  0  0  0  0  0  0  0  0  0  0  0
  -87.8240   35.3841   -3.7064 C   0  0  0  0  0  0  0  0  0  0  0  0
  -87.8311   36.4775   -4.5221 N   0  0  0  0  0  0  0  0  0  0  0  0
  -85.7723   35.3069   -3.4921 H   0  0  0  0  0  0  0  0  0  0  0  0
  -87.9741   38.4015   -6.7481 C   0  0  0  0  0  0  0  0  0  0  0  0
  -88.9893   38.0885   -5.8084 O   0  0  0  0  0  0  0  0  0  0  0  0
  -86.9232   29.8293   -0.3202 C   0  0  0  0  0  0  0  0  0  0  0  0
  -87.6844   28.7274   -0.5722 C   0  0  0  0  0  0  0  0  0  0  0  0
  -87.5802   27.6101    0.2656 C   0  0  0  0  0  0  0  0  0  0  0  0
  -86.7371   27.5712    1.3433 C   0  0  0  0  0  0  0  0  0  0  0  0
  -85.9711   28.6976    1.5849 C   0  0  0  0  0  0  0  0  0  0  0  0
  -86.0502   29.8013    0.7866 C   0  0  0  0  0  0  0  0  0  0  0  0
  -85.0679   31.2059    1.1290 Cl  0  0  0  0  0  0  0  0  0  0  0  0
  -88.3895   26.4403   -0.0255 C   0  0  0  0  0  0  0  0  0  0  0  0
  -89.0364   25.8746    0.9210 O   0  0  0  0  0  0  0  0  0  0  0  0
  -88.5131   25.8699   -1.3113 N   0  0  0  0  0  0  0  0  0  0  0  0
  -87.9999   26.2933   -2.1158 H   0  0  0  0  0  0  0  0  0  0  0  0
  -89.3236   24.7158   -1.5547 C   0  0  0  0  0  0  0  0  0  0  0  0
  -90.5826   25.1122   -2.2947 C   0  0  0  0  0  0  0  0  0  0  0  0
  -91.6717   24.3350   -2.5636 C   0  0  0  0  0  0  0  0  0  0  0  0
  -92.6817   24.9106   -3.2464 C   0  0  0  0  0  0  0  0  0  0  0  0
  -92.5253   26.2214   -3.6088 C   0  0  0  0  0  0  0  0  0  0  0  0
  -90.9887   26.6138   -2.9938 S   0  0  0  0  0  0  0  0  0  0  0  0
 17 18  1  0  0  0
 18  5  1  0  0  0
  5  6  2  0  0  0
  6  7  1  0  0  0
  7  8  2  0  0  0
  8  9  1  0  0  0
  9 10  2  0  0  0
 10  1  1  0  0  0
  1  2  2  0  0  0
  1  3  1  0  0  0
  3 19  1  0  0  0
 19 20  2  0  0  0
 20 21  1  0  0  0
 21 22  2  0  0  0
 22 23  1  0  0  0
 23 24  2  0  0  0
 24 25  1  0  0  0
 21 26  1  0  0  0
 26 27  2  0  0  0
 26 28  1  0  0  0
 28 30  1  0  0  0
 30 31  1  0  0  0
 31 32  2  0  0  0
 32 33  1  0  0  0
 33 34  2  0  0  0
 34 35  1  0  0  0
 10 11  1  0  0  0
 11 12  2  0  0  0
 11 13  1  0  0  0
 13 14  1  0  0  0
 14 15  2  0  0  0
 15  5  1  0  0  0
 14  8  1  0  0  0
 24 19  1  0  0  0
 35 31  1  0  0  0
  3  4  1  0  0  0
 28 29  1  0  0  0
 13 16  1  0  0  0
M  END
> <minimizedAffinity>
-7.75011

> <CNNscore>
0.0904793292

> <CNNaffinity>
6.1419043541

> <CNN_VS>
0.5557153821

> <CNNaffinity_variance>
0.1979538202

$$$$
[H]c1sc(C([H])([H])N([H])C(=O)c2c([H])c([H])c(Cl)c(N([H])C(=O)c3c([H])c4c([H])nc(OC([H])([H])[H])nc4n([H])c3=O)c2[H])c([H])c1[H]


 35 38  0  0  0  0  0  0  0  0999 V2000
  -87.9116   30.8547   -1.3685 C   0  0  0  0  0  0  0  0  0  0  0  0
  -88.7883   31.0289   -0.4853 O   0  0  0  0  0  0  0  0  0  0  0  0
  -87.0385   29.7723   -1.2978 N   0  0  0  0  0  0  0  0  0  0  0  0
  -86.2991   29.7122   -2.0607 H   0  0  0  0  0  0  0  0  0  0  0  0
  -87.6416   36.0942   -4.9922 C   0  0  0  0  0  0  0  0  0  0  0  0
  -87.6933   36.4348   -3.6706 N   0  0  0  0  0  0  0  0  0  0  0  0
  -87.7648   35.4909   -2.7194 C   0  0  0  0  0  0  0  0  0  0  0  0
  -87.7885   34.1367   -3.0505 C   0  0  0  0  0  0  0  0  0  0  0  0
  -87.8594   33.2010   -2.0528 C   0  0  0  0  0  0  0  0  0  0  0  0
  -87.8782   31.8356   -2.4288 C   0  0  0  0  0  0  0  0  0  0  0  0
  -87.8252   31.5602   -3.7591 C   0  0  0  0  0  0  0  0  0  0  0  0
  -87.8427   30.3785   -4.1617 O   0  0  0  0  0  0  0  0  0  0  0  0
  -87.7551   32.5253   -4.7208 N   0  0  0  0  0  0  0  0  0  0  0  0
  -87.7354   33.8186   -4.3863 C   0  0  0  0  0  0  0  0  0  0  0  0
  -87.6632   34.7965   -5.3348 N   0  0  0  0  0  0  0  0  0  0  0  0
  -87.7173   32.2434   -5.7205 H   0  0  0  0  0  0  0  0  0  0  0  0
  -87.3102   36.8501   -7.3227 C   0  0  0  0  0  0  0  0  0  0  0  0
  -87.5673   37.0785   -5.9467 O   0  0  0  0  0  0  0  0  0  0  0  0
  -86.9710   28.7395   -0.3336 C   0  0  0  0  0  0  0  0  0  0  0  0
  -87.8788   27.7251   -0.2707 C   0  0  0  0  0  0  0  0  0  0  0  0
  -87.7393   26.7335    0.7082 C   0  0  0  0  0  0  0  0  0  0  0  0
  -86.7184   26.7345    1.6201 C   0  0  0  0  0  0  0  0  0  0  0  0
  -85.8051   27.7708    1.5424 C   0  0  0  0  0  0  0  0  0  0  0  0
  -85.9142   28.7513    0.5998 C   0  0  0  0  0  0  0  0  0  0  0  0
  -84.7414   30.0458    0.5382 Cl  0  0  0  0  0  0  0  0  0  0  0  0
  -88.7085   25.6535    0.7522 C   0  0  0  0  0  0  0  0  0  0  0  0
  -89.5351   25.5926    1.7256 O   0  0  0  0  0  0  0  0  0  0  0  0
  -88.8028   24.6411   -0.2278 N   0  0  0  0  0  0  0  0  0  0  0  0
  -88.1462   24.6452   -1.0394 H   0  0  0  0  0  0  0  0  0  0  0  0
  -89.7752   23.5943   -0.1462 C   0  0  0  0  0  0  0  0  0  0  0  0
  -90.9187   23.8729   -1.0974 C   0  0  0  0  0  0  0  0  0  0  0  0
  -91.2391   23.1949   -2.2377 C   0  0  0  0  0  0  0  0  0  0  0  0
  -92.3098   23.6324   -2.9304 C   0  0  0  0  0  0  0  0  0  0  0  0
  -92.9794   24.7160   -2.4292 C   0  0  0  0  0  0  0  0  0  0  0  0
  -92.1074   25.0933   -1.0184 S   0  0  0  0  0  0  0  0  0  0  0  0
 17 18  1  0  0  0
 18  5  1  0  0  0
  5  6  2  0  0  0
  6  7  1  0  0  0
  7  8  2  0  0  0
  8  9  1  0  0  0
  9 10  2  0  0  0
 10  1  1  0  0  0
  1  2  2  0  0  0
  1  3  1  0  0  0
  3 19  1  0  0  0
 19 20  2  0  0  0
 20 21  1  0  0  0
 21 22  2  0  0  0
 22 23  1  0  0  0
 23 24  2  0  0  0
 24 25  1  0  0  0
 21 26  1  0  0  0
 26 27  2  0  0  0
 26 28  1  0  0  0
 28 30  1  0  0  0
 30 31  1  0  0  0
 31 32  2  0  0  0
 32 33  1  0  0  0
 33 34  2  0  0  0
 34 35  1  0  0  0
 10 11  1  0  0  0
 11 12  2  0  0  0
 11 13  1  0  0  0
 13 14  1  0  0  0
 14 15  2  0  0  0
 15  5  1  0  0  0
 14  8  1  0  0  0
 24 19  1  0  0  0
 35 31  1  0  0  0
  3  4  1  0  0  0
 28 29  1  0  0  0
 13 16  1  0  0  0
M  END
> <minimizedAffinity>
-8.00761

> <CNNscore>
0.0578909107

> <CNNaffinity>
5.7758440971

> <CNN_VS>
0.3343688846

> <CNNaffinity_variance>
0.2469765395

$$$$
[H]c1sc(C([H])([H])N([H])C(=O)c2c([H])c([H])c(Cl)c(N([H])C(=O)c3c([H])c4c([H])nc(OC([H])([H])[H])nc4n([H])c3=O)c2[H])c([H])c1[H]


 35 38  0  0  0  0  0  0  0  0999 V2000
  -88.6587   31.0390   -2.9094 C   0  0  0  0  0  0  0  0  0  0  0  0
  -88.4726   30.3130   -3.9179 O   0  0  0  0  0  0  0  0  0  0  0  0
  -89.6314   32.0352   -2.9220 N   0  0  0  0  0  0  0  0  0  0  0  0
  -89.7047   32.6340   -2.0453 H   0  0  0  0  0  0  0  0  0  0  0  0
  -85.2828   28.5262    1.8808 C   0  0  0  0  0  0  0  0  0  0  0  0
  -86.0565   27.5667    1.2926 N   0  0  0  0  0  0  0  0  0  0  0  0
  -86.8624   27.8687    0.2630 C   0  0  0  0  0  0  0  0  0  0  0  0
  -86.9344   29.1685   -0.2366 C   0  0  0  0  0  0  0  0  0  0  0  0
  -87.7663   29.4394   -1.2903 C   0  0  0  0  0  0  0  0  0  0  0  0
  -87.8095   30.7709   -1.7716 C   0  0  0  0  0  0  0  0  0  0  0  0
  -87.0175   31.6806   -1.1445 C   0  0  0  0  0  0  0  0  0  0  0  0
  -87.0091   32.8732   -1.5136 O   0  0  0  0  0  0  0  0  0  0  0  0
  -86.2022   31.3667   -0.0965 N   0  0  0  0  0  0  0  0  0  0  0  0
  -86.1469   30.1165    0.3713 C   0  0  0  0  0  0  0  0  0  0  0  0
  -85.3357   29.7846    1.4167 N   0  0  0  0  0  0  0  0  0  0  0  0
  -85.6226   32.1128    0.3364 H   0  0  0  0  0  0  0  0  0  0  0  0
  -83.1302   27.7310    2.8009 C   0  0  0  0  0  0  0  0  0  0  0  0
  -84.4651   28.1917    2.9320 O   0  0  0  0  0  0  0  0  0  0  0  0
  -90.5329   32.3917   -3.9521 C   0  0  0  0  0  0  0  0  0  0  0  0
  -91.5699   31.5956   -4.3365 C   0  0  0  0  0  0  0  0  0  0  0  0
  -92.4256   32.0224   -5.3595 C   0  0  0  0  0  0  0  0  0  0  0  0
  -92.2675   33.2204   -6.0028 C   0  0  0  0  0  0  0  0  0  0  0  0
  -91.2103   34.0169   -5.6004 C   0  0  0  0  0  0  0  0  0  0  0  0
  -90.3598   33.6286   -4.6066 C   0  0  0  0  0  0  0  0  0  0  0  0
  -89.0335   34.6627   -4.1307 Cl  0  0  0  0  0  0  0  0  0  0  0  0
  -93.5327   31.1670   -5.7473 C   0  0  0  0  0  0  0  0  0  0  0  0
  -94.1073   31.3575   -6.8734 O   0  0  0  0  0  0  0  0  0  0  0  0
  -94.0314   30.1154   -4.9476 N   0  0  0  0  0  0  0  0  0  0  0  0
  -93.5982   29.9239   -4.0173 H   0  0  0  0  0  0  0  0  0  0  0  0
  -95.1251   29.2945   -5.3692 C   0  0  0  0  0  0  0  0  0  0  0  0
  -94.6718   27.8575   -5.5094 C   0  0  0  0  0  0  0  0  0  0  0  0
  -93.9669   27.3018   -6.5374 C   0  0  0  0  0  0  0  0  0  0  0  0
  -93.6777   25.9884   -6.4426 C   0  0  0  0  0  0  0  0  0  0  0  0
  -94.1161   25.3300   -5.3254 C   0  0  0  0  0  0  0  0  0  0  0  0
  -94.9125   26.5475   -4.4442 S   0  0  0  0  0  0  0  0  0  0  0  0
 17 18  1  0  0  0
 18  5  1  0  0  0
  5  6  2  0  0  0
  6  7  1  0  0  0
  7  8  2  0  0  0
  8  9  1  0  0  0
  9 10  2  0  0  0
 10  1  1  0  0  0
  1  2  2  0  0  0
  1  3  1  0  0  0
  3 19  1  0  0  0
 19 20  2  0  0  0
 20 21  1  0  0  0
 21 22  2  0  0  0
 22 23  1  0  0  0
 23 24  2  0  0  0
 24 25  1  0  0  0
 21 26  1  0  0  0
 26 27  2  0  0  0
 26 28  1  0  0  0
 28 30  1  0  0  0
 30 31  1  0  0  0
 31 32  2  0  0  0
 32 33  1  0  0  0
 33 34  2  0  0  0
 34 35  1  0  0  0
 10 11  1  0  0  0
 11 12  2  0  0  0
 11 13  1  0  0  0
 13 14  1  0  0  0
 14 15  2  0  0  0
 15  5  1  0  0  0
 14  8  1  0  0  0
 24 19  1  0  0  0
 35 31  1  0  0  0
  3  4  1  0  0  0
 28 29  1  0  0  0
 13 16  1  0  0  0
M  END
> <minimizedAffinity>
-7.03226

> <CNNscore>
0.0550361276

> <CNNaffinity>
5.5817804337

> <CNN_VS>
0.3071995676

> <CNNaffinity_variance>
0.1503876001

$$$$
[H]c1sc(C([H])([H])N([H])C(=O)c2c([H])c([H])c(Cl)c(N([H])C(=O)c3c([H])c4c([H])nc(OC([H])([H])[H])nc4n([H])c3=O)c2[H])c([H])c1[H]


 35 38  0  0  0  0  0  0  0  0999 V2000
  -88.0073   31.8961   -1.3123 C   0  0  0  0  0  0  0  0  0  0  0  0
  -88.9839   32.1424   -0.5609 O   0  0  0  0  0  0  0  0  0  0  0  0
  -87.2101   30.7753   -1.0952 N   0  0  0  0  0  0  0  0  0  0  0  0
  -86.3794   30.6536   -1.7491 H   0  0  0  0  0  0  0  0  0  0  0  0
  -88.3715   35.8669   -6.2879 C   0  0  0  0  0  0  0  0  0  0  0  0
  -89.5567   35.2095   -6.1191 N   0  0  0  0  0  0  0  0  0  0  0  0
  -89.7108   34.3114   -5.1340 C   0  0  0  0  0  0  0  0  0  0  0  0
  -88.6680   34.0226   -4.2545 C   0  0  0  0  0  0  0  0  0  0  0  0
  -88.8624   33.1020   -3.2593 C   0  0  0  0  0  0  0  0  0  0  0  0
  -87.7805   32.8380   -2.3841 C   0  0  0  0  0  0  0  0  0  0  0  0
  -86.6268   33.5230   -2.6036 C   0  0  0  0  0  0  0  0  0  0  0  0
  -85.6316   33.3364   -1.8732 O   0  0  0  0  0  0  0  0  0  0  0  0
  -86.4766   34.4330   -3.6089 N   0  0  0  0  0  0  0  0  0  0  0  0
  -87.4855   34.6964   -4.4441 C   0  0  0  0  0  0  0  0  0  0  0  0
  -87.3534   35.6049   -5.4532 N   0  0  0  0  0  0  0  0  0  0  0  0
  -85.5657   34.9211   -3.7193 H   0  0  0  0  0  0  0  0  0  0  0  0
  -89.3219   37.3721   -8.0036 C   0  0  0  0  0  0  0  0  0  0  0  0
  -88.2391   36.7825   -7.3025 O   0  0  0  0  0  0  0  0  0  0  0  0
  -87.3269   29.7734   -0.1035 C   0  0  0  0  0  0  0  0  0  0  0  0
  -88.4587   29.0352    0.0730 C   0  0  0  0  0  0  0  0  0  0  0  0
  -88.4943   28.0542    1.0717 C   0  0  0  0  0  0  0  0  0  0  0  0
  -87.4296   27.7973    1.8928 C   0  0  0  0  0  0  0  0  0  0  0  0
  -86.2881   28.5550    1.7002 C   0  0  0  0  0  0  0  0  0  0  0  0
  -86.2229   29.5177    0.7355 C   0  0  0  0  0  0  0  0  0  0  0  0
  -84.7631   30.4561    0.5275 Cl  0  0  0  0  0  0  0  0  0  0  0  0
  -89.7041   27.2687    1.2372 C   0  0  0  0  0  0  0  0  0  0  0  0
  -90.6459   27.7166    1.9767 O   0  0  0  0  0  0  0  0  0  0  0  0
  -89.9169   26.0142    0.6247 N   0  0  0  0  0  0  0  0  0  0  0  0
  -89.1748   25.6043    0.0155 H   0  0  0  0  0  0  0  0  0  0  0  0
  -91.1264   25.2730    0.8138 C   0  0  0  0  0  0  0  0  0  0  0  0
  -90.8697   24.0801    1.7089 C   0  0  0  0  0  0  0  0  0  0  0  0
  -90.6954   24.0752    3.0625 C   0  0  0  0  0  0  0  0  0  0  0  0
  -90.4750   22.8808    3.6476 C   0  0  0  0  0  0  0  0  0  0  0  0
  -90.4454   21.7808    2.8333 C   0  0  0  0  0  0  0  0  0  0  0  0
  -90.7234   22.4340    1.2876 S   0  0  0  0  0  0  0  0  0  0  0  0
 17 18  1  0  0  0
 18  5  1  0  0  0
  5  6  2  0  0  0
  6  7  1  0  0  0
  7  8  2  0  0  0
  8  9  1  0  0  0
  9 10  2  0  0  0
 10  1  1  0  0  0
  1  2  2  0  0  0
  1  3  1  0  0  0
  3 19  1  0  0  0
 19 20  2  0  0  0
 20 21  1  0  0  0
 21 22  2  0  0  0
 22 23  1  0  0  0
 23 24  2  0  0  0
 24 25  1  0  0  0
 21 26  1  0  0  0
 26 27  2  0  0  0
 26 28  1  0  0  0
 28 30  1  0  0  0
 30 31  1  0  0  0
 31 32  2  0  0  0
 32 33  1  0  0  0
 33 34  2  0  0  0
 34 35  1  0  0  0
 10 11  1  0  0  0
 11 12  2  0  0  0
 11 13  1  0  0  0
 13 14  1  0  0  0
 14 15  2  0  0  0
 15  5  1  0  0  0
 14  8  1  0  0  0
 24 19  1  0  0  0
 35 31  1  0  0  0
  3  4  1  0  0  0
 28 29  1  0  0  0
 13 16  1  0  0  0
M  END
> <minimizedAffinity>
-8.13143

> <CNNscore>
0.0547015667

> <CNNaffinity>
5.8384609222

> <CNN_VS>
0.3193729520

> <CNNaffinity_variance>
0.1925799698

$$$$
[H]c1sc(-c2c([H])c([H])c3c(c2[H])C([H])([H])C([H])([H])O3)nc1C(=O)N([H])c1nc2c([H])c(C(=O)N3C([H])([H])C([H])([H])N(C([H])([H])C([H])([H])[H])C([H])([H])C3([H])[H])c([H])c([H])c2n1[H]


 38 43  0  0  0  0  0  0  0  0999 V2000
  -89.3696   30.0275   -1.5979 C   0  0  0  0  0  0  0  0  0  0  0  0
  -88.7141   29.5252   -2.6885 C   0  0  0  0  0  0  0  0  0  0  0  0
  -87.9618   30.3529   -3.5495 C   0  0  0  0  0  0  0  0  0  0  0  0
  -87.8712   31.7013   -3.3046 C   0  0  0  0  0  0  0  0  0  0  0  0
  -87.2540   32.7279   -3.9152 N   0  0  0  0  0  0  0  0  0  0  0  0
  -87.4984   33.8804   -3.2394 C   0  0  0  0  0  0  0  0  0  0  0  0
  -88.2817   33.5270   -2.2001 N   0  0  0  0  0  0  0  0  0  0  0  0
  -88.5324   32.2016   -2.2050 C   0  0  0  0  0  0  0  0  0  0  0  0
  -89.2679   31.4222   -1.3556 C   0  0  0  0  0  0  0  0  0  0  0  0
  -86.6794   32.6203   -4.7791 H   0  0  0  0  0  0  0  0  0  0  0  0
  -89.4045   27.2140    2.8125 N   0  0  0  0  0  0  0  0  0  0  0  0
  -88.7156   26.7364    1.6737 C   0  0  0  0  0  0  0  0  0  0  0  0
  -88.5383   27.9394    0.6921 C   0  0  0  0  0  0  0  0  0  0  0  0
  -89.8339   28.3873    0.2898 N   0  0  0  0  0  0  0  0  0  0  0  0
  -90.9725   27.7899    1.0776 C   0  0  0  0  0  0  0  0  0  0  0  0
  -90.6159   27.8924    2.5399 C   0  0  0  0  0  0  0  0  0  0  0  0
  -90.1722   29.2774   -0.6989 C   0  0  0  0  0  0  0  0  0  0  0  0
  -91.4717   29.4692   -0.8409 O   0  0  0  0  0  0  0  0  0  0  0  0
  -90.1345   26.9447    5.0703 C   0  0  0  0  0  0  0  0  0  0  0  0
  -89.4827   26.2720    3.8979 C   0  0  0  0  0  0  0  0  0  0  0  0
  -87.0108   35.1613   -3.5901 N   0  0  0  0  0  0  0  0  0  0  0  0
  -87.4924   35.7685   -4.7761 C   0  0  0  0  0  0  0  0  0  0  0  0
  -88.3365   35.2047   -5.5202 O   0  0  0  0  0  0  0  0  0  0  0  0
  -86.3172   35.6215   -2.9759 H   0  0  0  0  0  0  0  0  0  0  0  0
  -86.9701   37.1173   -5.1355 C   0  0  0  0  0  0  0  0  0  0  0  0
  -87.8225   38.1975   -5.2422 C   0  0  0  0  0  0  0  0  0  0  0  0
  -86.7412   39.4495   -5.6632 S   0  0  0  0  0  0  0  0  0  0  0  0
  -85.2978   38.5443   -5.6787 C   0  0  0  0  0  0  0  0  0  0  0  0
  -85.7155   37.3336   -5.3618 N   0  0  0  0  0  0  0  0  0  0  0  0
  -83.9142   38.9534   -5.9649 C   0  0  0  0  0  0  0  0  0  0  0  0
  -83.5755   39.4405   -7.2040 C   0  0  0  0  0  0  0  0  0  0  0  0
  -82.2501   39.8216   -7.4407 C   0  0  0  0  0  0  0  0  0  0  0  0
  -81.2869   39.7140   -6.4486 C   0  0  0  0  0  0  0  0  0  0  0  0
  -79.9281   40.0351   -6.4805 O   0  0  0  0  0  0  0  0  0  0  0  0
  -79.5427   40.2564   -5.1379 C   0  0  0  0  0  0  0  0  0  0  0  0
  -80.3945   39.2428   -4.3998 C   0  0  0  0  0  0  0  0  0  0  0  0
  -81.6396   39.2235   -5.2085 C   0  0  0  0  0  0  0  0  0  0  0  0
  -82.9492   38.8477   -4.9774 C   0  0  0  0  0  0  0  0  0  0  0  0
 19 20  1  0  0  0
 20 11  1  0  0  0
 11 12  1  0  0  0
 12 13  1  0  0  0
 13 14  1  0  0  0
 14 15  1  0  0  0
 15 16  1  0  0  0
 14 17  1  0  0  0
 17 18  2  0  0  0
 17  1  1  0  0  0
  1  2  2  0  0  0
  2  3  1  0  0  0
  3  4  2  0  0  0
  4  5  1  0  0  0
  5  6  1  0  0  0
  6 21  1  0  0  0
 21 22  1  0  0  0
 22 23  2  0  0  0
 22 25  1  0  0  0
 25 26  2  0  0  0
 26 27  1  0  0  0
 27 28  1  0  0  0
 28 29  2  0  0  0
 28 30  1  0  0  0
 30 31  2  0  0  0
 31 32  1  0  0  0
 32 33  2  0  0  0
 33 34  1  0  0  0
 34 35  1  0  0  0
 35 36  1  0  0  0
 36 37  1  0  0  0
 37 38  2  0  0  0
  6  7  2  0  0  0
  7  8  1  0  0  0
  8  9  2  0  0  0
 16 11  1  0  0  0
  9  1  1  0  0  0
  8  4  1  0  0  0
 29 25  1  0  0  0
 38 30  1  0  0  0
 37 33  1  0  0  0
  5 10  1  0  0  0
 21 24  1  0  0  0
M  END
> <minimizedAffinity>
-8.78270

> <CNNscore>
0.1785989702

> <CNNaffinity>
5.9273295403

> <CNN_VS>
1.0586149693

> <CNNaffinity_variance>
0.1698754132

$$$$
[H]c1sc(-c2c([H])c([H])c3c(c2[H])C([H])([H])C([H])([H])O3)nc1C(=O)N([H])c1nc2c([H])c(C(=O)N3C([H])([H])C([H])([H])N(C([H])([H])C([H])([H])[H])C([H])([H])C3([H])[H])c([H])c([H])c2n1[H]


 38 43  0  0  0  0  0  0  0  0999 V2000
  -94.7064   25.4393   -4.8003 C   0  0  0  0  0  0  0  0  0  0  0  0
  -95.3896   26.6086   -4.9935 C   0  0  0  0  0  0  0  0  0  0  0  0
  -94.8091   27.8637   -4.7103 C   0  0  0  0  0  0  0  0  0  0  0  0
  -93.5253   27.9366   -4.2279 C   0  0  0  0  0  0  0  0  0  0  0  0
  -92.7117   28.9455   -3.8702 N   0  0  0  0  0  0  0  0  0  0  0  0
  -91.5188   28.4493   -3.4516 C   0  0  0  0  0  0  0  0  0  0  0  0
  -91.6285   27.1100   -3.5643 N   0  0  0  0  0  0  0  0  0  0  0  0
  -92.8419   26.7566   -4.0360 C   0  0  0  0  0  0  0  0  0  0  0  0
  -93.3806   25.5281   -4.3018 C   0  0  0  0  0  0  0  0  0  0  0  0
  -92.9875   29.9503   -3.9196 H   0  0  0  0  0  0  0  0  0  0  0  0
  -95.4088   21.6504   -8.3387 N   0  0  0  0  0  0  0  0  0  0  0  0
  -96.0963   22.8789   -8.4712 C   0  0  0  0  0  0  0  0  0  0  0  0
  -95.3893   23.9165   -7.5409 C   0  0  0  0  0  0  0  0  0  0  0  0
  -95.5105   23.4668   -6.1903 N   0  0  0  0  0  0  0  0  0  0  0  0
  -96.0263   22.0571   -6.0466 C   0  0  0  0  0  0  0  0  0  0  0  0
  -95.2534   21.1904   -7.0096 C   0  0  0  0  0  0  0  0  0  0  0  0
  -95.2201   24.1355   -5.0273 C   0  0  0  0  0  0  0  0  0  0  0  0
  -95.4620   23.4473   -3.9257 O   0  0  0  0  0  0  0  0  0  0  0  0
  -96.8289   21.2295  -10.2120 C   0  0  0  0  0  0  0  0  0  0  0  0
  -95.8189   20.6362   -9.2739 C   0  0  0  0  0  0  0  0  0  0  0  0
  -90.4190   29.2165   -3.0005 N   0  0  0  0  0  0  0  0  0  0  0  0
  -90.5832   30.0243   -1.8482 C   0  0  0  0  0  0  0  0  0  0  0  0
  -91.6718   30.0770   -1.2187 O   0  0  0  0  0  0  0  0  0  0  0  0
  -89.5259   29.1704   -3.5205 H   0  0  0  0  0  0  0  0  0  0  0  0
  -89.4178   30.8289   -1.3838 C   0  0  0  0  0  0  0  0  0  0  0  0
  -89.3968   32.1989   -1.5489 C   0  0  0  0  0  0  0  0  0  0  0  0
  -87.8852   32.6050   -0.8675 S   0  0  0  0  0  0  0  0  0  0  0  0
  -87.3787   31.0404   -0.4218 C   0  0  0  0  0  0  0  0  0  0  0  0
  -88.3891   30.2891   -0.8159 N   0  0  0  0  0  0  0  0  0  0  0  0
  -86.1439   30.5846    0.2348 C   0  0  0  0  0  0  0  0  0  0  0  0
  -85.0614   31.4241    0.3392 C   0  0  0  0  0  0  0  0  0  0  0  0
  -83.9036   30.9577    0.9715 C   0  0  0  0  0  0  0  0  0  0  0  0
  -83.8390   29.6721    1.4877 C   0  0  0  0  0  0  0  0  0  0  0  0
  -82.7926   29.0224    2.1462 O   0  0  0  0  0  0  0  0  0  0  0  0
  -83.3869   27.9952    2.9154 C   0  0  0  0  0  0  0  0  0  0  0  0
  -84.5330   27.5629    2.0226 C   0  0  0  0  0  0  0  0  0  0  0  0
  -84.9328   28.8387    1.3767 C   0  0  0  0  0  0  0  0  0  0  0  0
  -86.0750   29.3018    0.7516 C   0  0  0  0  0  0  0  0  0  0  0  0
 19 20  1  0  0  0
 20 11  1  0  0  0
 11 12  1  0  0  0
 12 13  1  0  0  0
 13 14  1  0  0  0
 14 15  1  0  0  0
 15 16  1  0  0  0
 14 17  1  0  0  0
 17 18  2  0  0  0
 17  1  1  0  0  0
  1  2  2  0  0  0
  2  3  1  0  0  0
  3  4  2  0  0  0
  4  5  1  0  0  0
  5  6  1  0  0  0
  6 21  1  0  0  0
 21 22  1  0  0  0
 22 23  2  0  0  0
 22 25  1  0  0  0
 25 26  2  0  0  0
 26 27  1  0  0  0
 27 28  1  0  0  0
 28 29  2  0  0  0
 28 30  1  0  0  0
 30 31  2  0  0  0
 31 32  1  0  0  0
 32 33  2  0  0  0
 33 34  1  0  0  0
 34 35  1  0  0  0
 35 36  1  0  0  0
 36 37  1  0  0  0
 37 38  2  0  0  0
  6  7  2  0  0  0
  7  8  1  0  0  0
  8  9  2  0  0  0
 16 11  1  0  0  0
  9  1  1  0  0  0
  8  4  1  0  0  0
 29 25  1  0  0  0
 38 30  1  0  0  0
 37 33  1  0  0  0
  5 10  1  0  0  0
 21 24  1  0  0  0
M  END
> <minimizedAffinity>
-7.66180

> <CNNscore>
0.1088182554

> <CNNaffinity>
6.0033607483

> <CNN_VS>
0.6532752514

> <CNNaffinity_variance>
0.2773405910

$$$$
[H]c1sc(-c2c([H])c([H])c3c(c2[H])C([H])([H])C([H])([H])O3)nc1C(=O)N([H])c1nc2c([H])c(C(=O)N3C([H])([H])C([H])([H])N(C([H])([H])C([H])([H])[H])C([H])([H])C3([H])[H])c([H])c([H])c2n1[H]


 38 43  0  0  0  0  0  0  0  0999 V2000
  -95.1666   25.9128   -6.1080 C   0  0  0  0  0  0  0  0  0  0  0  0
  -95.6872   26.7994   -7.0103 C   0  0  0  0  0  0  0  0  0  0  0  0
  -95.1392   28.0883   -7.1864 C   0  0  0  0  0  0  0  0  0  0  0  0
  -94.0539   28.4835   -6.4432 C   0  0  0  0  0  0  0  0  0  0  0  0
  -93.3212   29.6088   -6.3750 N   0  0  0  0  0  0  0  0  0  0  0  0
  -92.3394   29.4640   -5.4479 C   0  0  0  0  0  0  0  0  0  0  0  0
  -92.4945   28.2191   -4.9533 N   0  0  0  0  0  0  0  0  0  0  0  0
  -93.5334   27.5868   -5.5369 C   0  0  0  0  0  0  0  0  0  0  0  0
  -94.0451   26.3330   -5.3466 C   0  0  0  0  0  0  0  0  0  0  0  0
  -93.5065   30.4508   -6.9622 H   0  0  0  0  0  0  0  0  0  0  0  0
  -95.2255   20.9219   -7.6757 N   0  0  0  0  0  0  0  0  0  0  0  0
  -95.8156   21.9237   -8.4805 C   0  0  0  0  0  0  0  0  0  0  0  0
  -95.2895   23.3051   -7.9737 C   0  0  0  0  0  0  0  0  0  0  0  0
  -95.7243   23.4856   -6.6249 N   0  0  0  0  0  0  0  0  0  0  0  0
  -96.3167   22.2524   -5.9906 C   0  0  0  0  0  0  0  0  0  0  0  0
  -95.3865   21.1008   -6.2813 C   0  0  0  0  0  0  0  0  0  0  0  0
  -95.6707   24.6124   -5.8429 C   0  0  0  0  0  0  0  0  0  0  0  0
  -96.1780   24.4626   -4.6322 O   0  0  0  0  0  0  0  0  0  0  0  0
  -94.1379   18.9379   -8.4399 C   0  0  0  0  0  0  0  0  0  0  0  0
  -95.4603   19.5776   -8.1330 C   0  0  0  0  0  0  0  0  0  0  0  0
  -91.3768   30.4429   -5.1063 N   0  0  0  0  0  0  0  0  0  0  0  0
  -91.3687   30.9533   -3.7847 C   0  0  0  0  0  0  0  0  0  0  0  0
  -92.1871   30.5621   -2.9122 O   0  0  0  0  0  0  0  0  0  0  0  0
  -90.7057   30.7617   -5.8261 H   0  0  0  0  0  0  0  0  0  0  0  0
  -90.3507   31.9850   -3.4375 C   0  0  0  0  0  0  0  0  0  0  0  0
  -90.4230   33.2546   -3.9738 C   0  0  0  0  0  0  0  0  0  0  0  0
  -89.0597   34.0038   -3.2708 S   0  0  0  0  0  0  0  0  0  0  0  0
  -88.4892   32.6853   -2.3547 C   0  0  0  0  0  0  0  0  0  0  0  0
  -89.3683   31.7416   -2.6326 N   0  0  0  0  0  0  0  0  0  0  0  0
  -87.3227   32.5703   -1.4659 C   0  0  0  0  0  0  0  0  0  0  0  0
  -86.3814   33.5699   -1.4216 C   0  0  0  0  0  0  0  0  0  0  0  0
  -85.2854   33.4279   -0.5633 C   0  0  0  0  0  0  0  0  0  0  0  0
  -85.1421   32.3017    0.2333 C   0  0  0  0  0  0  0  0  0  0  0  0
  -84.1367   31.9707    1.1444 O   0  0  0  0  0  0  0  0  0  0  0  0
  -84.7100   31.0448    2.0466 C   0  0  0  0  0  0  0  0  0  0  0  0
  -85.6434   30.2665    1.1405 C   0  0  0  0  0  0  0  0  0  0  0  0
  -86.0943   31.3049    0.1797 C   0  0  0  0  0  0  0  0  0  0  0  0
  -87.1756   31.4477   -0.6689 C   0  0  0  0  0  0  0  0  0  0  0  0
 19 20  1  0  0  0
 20 11  1  0  0  0
 11 12  1  0  0  0
 12 13  1  0  0  0
 13 14  1  0  0  0
 14 15  1  0  0  0
 15 16  1  0  0  0
 14 17  1  0  0  0
 17 18  2  0  0  0
 17  1  1  0  0  0
  1  2  2  0  0  0
  2  3  1  0  0  0
  3  4  2  0  0  0
  4  5  1  0  0  0
  5  6  1  0  0  0
  6 21  1  0  0  0
 21 22  1  0  0  0
 22 23  2  0  0  0
 22 25  1  0  0  0
 25 26  2  0  0  0
 26 27  1  0  0  0
 27 28  1  0  0  0
 28 29  2  0  0  0
 28 30  1  0  0  0
 30 31  2  0  0  0
 31 32  1  0  0  0
 32 33  2  0  0  0
 33 34  1  0  0  0
 34 35  1  0  0  0
 35 36  1  0  0  0
 36 37  1  0  0  0
 37 38  2  0  0  0
  6  7  2  0  0  0
  7  8  1  0  0  0
  8  9  2  0  0  0
 16 11  1  0  0  0
  9  1  1  0  0  0
  8  4  1  0  0  0
 29 25  1  0  0  0
 38 30  1  0  0  0
 37 33  1  0  0  0
  5 10  1  0  0  0
 21 24  1  0  0  0
M  END
> <minimizedAffinity>
-8.36843

> <CNNscore>
0.0977261961

> <CNNaffinity>
5.7376623154

> <CNN_VS>
0.5607199073

> <CNNaffinity_variance>
0.0931328088

$$$$
[H]c1sc(-c2c([H])c([H])c3c(c2[H])C([H])([H])C([H])([H])O3)nc1C(=O)N([H])c1nc2c([H])c(C(=O)N3C([H])([H])C([H])([H])N(C([H])([H])C([H])([H])[H])C([H])([H])C3([H])[H])c([H])c([H])c2n1[H]


 38 43  0  0  0  0  0  0  0  0999 V2000
  -94.7650   25.3345   -6.3669 C   0  0  0  0  0  0  0  0  0  0  0  0
  -94.1402   26.4778   -6.7839 C   0  0  0  0  0  0  0  0  0  0  0  0
  -93.1268   27.0925   -6.0175 C   0  0  0  0  0  0  0  0  0  0  0  0
  -92.7412   26.5452   -4.8184 C   0  0  0  0  0  0  0  0  0  0  0  0
  -91.8362   26.8777   -3.8812 N   0  0  0  0  0  0  0  0  0  0  0  0
  -91.8654   25.9714   -2.8701 C   0  0  0  0  0  0  0  0  0  0  0  0
  -92.8134   25.0775   -3.2176 N   0  0  0  0  0  0  0  0  0  0  0  0
  -93.3728   25.3938   -4.4036 C   0  0  0  0  0  0  0  0  0  0  0  0
  -94.3573   24.7786   -5.1263 C   0  0  0  0  0  0  0  0  0  0  0  0
  -91.2184   27.7152   -3.9516 H   0  0  0  0  0  0  0  0  0  0  0  0
  -96.2318   20.8824   -8.6900 N   0  0  0  0  0  0  0  0  0  0  0  0
  -95.1986   21.6671   -9.2522 C   0  0  0  0  0  0  0  0  0  0  0  0
  -94.7186   22.6700   -8.1541 C   0  0  0  0  0  0  0  0  0  0  0  0
  -95.8118   23.5254   -7.8164 N   0  0  0  0  0  0  0  0  0  0  0  0
  -97.1408   23.0912   -8.3813 C   0  0  0  0  0  0  0  0  0  0  0  0
  -97.2913   21.6157   -8.1052 C   0  0  0  0  0  0  0  0  0  0  0  0
  -95.8123   24.6676   -7.0551 C   0  0  0  0  0  0  0  0  0  0  0  0
  -96.9929   25.2503   -6.9439 O   0  0  0  0  0  0  0  0  0  0  0  0
  -95.8281   19.7709  -10.7648 C   0  0  0  0  0  0  0  0  0  0  0  0
  -96.6556   19.7804   -9.5129 C   0  0  0  0  0  0  0  0  0  0  0  0
  -91.0515   25.9998   -1.7134 N   0  0  0  0  0  0  0  0  0  0  0  0
  -89.8239   26.7051   -1.7656 C   0  0  0  0  0  0  0  0  0  0  0  0
  -89.4408   27.3037   -2.8043 O   0  0  0  0  0  0  0  0  0  0  0  0
  -91.3698   25.5067   -0.8615 H   0  0  0  0  0  0  0  0  0  0  0  0
  -88.9746   26.7265   -0.5410 C   0  0  0  0  0  0  0  0  0  0  0  0
  -89.2619   25.9051    0.5302 C   0  0  0  0  0  0  0  0  0  0  0  0
  -88.0204   26.3204    1.6256 S   0  0  0  0  0  0  0  0  0  0  0  0
  -87.2248   27.4906    0.6765 C   0  0  0  0  0  0  0  0  0  0  0  0
  -87.9476   27.5040   -0.4271 N   0  0  0  0  0  0  0  0  0  0  0  0
  -86.0353   28.3075    0.9621 C   0  0  0  0  0  0  0  0  0  0  0  0
  -85.1345   27.9124    1.9211 C   0  0  0  0  0  0  0  0  0  0  0  0
  -84.0134   28.7133    2.1654 C   0  0  0  0  0  0  0  0  0  0  0  0
  -83.8052   29.8875    1.4574 C   0  0  0  0  0  0  0  0  0  0  0  0
  -82.7658   30.8158    1.5475 O   0  0  0  0  0  0  0  0  0  0  0  0
  -82.7293   31.4902    0.3050 C   0  0  0  0  0  0  0  0  0  0  0  0
  -84.1996   31.5493   -0.0589 C   0  0  0  0  0  0  0  0  0  0  0  0
  -84.7171   30.2733    0.4968 C   0  0  0  0  0  0  0  0  0  0  0  0
  -85.8235   29.4806    0.2576 C   0  0  0  0  0  0  0  0  0  0  0  0
 19 20  1  0  0  0
 20 11  1  0  0  0
 11 12  1  0  0  0
 12 13  1  0  0  0
 13 14  1  0  0  0
 14 15  1  0  0  0
 15 16  1  0  0  0
 14 17  1  0  0  0
 17 18  2  0  0  0
 17  1  1  0  0  0
  1  2  2  0  0  0
  2  3  1  0  0  0
  3  4  2  0  0  0
  4  5  1  0  0  0
  5  6  1  0  0  0
  6 21  1  0  0  0
 21 22  1  0  0  0
 22 23  2  0  0  0
 22 25  1  0  0  0
 25 26  2  0  0  0
 26 27  1  0  0  0
 27 28  1  0  0  0
 28 29  2  0  0  0
 28 30  1  0  0  0
 30 31  2  0  0  0
 31 32  1  0  0  0
 32 33  2  0  0  0
 33 34  1  0  0  0
 34 35  1  0  0  0
 35 36  1  0  0  0
 36 37  1  0  0  0
 37 38  2  0  0  0
  6  7  2  0  0  0
  7  8  1  0  0  0
  8  9  2  0  0  0
 16 11  1  0  0  0
  9  1  1  0  0  0
  8  4  1  0  0  0
 29 25  1  0  0  0
 38 30  1  0  0  0
 37 33  1  0  0  0
  5 10  1  0  0  0
 21 24  1  0  0  0
M  END
> <minimizedAffinity>
-8.49581

> <CNNscore>
0.0785800293

> <CNNaffinity>
5.6699657440

> <CNN_VS>
0.4455460608

> <CNNaffinity_variance>
0.1149181128

$$$$
[H]c1sc(-c2c([H])c([H])c3c(c2[H])C([H])([H])C([H])([H])O3)nc1C(=O)N([H])c1nc2c([H])c(C(=O)N3C([H])([H])C([H])([H])N(C([H])([H])C([H])([H])[H])C([H])([H])C3([H])[H])c([H])c([H])c2n1[H]


 38 43  0  0  0  0  0  0  0  0999 V2000
  -94.1087   23.8054   -4.2617 C   0  0  0  0  0  0  0  0  0  0  0  0
  -93.8091   22.6895   -3.5292 C   0  0  0  0  0  0  0  0  0  0  0  0
  -92.7120   22.6558   -2.6418 C   0  0  0  0  0  0  0  0  0  0  0  0
  -91.9109   23.7614   -2.4934 C   0  0  0  0  0  0  0  0  0  0  0  0
  -90.8237   24.0417   -1.7536 N   0  0  0  0  0  0  0  0  0  0  0  0
  -90.4181   25.3153   -1.9945 C   0  0  0  0  0  0  0  0  0  0  0  0
  -91.2886   25.8029   -2.9017 N   0  0  0  0  0  0  0  0  0  0  0  0
  -92.2173   24.8822   -3.2325 C   0  0  0  0  0  0  0  0  0  0  0  0
  -93.2735   24.9413   -4.0991 C   0  0  0  0  0  0  0  0  0  0  0  0
  -90.3822   23.3586   -1.1005 H   0  0  0  0  0  0  0  0  0  0  0  0
  -96.9584   27.1048   -7.1534 N   0  0  0  0  0  0  0  0  0  0  0  0
  -97.0514   27.1384   -5.7429 C   0  0  0  0  0  0  0  0  0  0  0  0
  -95.8220   26.3613   -5.1715 C   0  0  0  0  0  0  0  0  0  0  0  0
  -95.9070   25.0025   -5.6043 N   0  0  0  0  0  0  0  0  0  0  0  0
  -96.9560   24.7481   -6.6572 C   0  0  0  0  0  0  0  0  0  0  0  0
  -96.8067   25.8144   -7.7139 C   0  0  0  0  0  0  0  0  0  0  0  0
  -95.1696   23.9183   -5.1982 C   0  0  0  0  0  0  0  0  0  0  0  0
  -95.5059   22.7798   -5.7782 O   0  0  0  0  0  0  0  0  0  0  0  0
  -98.4130   28.9777   -6.8705 C   0  0  0  0  0  0  0  0  0  0  0  0
  -97.9158   27.9381   -7.8320 C   0  0  0  0  0  0  0  0  0  0  0  0
  -89.3078   25.9546   -1.3946 N   0  0  0  0  0  0  0  0  0  0  0  0
  -89.3415   26.2046   -0.0004 C   0  0  0  0  0  0  0  0  0  0  0  0
  -90.3238   25.8750    0.7140 O   0  0  0  0  0  0  0  0  0  0  0  0
  -88.5023   26.2239   -1.9851 H   0  0  0  0  0  0  0  0  0  0  0  0
  -88.1665   26.8800    0.6196 C   0  0  0  0  0  0  0  0  0  0  0  0
  -87.5277   26.3235    1.7091 C   0  0  0  0  0  0  0  0  0  0  0  0
  -86.2962   27.4671    2.0078 S   0  0  0  0  0  0  0  0  0  0  0  0
  -86.6584   28.5639    0.7552 C   0  0  0  0  0  0  0  0  0  0  0  0
  -87.7003   28.0008    0.1738 N   0  0  0  0  0  0  0  0  0  0  0  0
  -86.0117   29.8287    0.3733 C   0  0  0  0  0  0  0  0  0  0  0  0
  -86.7590   30.8700   -0.1212 C   0  0  0  0  0  0  0  0  0  0  0  0
  -86.1108   32.0591   -0.4730 C   0  0  0  0  0  0  0  0  0  0  0  0
  -84.7382   32.1951   -0.3290 C   0  0  0  0  0  0  0  0  0  0  0  0
  -83.9103   33.2823   -0.6173 O   0  0  0  0  0  0  0  0  0  0  0  0
  -82.7551   33.1225    0.1826 C   0  0  0  0  0  0  0  0  0  0  0  0
  -82.5918   31.6155    0.1937 C   0  0  0  0  0  0  0  0  0  0  0  0
  -83.9989   31.1421    0.1688 C   0  0  0  0  0  0  0  0  0  0  0  0
  -84.6415   29.9688    0.5154 C   0  0  0  0  0  0  0  0  0  0  0  0
 19 20  1  0  0  0
 20 11  1  0  0  0
 11 12  1  0  0  0
 12 13  1  0  0  0
 13 14  1  0  0  0
 14 15  1  0  0  0
 15 16  1  0  0  0
 14 17  1  0  0  0
 17 18  2  0  0  0
 17  1  1  0  0  0
  1  2  2  0  0  0
  2  3  1  0  0  0
  3  4  2  0  0  0
  4  5  1  0  0  0
  5  6  1  0  0  0
  6 21  1  0  0  0
 21 22  1  0  0  0
 22 23  2  0  0  0
 22 25  1  0  0  0
 25 26  2  0  0  0
 26 27  1  0  0  0
 27 28  1  0  0  0
 28 29  2  0  0  0
 28 30  1  0  0  0
 30 31  2  0  0  0
 31 32  1  0  0  0
 32 33  2  0  0  0
 33 34  1  0  0  0
 34 35  1  0  0  0
 35 36  1  0  0  0
 36 37  1  0  0  0
 37 38  2  0  0  0
  6  7  2  0  0  0
  7  8  1  0  0  0
  8  9  2  0  0  0
 16 11  1  0  0  0
  9  1  1  0  0  0
  8  4  1  0  0  0
 29 25  1  0  0  0
 38 30  1  0  0  0
 37 33  1  0  0  0
  5 10  1  0  0  0
 21 24  1  0  0  0
M  END
> <minimizedAffinity>
-7.67149

> <CNNscore>
0.0784271136

> <CNNaffinity>
5.7317795753

> <CNN_VS>
0.4495269358

> <CNNaffinity_variance>
0.2238734066

$$$$
[H]c1sc(-c2c([H])c([H])c3c(c2[H])C([H])([H])C([H])([H])O3)nc1C(=O)N([H])c1nc2c([H])c(C(=O)N3C([H])([H])C([H])([H])N(C([H])([H])C([H])([H])[H])C([H])([H])C3([H])[H])c([H])c([H])c2n1[H]


 38 43  0  0  0  0  0  0  0  0999 V2000
  -86.5746   30.0706    0.2284 C   0  0  0  0  0  0  0  0  0  0  0  0
  -85.8187   31.1030    0.7123 C   0  0  0  0  0  0  0  0  0  0  0  0
  -85.6626   32.3091   -0.0043 C   0  0  0  0  0  0  0  0  0  0  0  0
  -86.2774   32.4725   -1.2215 C   0  0  0  0  0  0  0  0  0  0  0  0
  -86.3246   33.4676   -2.1244 N   0  0  0  0  0  0  0  0  0  0  0  0
  -87.0960   33.0969   -3.1790 C   0  0  0  0  0  0  0  0  0  0  0  0
  -87.5173   31.8481   -2.8932 N   0  0  0  0  0  0  0  0  0  0  0  0
  -87.0377   31.4303   -1.7036 C   0  0  0  0  0  0  0  0  0  0  0  0
  -87.2050   30.2520   -1.0301 C   0  0  0  0  0  0  0  0  0  0  0  0
  -85.8301   34.3778   -2.0017 H   0  0  0  0  0  0  0  0  0  0  0  0
  -89.9255   26.1496    1.1036 N   0  0  0  0  0  0  0  0  0  0  0  0
  -90.1788   27.4312    1.6447 C   0  0  0  0  0  0  0  0  0  0  0  0
  -89.2628   28.4492    0.8920 C   0  0  0  0  0  0  0  0  0  0  0  0
  -87.9003   28.1045    1.1484 N   0  0  0  0  0  0  0  0  0  0  0  0
  -87.7113   26.7684    1.8213 C   0  0  0  0  0  0  0  0  0  0  0  0
  -88.5640   25.7647    1.0854 C   0  0  0  0  0  0  0  0  0  0  0  0
  -86.7608   28.8149    0.8637 C   0  0  0  0  0  0  0  0  0  0  0  0
  -85.6408   28.2296    1.2494 O   0  0  0  0  0  0  0  0  0  0  0  0
  -90.6430   24.9466    3.0379 C   0  0  0  0  0  0  0  0  0  0  0  0
  -90.8265   25.1238    1.5590 C   0  0  0  0  0  0  0  0  0  0  0  0
  -87.3721   33.8896   -4.3178 N   0  0  0  0  0  0  0  0  0  0  0  0
  -87.8015   35.2259   -4.1255 C   0  0  0  0  0  0  0  0  0  0  0  0
  -87.9418   35.7242   -2.9782 O   0  0  0  0  0  0  0  0  0  0  0  0
  -87.2555   33.4766   -5.2590 H   0  0  0  0  0  0  0  0  0  0  0  0
  -88.0906   36.0504   -5.3329 C   0  0  0  0  0  0  0  0  0  0  0  0
  -87.4127   37.2312   -5.5587 C   0  0  0  0  0  0  0  0  0  0  0  0
  -88.1099   37.7535   -7.0267 S   0  0  0  0  0  0  0  0  0  0  0  0
  -89.2006   36.4659   -7.2625 C   0  0  0  0  0  0  0  0  0  0  0  0
  -88.9764   35.7040   -6.2090 N   0  0  0  0  0  0  0  0  0  0  0  0
  -90.1672   36.2156   -8.3427 C   0  0  0  0  0  0  0  0  0  0  0  0
  -90.4121   37.1770   -9.2929 C   0  0  0  0  0  0  0  0  0  0  0  0
  -91.3369   36.9041  -10.3070 C   0  0  0  0  0  0  0  0  0  0  0  0
  -92.0003   35.6874  -10.3615 C   0  0  0  0  0  0  0  0  0  0  0  0
  -92.9469   35.2232  -11.2775 O   0  0  0  0  0  0  0  0  0  0  0  0
  -92.8932   33.8112  -11.2201 C   0  0  0  0  0  0  0  0  0  0  0  0
  -92.6056   33.5714   -9.7512 C   0  0  0  0  0  0  0  0  0  0  0  0
  -91.7455   34.7301   -9.4014 C   0  0  0  0  0  0  0  0  0  0  0  0
  -90.8319   35.0022   -8.4010 C   0  0  0  0  0  0  0  0  0  0  0  0
 19 20  1  0  0  0
 20 11  1  0  0  0
 11 12  1  0  0  0
 12 13  1  0  0  0
 13 14  1  0  0  0
 14 15  1  0  0  0
 15 16  1  0  0  0
 14 17  1  0  0  0
 17 18  2  0  0  0
 17  1  1  0  0  0
  1  2  2  0  0  0
  2  3  1  0  0  0
  3  4  2  0  0  0
  4  5  1  0  0  0
  5  6  1  0  0  0
  6 21  1  0  0  0
 21 22  1  0  0  0
 22 23  2  0  0  0
 22 25  1  0  0  0
 25 26  2  0  0  0
 26 27  1  0  0  0
 27 28  1  0  0  0
 28 29  2  0  0  0
 28 30  1  0  0  0
 30 31  2  0  0  0
 31 32  1  0  0  0
 32 33  2  0  0  0
 33 34  1  0  0  0
 34 35  1  0  0  0
 35 36  1  0  0  0
 36 37  1  0  0  0
 37 38  2  0  0  0
  6  7  2  0  0  0
  7  8  1  0  0  0
  8  9  2  0  0  0
 16 11  1  0  0  0
  9  1  1  0  0  0
  8  4  1  0  0  0
 29 25  1  0  0  0
 38 30  1  0  0  0
 37 33  1  0  0  0
  5 10  1  0  0  0
 21 24  1  0  0  0
M  END
> <minimizedAffinity>
-8.49205

> <CNNscore>
0.0756834373

> <CNNaffinity>
5.9361176491

> <CNN_VS>
0.4492657781

> <CNNaffinity_variance>
0.0610322058

$$$$
[H]c1sc(-c2c([H])c([H])c3c(c2[H])C([H])([H])C([H])([H])O3)nc1C(=O)N([H])c1nc2c([H])c(C(=O)N3C([H])([H])C([H])([H])N(C([H])([H])C([H])([H])[H])C([H])([H])C3([H])[H])c([H])c([H])c2n1[H]


 38 43  0  0  0  0  0  0  0  0999 V2000
  -94.7926   25.8479   -6.6347 C   0  0  0  0  0  0  0  0  0  0  0  0
  -95.5354   26.8711   -7.1569 C   0  0  0  0  0  0  0  0  0  0  0  0
  -95.1387   28.2194   -7.0259 C   0  0  0  0  0  0  0  0  0  0  0  0
  -93.9793   28.5355   -6.3610 C   0  0  0  0  0  0  0  0  0  0  0  0
  -93.3451   29.6854   -6.0725 N   0  0  0  0  0  0  0  0  0  0  0  0
  -92.2090   29.4231   -5.3760 C   0  0  0  0  0  0  0  0  0  0  0  0
  -92.1690   28.0812   -5.2484 N   0  0  0  0  0  0  0  0  0  0  0  0
  -93.2349   27.5017   -5.8379 C   0  0  0  0  0  0  0  0  0  0  0  0
  -93.5966   26.1877   -5.9503 C   0  0  0  0  0  0  0  0  0  0  0  0
  -93.7006   30.6239   -6.3570 H   0  0  0  0  0  0  0  0  0  0  0  0
  -97.0048   21.8546   -4.0795 N   0  0  0  0  0  0  0  0  0  0  0  0
  -95.8043   22.4254   -3.5973 C   0  0  0  0  0  0  0  0  0  0  0  0
  -95.6252   23.8091   -4.3011 C   0  0  0  0  0  0  0  0  0  0  0  0
  -95.4949   23.5865   -5.7062 N   0  0  0  0  0  0  0  0  0  0  0  0
  -95.8120   22.1796   -6.1465 C   0  0  0  0  0  0  0  0  0  0  0  0
  -97.1094   21.7795   -5.4887 C   0  0  0  0  0  0  0  0  0  0  0  0
  -95.1298   24.4701   -6.6911 C   0  0  0  0  0  0  0  0  0  0  0  0
  -95.0817   23.9481   -7.9039 O   0  0  0  0  0  0  0  0  0  0  0  0
  -96.2587   19.7019   -3.3636 C   0  0  0  0  0  0  0  0  0  0  0  0
  -97.4137   20.6598   -3.3892 C   0  0  0  0  0  0  0  0  0  0  0  0
  -91.2895   30.3889   -4.9039 N   0  0  0  0  0  0  0  0  0  0  0  0
  -91.0286   30.4534   -3.5129 C   0  0  0  0  0  0  0  0  0  0  0  0
  -91.5870   29.6802   -2.6917 O   0  0  0  0  0  0  0  0  0  0  0  0
  -90.8324   31.0226   -5.5819 H   0  0  0  0  0  0  0  0  0  0  0  0
  -90.0590   31.4761   -3.0277 C   0  0  0  0  0  0  0  0  0  0  0  0
  -90.2033   32.8042   -3.3743 C   0  0  0  0  0  0  0  0  0  0  0  0
  -88.8693   33.5143   -2.5805 S   0  0  0  0  0  0  0  0  0  0  0  0
  -88.2193   32.1092   -1.8690 C   0  0  0  0  0  0  0  0  0  0  0  0
  -89.0537   31.1709   -2.2738 N   0  0  0  0  0  0  0  0  0  0  0  0
  -87.0355   31.9285   -1.0148 C   0  0  0  0  0  0  0  0  0  0  0  0
  -87.0284   30.9703   -0.0303 C   0  0  0  0  0  0  0  0  0  0  0  0
  -85.8846   30.8250    0.7625 C   0  0  0  0  0  0  0  0  0  0  0  0
  -84.7717   31.6290    0.5664 C   0  0  0  0  0  0  0  0  0  0  0  0
  -83.5480   31.6449    1.2394 O   0  0  0  0  0  0  0  0  0  0  0  0
  -82.6146   32.2243    0.3489 C   0  0  0  0  0  0  0  0  0  0  0  0
  -83.4663   33.2551   -0.3653 C   0  0  0  0  0  0  0  0  0  0  0  0
  -84.7912   32.5875   -0.4255 C   0  0  0  0  0  0  0  0  0  0  0  0
  -85.9221   32.7290   -1.2070 C   0  0  0  0  0  0  0  0  0  0  0  0
 19 20  1  0  0  0
 20 11  1  0  0  0
 11 12  1  0  0  0
 12 13  1  0  0  0
 13 14  1  0  0  0
 14 15  1  0  0  0
 15 16  1  0  0  0
 14 17  1  0  0  0
 17 18  2  0  0  0
 17  1  1  0  0  0
  1  2  2  0  0  0
  2  3  1  0  0  0
  3  4  2  0  0  0
  4  5  1  0  0  0
  5  6  1  0  0  0
  6 21  1  0  0  0
 21 22  1  0  0  0
 22 23  2  0  0  0
 22 25  1  0  0  0
 25 26  2  0  0  0
 26 27  1  0  0  0
 27 28  1  0  0  0
 28 29  2  0  0  0
 28 30  1  0  0  0
 30 31  2  0  0  0
 31 32  1  0  0  0
 32 33  2  0  0  0
 33 34  1  0  0  0
 34 35  1  0  0  0
 35 36  1  0  0  0
 36 37  1  0  0  0
 37 38  2  0  0  0
  6  7  2  0  0  0
  7  8  1  0  0  0
  8  9  2  0  0  0
 16 11  1  0  0  0
  9  1  1  0  0  0
  8  4  1  0  0  0
 29 25  1  0  0  0
 38 30  1  0  0  0
 37 33  1  0  0  0
  5 10  1  0  0  0
 21 24  1  0  0  0
M  END
> <minimizedAffinity>
-7.74565

> <CNNscore>
0.0667201206

> <CNNaffinity>
5.6176066399

> <CNN_VS>
0.3748073876

> <CNNaffinity_variance>
0.1281999648

$$$$
[H]c1sc(-c2c([H])c([H])c3c(c2[H])C([H])([H])C([H])([H])O3)nc1C(=O)N([H])c1nc2c([H])c(C(=O)N3C([H])([H])C([H])([H])N(C([H])([H])C([H])([H])[H])C([H])([H])C3([H])[H])c([H])c([H])c2n1[H]


 38 43  0  0  0  0  0  0  0  0999 V2000
  -92.8295   22.2979   -0.8672 C   0  0  0  0  0  0  0  0  0  0  0  0
  -92.9154   22.5762    0.4693 C   0  0  0  0  0  0  0  0  0  0  0  0
  -92.3898   23.7668    1.0157 C   0  0  0  0  0  0  0  0  0  0  0  0
  -91.7720   24.6848    0.2021 C   0  0  0  0  0  0  0  0  0  0  0  0
  -91.1857   25.8774    0.4066 N   0  0  0  0  0  0  0  0  0  0  0  0
  -90.7249   26.3725   -0.7712 C   0  0  0  0  0  0  0  0  0  0  0  0
  -91.0470   25.4481   -1.6988 N   0  0  0  0  0  0  0  0  0  0  0  0
  -91.6889   24.4000   -1.1427 C   0  0  0  0  0  0  0  0  0  0  0  0
  -92.1892   23.2546   -1.6973 C   0  0  0  0  0  0  0  0  0  0  0  0
  -91.1128   26.3278    1.3446 H   0  0  0  0  0  0  0  0  0  0  0  0
  -94.5800   20.2092   -5.3330 N   0  0  0  0  0  0  0  0  0  0  0  0
  -95.3479   21.1877   -4.6604 C   0  0  0  0  0  0  0  0  0  0  0  0
  -94.4099   21.8962   -3.6307 C   0  0  0  0  0  0  0  0  0  0  0  0
  -93.9700   20.9252   -2.6796 N   0  0  0  0  0  0  0  0  0  0  0  0
  -94.2926   19.4994   -3.0495 C   0  0  0  0  0  0  0  0  0  0  0  0
  -93.8932   19.3028   -4.4910 C   0  0  0  0  0  0  0  0  0  0  0  0
  -93.3003   21.1157   -1.4966 C   0  0  0  0  0  0  0  0  0  0  0  0
  -93.0511   20.0060   -0.8243 O   0  0  0  0  0  0  0  0  0  0  0  0
  -94.3290   19.6236   -7.6345 C   0  0  0  0  0  0  0  0  0  0  0  0
  -95.2484   19.5932   -6.4488 C   0  0  0  0  0  0  0  0  0  0  0  0
  -90.0534   27.6060   -0.9411 N   0  0  0  0  0  0  0  0  0  0  0  0
  -90.8077   28.7404   -1.3300 C   0  0  0  0  0  0  0  0  0  0  0  0
  -92.0496   28.6820   -1.5258 O   0  0  0  0  0  0  0  0  0  0  0  0
  -89.0327   27.6500   -0.7790 H   0  0  0  0  0  0  0  0  0  0  0  0
  -90.0886   30.0338   -1.5070 C   0  0  0  0  0  0  0  0  0  0  0  0
  -90.7050   31.1042   -2.1228 C   0  0  0  0  0  0  0  0  0  0  0  0
  -89.4766   32.2882   -2.0666 S   0  0  0  0  0  0  0  0  0  0  0  0
  -88.2755   31.3713   -1.2794 C   0  0  0  0  0  0  0  0  0  0  0  0
  -88.8738   30.2091   -1.1001 N   0  0  0  0  0  0  0  0  0  0  0  0
  -86.9065   31.7300   -0.8782 C   0  0  0  0  0  0  0  0  0  0  0  0
  -86.3963   32.9696   -1.1786 C   0  0  0  0  0  0  0  0  0  0  0  0
  -85.0907   33.2773   -0.7802 C   0  0  0  0  0  0  0  0  0  0  0  0
  -84.3163   32.3543   -0.0934 C   0  0  0  0  0  0  0  0  0  0  0  0
  -83.0094   32.4621    0.3870 O   0  0  0  0  0  0  0  0  0  0  0  0
  -82.8941   31.5188    1.4343 C   0  0  0  0  0  0  0  0  0  0  0  0
  -83.7682   30.3876    0.9301 C   0  0  0  0  0  0  0  0  0  0  0  0
  -84.8401   31.1129    0.2025 C   0  0  0  0  0  0  0  0  0  0  0  0
  -86.1297   30.8116   -0.1923 C   0  0  0  0  0  0  0  0  0  0  0  0
 19 20  1  0  0  0
 20 11  1  0  0  0
 11 12  1  0  0  0
 12 13  1  0  0  0
 13 14  1  0  0  0
 14 15  1  0  0  0
 15 16  1  0  0  0
 14 17  1  0  0  0
 17 18  2  0  0  0
 17  1  1  0  0  0
  1  2  2  0  0  0
  2  3  1  0  0  0
  3  4  2  0  0  0
  4  5  1  0  0  0
  5  6  1  0  0  0
  6 21  1  0  0  0
 21 22  1  0  0  0
 22 23  2  0  0  0
 22 25  1  0  0  0
 25 26  2  0  0  0
 26 27  1  0  0  0
 27 28  1  0  0  0
 28 29  2  0  0  0
 28 30  1  0  0  0
 30 31  2  0  0  0
 31 32  1  0  0  0
 32 33  2  0  0  0
 33 34  1  0  0  0
 34 35  1  0  0  0
 35 36  1  0  0  0
 36 37  1  0  0  0
 37 38  2  0  0  0
  6  7  2  0  0  0
  7  8  1  0  0  0
  8  9  2  0  0  0
 16 11  1  0  0  0
  9  1  1  0  0  0
  8  4  1  0  0  0
 29 25  1  0  0  0
 38 30  1  0  0  0
 37 33  1  0  0  0
  5 10  1  0  0  0
 21 24  1  0  0  0
M  END
> <minimizedAffinity>
-7.80622

> <CNNscore>
0.0448822528

> <CNNaffinity>
5.9452204704

> <CNN_VS>
0.2668348849

> <CNNaffinity_variance>
0.3449209332

$$$$
[H]c1sc(-c2c([H])c([H])c3c(c2[H])C([H])([H])C([H])([H])O3)nc1C(=O)N([H])c1nc2c([H])c(C(=O)N3C([H])([H])C([H])([H])N(C([H])([H])C([H])([H])[H])C([H])([H])C3([H])[H])c([H])c([H])c2n1[H]


 38 43  0  0  0  0  0  0  0  0999 V2000
  -87.5917   28.3909    0.2595 C   0  0  0  0  0  0  0  0  0  0  0  0
  -86.4652   28.9686    0.7776 C   0  0  0  0  0  0  0  0  0  0  0  0
  -86.0212   30.2404    0.3558 C   0  0  0  0  0  0  0  0  0  0  0  0
  -86.7239   30.9345   -0.5985 C   0  0  0  0  0  0  0  0  0  0  0  0
  -86.5689   32.1288   -1.1964 N   0  0  0  0  0  0  0  0  0  0  0  0
  -87.5731   32.3316   -2.0880 C   0  0  0  0  0  0  0  0  0  0  0  0
  -88.3441   31.2274   -2.0166 N   0  0  0  0  0  0  0  0  0  0  0  0
  -87.8575   30.3486   -1.1163 C   0  0  0  0  0  0  0  0  0  0  0  0
  -88.3091   29.1183   -0.7256 C   0  0  0  0  0  0  0  0  0  0  0  0
  -85.7821   32.7795   -0.9832 H   0  0  0  0  0  0  0  0  0  0  0  0
  -91.3950   24.8981   -0.5802 N   0  0  0  0  0  0  0  0  0  0  0  0
  -91.6912   26.1297    0.0481 C   0  0  0  0  0  0  0  0  0  0  0  0
  -90.4878   27.0921   -0.2119 C   0  0  0  0  0  0  0  0  0  0  0  0
  -89.3239   26.5336    0.4000 N   0  0  0  0  0  0  0  0  0  0  0  0
  -89.4924   25.1143    0.8806 C   0  0  0  0  0  0  0  0  0  0  0  0
  -90.1455   24.3325   -0.2322 C   0  0  0  0  0  0  0  0  0  0  0  0
  -88.0930   27.1072    0.6003 C   0  0  0  0  0  0  0  0  0  0  0  0
  -87.2220   26.3306    1.2199 O   0  0  0  0  0  0  0  0  0  0  0  0
  -91.9736   22.6336   -1.0705 C   0  0  0  0  0  0  0  0  0  0  0  0
  -92.4874   23.9611   -0.5952 C   0  0  0  0  0  0  0  0  0  0  0  0
  -87.7357   33.4785   -2.9003 N   0  0  0  0  0  0  0  0  0  0  0  0
  -88.1180   33.3023   -4.2530 C   0  0  0  0  0  0  0  0  0  0  0  0
  -88.3168   32.1624   -4.7482 O   0  0  0  0  0  0  0  0  0  0  0  0
  -87.5716   34.4136   -2.4896 H   0  0  0  0  0  0  0  0  0  0  0  0
  -88.2847   34.5181   -5.0989 C   0  0  0  0  0  0  0  0  0  0  0  0
  -89.4467   34.7249   -5.8141 C   0  0  0  0  0  0  0  0  0  0  0  0
  -89.1176   36.2128   -6.5835 S   0  0  0  0  0  0  0  0  0  0  0  0
  -87.5532   36.4792   -5.9632 C   0  0  0  0  0  0  0  0  0  0  0  0
  -87.3628   35.4191   -5.2011 N   0  0  0  0  0  0  0  0  0  0  0  0
  -86.6109   37.5866   -6.1854 C   0  0  0  0  0  0  0  0  0  0  0  0
  -85.6215   37.8518   -5.2699 C   0  0  0  0  0  0  0  0  0  0  0  0
  -84.7418   38.9121   -5.5144 C   0  0  0  0  0  0  0  0  0  0  0  0
  -84.8574   39.6882   -6.6579 C   0  0  0  0  0  0  0  0  0  0  0  0
  -84.0922   40.7763   -7.0835 O   0  0  0  0  0  0  0  0  0  0  0  0
  -84.2538   40.8485   -8.4866 C   0  0  0  0  0  0  0  0  0  0  0  0
  -85.6956   40.4119   -8.6554 C   0  0  0  0  0  0  0  0  0  0  0  0
  -85.8550   39.4117   -7.5697 C   0  0  0  0  0  0  0  0  0  0  0  0
  -86.7226   38.3641   -7.3257 C   0  0  0  0  0  0  0  0  0  0  0  0
 19 20  1  0  0  0
 20 11  1  0  0  0
 11 12  1  0  0  0
 12 13  1  0  0  0
 13 14  1  0  0  0
 14 15  1  0  0  0
 15 16  1  0  0  0
 14 17  1  0  0  0
 17 18  2  0  0  0
 17  1  1  0  0  0
  1  2  2  0  0  0
  2  3  1  0  0  0
  3  4  2  0  0  0
  4  5  1  0  0  0
  5  6  1  0  0  0
  6 21  1  0  0  0
 21 22  1  0  0  0
 22 23  2  0  0  0
 22 25  1  0  0  0
 25 26  2  0  0  0
 26 27  1  0  0  0
 27 28  1  0  0  0
 28 29  2  0  0  0
 28 30  1  0  0  0
 30 31  2  0  0  0
 31 32  1  0  0  0
 32 33  2  0  0  0
 33 34  1  0  0  0
 34 35  1  0  0  0
 35 36  1  0  0  0
 36 37  1  0  0  0
 37 38  2  0  0  0
  6  7  2  0  0  0
  7  8  1  0  0  0
  8  9  2  0  0  0
 16 11  1  0  0  0
  9  1  1  0  0  0
  8  4  1  0  0  0
 29 25  1  0  0  0
 38 30  1  0  0  0
 37 33  1  0  0  0
  5 10  1  0  0  0
 21 24  1  0  0  0
M  END
> <minimizedAffinity>
-7.90105

> <CNNscore>
0.0443969518

> <CNNaffinity>
5.8375759125

> <CNN_VS>
0.2591705620

> <CNNaffinity_variance>
0.1490504742

$$$$
[H]c1nc(-c2c([H])n([H])c3c([H])nc([H])c([H])c23)c([H])c(N([H])c2c([H])c([H])c(N3C([H])([H])C([H])([H])N(C(=O)C([H])([H])[H])C([H])([H])C3([H])[H])c([H])c2OC([H])([H])[H])n1


 35 39  0  0  0  0  0  0  0  0999 V2000
  -86.3525   26.7681    1.9519 N   0  0  0  0  0  0  0  0  0  0  0  0
  -86.5580   26.0297    2.7084 H   0  0  0  0  0  0  0  0  0  0  0  0
  -88.5946   27.4674    1.3474 C   0  0  0  0  0  0  0  0  0  0  0  0
  -89.6261   27.6562    0.4616 C   0  0  0  0  0  0  0  0  0  0  0  0
  -89.4921   27.3172   -0.8608 C   0  0  0  0  0  0  0  0  0  0  0  0
  -88.2884   26.7834   -1.2593 C   0  0  0  0  0  0  0  0  0  0  0  0
  -87.2430   26.5932   -0.3560 C   0  0  0  0  0  0  0  0  0  0  0  0
  -87.3463   26.9215    0.9688 C   0  0  0  0  0  0  0  0  0  0  0  0
  -90.5198   27.4832   -1.8283 N   0  0  0  0  0  0  0  0  0  0  0  0
  -91.5041   26.4828   -2.1628 C   0  0  0  0  0  0  0  0  0  0  0  0
  -91.6255   26.4543   -3.6942 C   0  0  0  0  0  0  0  0  0  0  0  0
  -92.2954   27.6851   -4.0317 N   0  0  0  0  0  0  0  0  0  0  0  0
  -91.9934   28.8516   -3.2729 C   0  0  0  0  0  0  0  0  0  0  0  0
  -90.6429   28.7301   -2.5635 C   0  0  0  0  0  0  0  0  0  0  0  0
  -93.2218   27.7172   -5.0870 C   0  0  0  0  0  0  0  0  0  0  0  0
  -93.5225   26.4873   -5.8660 C   0  0  0  0  0  0  0  0  0  0  0  0
  -93.8028   28.8144   -5.3697 O   0  0  0  0  0  0  0  0  0  0  0  0
  -89.6900   27.1254    3.4640 C   0  0  0  0  0  0  0  0  0  0  0  0
  -88.8017   27.8316    2.6602 O   0  0  0  0  0  0  0  0  0  0  0  0
  -85.1336   27.4714    2.0475 C   0  0  0  0  0  0  0  0  0  0  0  0
  -85.0267   28.7340    1.4228 C   0  0  0  0  0  0  0  0  0  0  0  0
  -83.8662   29.4599    1.4849 C   0  0  0  0  0  0  0  0  0  0  0  0
  -82.8360   28.9434    2.1521 N   0  0  0  0  0  0  0  0  0  0  0  0
  -82.8790   27.7490    2.7652 C   0  0  0  0  0  0  0  0  0  0  0  0
  -84.0314   27.0839    2.6742 N   0  0  0  0  0  0  0  0  0  0  0  0
  -83.7894   30.7736    0.8222 C   0  0  0  0  0  0  0  0  0  0  0  0
  -82.6498   31.5363    0.6993 C   0  0  0  0  0  0  0  0  0  0  0  0
  -82.9502   32.6870    0.0306 N   0  0  0  0  0  0  0  0  0  0  0  0
  -84.2518   32.6893   -0.2822 C   0  0  0  0  0  0  0  0  0  0  0  0
  -85.0652   33.5839   -0.9410 C   0  0  0  0  0  0  0  0  0  0  0  0
  -86.3681   33.3039   -1.1078 N   0  0  0  0  0  0  0  0  0  0  0  0
  -86.9131   32.1660   -0.6480 C   0  0  0  0  0  0  0  0  0  0  0  0
  -86.1329   31.2447    0.0167 C   0  0  0  0  0  0  0  0  0  0  0  0
  -84.7849   31.4910    0.2117 C   0  0  0  0  0  0  0  0  0  0  0  0
  -82.3043   33.4738   -0.2228 H   0  0  0  0  0  0  0  0  0  0  0  0
 18 19  1  0  0  0
 19  3  1  0  0  0
  3  4  2  0  0  0
  4  5  1  0  0  0
  5  6  2  0  0  0
  6  7  1  0  0  0
  7  8  2  0  0  0
  8  1  1  0  0  0
  1 20  1  0  0  0
 20 21  2  0  0  0
 21 22  1  0  0  0
 22 23  2  0  0  0
 23 24  1  0  0  0
 24 25  2  0  0  0
 22 26  1  0  0  0
 26 27  2  0  0  0
 27 28  1  0  0  0
 28 29  1  0  0  0
 29 30  2  0  0  0
 30 31  1  0  0  0
 31 32  2  0  0  0
 32 33  1  0  0  0
 33 34  2  0  0  0
  5  9  1  0  0  0
  9 10  1  0  0  0
 10 11  1  0  0  0
 11 12  1  0  0  0
 12 13  1  0  0  0
 13 14  1  0  0  0
 12 15  1  0  0  0
 15 16  1  0  0  0
 15 17  2  0  0  0
  8  3  1  0  0  0
 25 20  1  0  0  0
 34 26  1  0  0  0
 14  9  1  0  0  0
 34 29  1  0  0  0
  1  2  1  0  0  0
 28 35  1  0  0  0
M  END
> <minimizedAffinity>
-9.86565

> <CNNscore>
0.5925846696

> <CNNaffinity>
7.2957191467

> <CNN_VS>
4.3233313560

> <CNNaffinity_variance>
0.0703067482

$$$$
[H]c1nc(-c2c([H])n([H])c3c([H])nc([H])c([H])c23)c([H])c(N([H])c2c([H])c([H])c(N3C([H])([H])C([H])([H])N(C(=O)C([H])([H])[H])C([H])([H])C3([H])[H])c([H])c2OC([H])([H])[H])n1


 35 39  0  0  0  0  0  0  0  0999 V2000
  -86.8357   27.0430    1.5616 N   0  0  0  0  0  0  0  0  0  0  0  0
  -87.0964   26.1563    2.1144 H   0  0  0  0  0  0  0  0  0  0  0  0
  -88.5960   26.5727   -0.0389 C   0  0  0  0  0  0  0  0  0  0  0  0
  -89.5786   26.9344   -0.9266 C   0  0  0  0  0  0  0  0  0  0  0  0
  -89.8595   28.2549   -1.1693 C   0  0  0  0  0  0  0  0  0  0  0  0
  -89.1199   29.1954   -0.4902 C   0  0  0  0  0  0  0  0  0  0  0  0
  -88.1224   28.8235    0.4108 C   0  0  0  0  0  0  0  0  0  0  0  0
  -87.8192   27.5150    0.6740 C   0  0  0  0  0  0  0  0  0  0  0  0
  -90.8599   28.6973   -2.0766 N   0  0  0  0  0  0  0  0  0  0  0  0
  -91.2537   30.0732   -2.2601 C   0  0  0  0  0  0  0  0  0  0  0  0
  -92.7887   30.1063   -2.3166 C   0  0  0  0  0  0  0  0  0  0  0  0
  -93.1217   29.5082   -3.5851 N   0  0  0  0  0  0  0  0  0  0  0  0
  -92.3252   28.4249   -4.0538 C   0  0  0  0  0  0  0  0  0  0  0  0
  -91.5698   27.7431   -2.9109 C   0  0  0  0  0  0  0  0  0  0  0  0
  -94.2092   29.9937   -4.3298 C   0  0  0  0  0  0  0  0  0  0  0  0
  -95.0273   31.1262   -3.8217 C   0  0  0  0  0  0  0  0  0  0  0  0
  -94.4873   29.4516   -5.4478 O   0  0  0  0  0  0  0  0  0  0  0  0
  -89.4151   24.3124    0.0909 C   0  0  0  0  0  0  0  0  0  0  0  0
  -88.3697   25.2272    0.1542 O   0  0  0  0  0  0  0  0  0  0  0  0
  -85.5631   27.6032    1.7986 C   0  0  0  0  0  0  0  0  0  0  0  0
  -85.2513   28.8521    1.2166 C   0  0  0  0  0  0  0  0  0  0  0  0
  -84.0304   29.4418    1.4147 C   0  0  0  0  0  0  0  0  0  0  0  0
  -83.1401   28.8053    2.1734 N   0  0  0  0  0  0  0  0  0  0  0  0
  -83.3800   27.6170    2.7520 C   0  0  0  0  0  0  0  0  0  0  0  0
  -84.5831   27.0872    2.5273 N   0  0  0  0  0  0  0  0  0  0  0  0
  -83.7387   30.7452    0.7930 C   0  0  0  0  0  0  0  0  0  0  0  0
  -82.4987   31.3415    0.7416 C   0  0  0  0  0  0  0  0  0  0  0  0
  -82.6026   32.5372    0.0928 N   0  0  0  0  0  0  0  0  0  0  0  0
  -83.8747   32.7304   -0.2766 C   0  0  0  0  0  0  0  0  0  0  0  0
  -84.5224   33.7451   -0.9451 C   0  0  0  0  0  0  0  0  0  0  0  0
  -85.8423   33.6559   -1.1766 N   0  0  0  0  0  0  0  0  0  0  0  0
  -86.5628   32.5971   -0.7731 C   0  0  0  0  0  0  0  0  0  0  0  0
  -85.9520   31.5605   -0.1009 C   0  0  0  0  0  0  0  0  0  0  0  0
  -84.5935   31.6093    0.1598 C   0  0  0  0  0  0  0  0  0  0  0  0
  -81.8413   33.2299   -0.1101 H   0  0  0  0  0  0  0  0  0  0  0  0
 18 19  1  0  0  0
 19  3  1  0  0  0
  3  4  2  0  0  0
  4  5  1  0  0  0
  5  6  2  0  0  0
  6  7  1  0  0  0
  7  8  2  0  0  0
  8  1  1  0  0  0
  1 20  1  0  0  0
 20 21  2  0  0  0
 21 22  1  0  0  0
 22 23  2  0  0  0
 23 24  1  0  0  0
 24 25  2  0  0  0
 22 26  1  0  0  0
 26 27  2  0  0  0
 27 28  1  0  0  0
 28 29  1  0  0  0
 29 30  2  0  0  0
 30 31  1  0  0  0
 31 32  2  0  0  0
 32 33  1  0  0  0
 33 34  2  0  0  0
  5  9  1  0  0  0
  9 10  1  0  0  0
 10 11  1  0  0  0
 11 12  1  0  0  0
 12 13  1  0  0  0
 13 14  1  0  0  0
 12 15  1  0  0  0
 15 16  1  0  0  0
 15 17  2  0  0  0
  8  3  1  0  0  0
 25 20  1  0  0  0
 34 26  1  0  0  0
 14  9  1  0  0  0
 34 29  1  0  0  0
  1  2  1  0  0  0
 28 35  1  0  0  0
M  END
> <minimizedAffinity>
-9.03514

> <CNNscore>
0.4840447903

> <CNNaffinity>
7.3296256065

> <CNN_VS>
3.5478670597

> <CNNaffinity_variance>
0.0656295046

$$$$
[H]c1nc(-c2c([H])n([H])c3c([H])nc([H])c([H])c23)c([H])c(N([H])c2c([H])c([H])c(N3C([H])([H])C([H])([H])N(C(=O)C([H])([H])[H])C([H])([H])C3([H])[H])c([H])c2OC([H])([H])[H])n1


 35 39  0  0  0  0  0  0  0  0999 V2000
  -87.4493   26.0228    1.7446 N   0  0  0  0  0  0  0  0  0  0  0  0
  -87.4509   25.2588    2.5035 H   0  0  0  0  0  0  0  0  0  0  0  0
  -89.8304   26.1977    1.3186 C   0  0  0  0  0  0  0  0  0  0  0  0
  -90.9392   26.1722    0.5099 C   0  0  0  0  0  0  0  0  0  0  0  0
  -90.8269   25.9248   -0.8346 C   0  0  0  0  0  0  0  0  0  0  0  0
  -89.5645   25.7047   -1.3352 C   0  0  0  0  0  0  0  0  0  0  0  0
  -88.4405   25.7315   -0.5100 C   0  0  0  0  0  0  0  0  0  0  0  0
  -88.5205   25.9755    0.8345 C   0  0  0  0  0  0  0  0  0  0  0  0
  -91.9327   25.8813   -1.7263 N   0  0  0  0  0  0  0  0  0  0  0  0
  -91.8812   26.2534   -3.1193 C   0  0  0  0  0  0  0  0  0  0  0  0
  -93.1270   27.1038   -3.4122 C   0  0  0  0  0  0  0  0  0  0  0  0
  -94.2251   26.1710   -3.3725 N   0  0  0  0  0  0  0  0  0  0  0  0
  -94.1820   25.1133   -2.4200 C   0  0  0  0  0  0  0  0  0  0  0  0
  -93.2345   25.4340   -1.2620 C   0  0  0  0  0  0  0  0  0  0  0  0
  -95.3051   26.3151   -4.2588 C   0  0  0  0  0  0  0  0  0  0  0  0
  -95.3294   27.4267   -5.2456 C   0  0  0  0  0  0  0  0  0  0  0  0
  -96.2656   25.4808   -4.2076 O   0  0  0  0  0  0  0  0  0  0  0  0
  -90.3116   27.7366    3.1066 C   0  0  0  0  0  0  0  0  0  0  0  0
  -90.0202   26.4525    2.6595 O   0  0  0  0  0  0  0  0  0  0  0  0
  -86.3899   26.9539    1.7651 C   0  0  0  0  0  0  0  0  0  0  0  0
  -86.5713   28.2037    1.1319 C   0  0  0  0  0  0  0  0  0  0  0  0
  -85.5755   29.1450    1.1224 C   0  0  0  0  0  0  0  0  0  0  0  0
  -84.4265   28.8513    1.7280 N   0  0  0  0  0  0  0  0  0  0  0  0
  -84.1968   27.6807    2.3456 C   0  0  0  0  0  0  0  0  0  0  0  0
  -85.1984   26.8003    2.3256 N   0  0  0  0  0  0  0  0  0  0  0  0
  -85.7986   30.4383    0.4530 C   0  0  0  0  0  0  0  0  0  0  0  0
  -87.0177   30.9087    0.0191 C   0  0  0  0  0  0  0  0  0  0  0  0
  -86.8474   32.1361   -0.5520 N   0  0  0  0  0  0  0  0  0  0  0  0
  -85.5527   32.4721   -0.4992 C   0  0  0  0  0  0  0  0  0  0  0  0
  -84.8433   33.5750   -0.9191 C   0  0  0  0  0  0  0  0  0  0  0  0
  -83.5157   33.6292   -0.7231 N   0  0  0  0  0  0  0  0  0  0  0  0
  -82.8463   32.6314   -0.1237 C   0  0  0  0  0  0  0  0  0  0  0  0
  -83.5197   31.5102    0.3112 C   0  0  0  0  0  0  0  0  0  0  0  0
  -84.8884   31.4108    0.1305 C   0  0  0  0  0  0  0  0  0  0  0  0
  -87.5779   32.7571   -0.9776 H   0  0  0  0  0  0  0  0  0  0  0  0
 18 19  1  0  0  0
 19  3  1  0  0  0
  3  4  2  0  0  0
  4  5  1  0  0  0
  5  6  2  0  0  0
  6  7  1  0  0  0
  7  8  2  0  0  0
  8  1  1  0  0  0
  1 20  1  0  0  0
 20 21  2  0  0  0
 21 22  1  0  0  0
 22 23  2  0  0  0
 23 24  1  0  0  0
 24 25  2  0  0  0
 22 26  1  0  0  0
 26 27  2  0  0  0
 27 28  1  0  0  0
 28 29  1  0  0  0
 29 30  2  0  0  0
 30 31  1  0  0  0
 31 32  2  0  0  0
 32 33  1  0  0  0
 33 34  2  0  0  0
  5  9  1  0  0  0
  9 10  1  0  0  0
 10 11  1  0  0  0
 11 12  1  0  0  0
 12 13  1  0  0  0
 13 14  1  0  0  0
 12 15  1  0  0  0
 15 16  1  0  0  0
 15 17  2  0  0  0
  8  3  1  0  0  0
 25 20  1  0  0  0
 34 26  1  0  0  0
 14  9  1  0  0  0
 34 29  1  0  0  0
  1  2  1  0  0  0
 28 35  1  0  0  0
M  END
> <minimizedAffinity>
-8.80448

> <CNNscore>
0.4393963218

> <CNNaffinity>
6.9618444443

> <CNN_VS>
3.0590088367

> <CNNaffinity_variance>
0.0069624521

$$$$
[H]c1nc(-c2c([H])n([H])c3c([H])nc([H])c([H])c23)c([H])c(N([H])c2c([H])c([H])c(N3C([H])([H])C([H])([H])N(C(=O)C([H])([H])[H])C([H])([H])C3([H])[H])c([H])c2OC([H])([H])[H])n1


 35 39  0  0  0  0  0  0  0  0999 V2000
  -85.2222   31.0950    1.4154 N   0  0  0  0  0  0  0  0  0  0  0  0
  -84.7441   31.7856    2.0893 H   0  0  0  0  0  0  0  0  0  0  0  0
  -85.3064   32.7229   -0.3801 C   0  0  0  0  0  0  0  0  0  0  0  0
  -85.9104   33.3552   -1.4384 C   0  0  0  0  0  0  0  0  0  0  0  0
  -87.1689   32.9970   -1.8499 C   0  0  0  0  0  0  0  0  0  0  0  0
  -87.7963   31.9841   -1.1620 C   0  0  0  0  0  0  0  0  0  0  0  0
  -87.1791   31.3444   -0.0874 C   0  0  0  0  0  0  0  0  0  0  0  0
  -85.9248   31.6793    0.3464 C   0  0  0  0  0  0  0  0  0  0  0  0
  -87.8517   33.6117   -2.9342 N   0  0  0  0  0  0  0  0  0  0  0  0
  -89.2740   33.5308   -3.1625 C   0  0  0  0  0  0  0  0  0  0  0  0
  -89.4825   33.2619   -4.6609 C   0  0  0  0  0  0  0  0  0  0  0  0
  -89.1262   34.4994   -5.3083 N   0  0  0  0  0  0  0  0  0  0  0  0
  -88.0474   35.2589   -4.7724 C   0  0  0  0  0  0  0  0  0  0  0  0
  -87.1200   34.3955   -3.9144 C   0  0  0  0  0  0  0  0  0  0  0  0
  -89.8359   34.9327   -6.4404 C   0  0  0  0  0  0  0  0  0  0  0  0
  -90.9592   34.1242   -6.9830 C   0  0  0  0  0  0  0  0  0  0  0  0
  -89.5055   36.0286   -6.9981 O   0  0  0  0  0  0  0  0  0  0  0  0
  -82.9210   32.3974   -0.3877 C   0  0  0  0  0  0  0  0  0  0  0  0
  -84.0413   33.1362   -0.0233 O   0  0  0  0  0  0  0  0  0  0  0  0
  -85.0814   29.7188    1.6910 C   0  0  0  0  0  0  0  0  0  0  0  0
  -86.1483   28.8493    1.3721 C   0  0  0  0  0  0  0  0  0  0  0  0
  -86.0642   27.5039    1.6179 C   0  0  0  0  0  0  0  0  0  0  0  0
  -84.9463   27.0335    2.1676 N   0  0  0  0  0  0  0  0  0  0  0  0
  -83.9003   27.8114    2.4920 C   0  0  0  0  0  0  0  0  0  0  0  0
  -84.0339   29.1126    2.2319 N   0  0  0  0  0  0  0  0  0  0  0  0
  -87.1956   26.6257    1.2725 C   0  0  0  0  0  0  0  0  0  0  0  0
  -87.2879   25.8599    0.1319 C   0  0  0  0  0  0  0  0  0  0  0  0
  -88.4685   25.1763    0.1450 N   0  0  0  0  0  0  0  0  0  0  0  0
  -89.1417   25.4786    1.2618 C   0  0  0  0  0  0  0  0  0  0  0  0
  -90.3587   25.0824    1.7699 C   0  0  0  0  0  0  0  0  0  0  0  0
  -90.7809   25.5699    2.9479 N   0  0  0  0  0  0  0  0  0  0  0  0
  -90.0477   26.4426    3.6578 C   0  0  0  0  0  0  0  0  0  0  0  0
  -88.8240   26.8641    3.1840 C   0  0  0  0  0  0  0  0  0  0  0  0
  -88.3484   26.3881    1.9744 C   0  0  0  0  0  0  0  0  0  0  0  0
  -88.8368   24.5101   -0.5768 H   0  0  0  0  0  0  0  0  0  0  0  0
 18 19  1  0  0  0
 19  3  1  0  0  0
  3  4  2  0  0  0
  4  5  1  0  0  0
  5  6  2  0  0  0
  6  7  1  0  0  0
  7  8  2  0  0  0
  8  1  1  0  0  0
  1 20  1  0  0  0
 20 21  2  0  0  0
 21 22  1  0  0  0
 22 23  2  0  0  0
 23 24  1  0  0  0
 24 25  2  0  0  0
 22 26  1  0  0  0
 26 27  2  0  0  0
 27 28  1  0  0  0
 28 29  1  0  0  0
 29 30  2  0  0  0
 30 31  1  0  0  0
 31 32  2  0  0  0
 32 33  1  0  0  0
 33 34  2  0  0  0
  5  9  1  0  0  0
  9 10  1  0  0  0
 10 11  1  0  0  0
 11 12  1  0  0  0
 12 13  1  0  0  0
 13 14  1  0  0  0
 12 15  1  0  0  0
 15 16  1  0  0  0
 15 17  2  0  0  0
  8  3  1  0  0  0
 25 20  1  0  0  0
 34 26  1  0  0  0
 14  9  1  0  0  0
 34 29  1  0  0  0
  1  2  1  0  0  0
 28 35  1  0  0  0
M  END
> <minimizedAffinity>
-9.33282

> <CNNscore>
0.3397007585

> <CNNaffinity>
7.0929656029

> <CNN_VS>
2.4094858170

> <CNNaffinity_variance>
0.3158420920

$$$$
[H]c1nc(-c2c([H])n([H])c3c([H])nc([H])c([H])c23)c([H])c(N([H])c2c([H])c([H])c(N3C([H])([H])C([H])([H])N(C(=O)C([H])([H])[H])C([H])([H])C3([H])[H])c([H])c2OC([H])([H])[H])n1


 35 39  0  0  0  0  0  0  0  0999 V2000
  -86.3736   26.7623    2.2120 N   0  0  0  0  0  0  0  0  0  0  0  0
  -86.5232   26.1950    3.1150 H   0  0  0  0  0  0  0  0  0  0  0  0
  -88.6983   27.0180    1.5705 C   0  0  0  0  0  0  0  0  0  0  0  0
  -89.7474   26.9263    0.6900 C   0  0  0  0  0  0  0  0  0  0  0  0
  -89.5628   26.4429   -0.5803 C   0  0  0  0  0  0  0  0  0  0  0  0
  -88.2902   26.0563   -0.9326 C   0  0  0  0  0  0  0  0  0  0  0  0
  -87.2272   26.1512   -0.0348 C   0  0  0  0  0  0  0  0  0  0  0  0
  -87.3799   26.6291    1.2387 C   0  0  0  0  0  0  0  0  0  0  0  0
  -90.6045   26.3189   -1.5390 N   0  0  0  0  0  0  0  0  0  0  0  0
  -91.8669   25.6619   -1.3017 C   0  0  0  0  0  0  0  0  0  0  0  0
  -92.1688   24.7923   -2.5319 C   0  0  0  0  0  0  0  0  0  0  0  0
  -92.4909   25.7329   -3.5754 N   0  0  0  0  0  0  0  0  0  0  0  0
  -91.7800   26.9659   -3.6200 C   0  0  0  0  0  0  0  0  0  0  0  0
  -90.4485   26.8778   -2.8709 C   0  0  0  0  0  0  0  0  0  0  0  0
  -93.4852   25.4261   -4.5189 C   0  0  0  0  0  0  0  0  0  0  0  0
  -94.2154   24.1329   -4.4535 C   0  0  0  0  0  0  0  0  0  0  0  0
  -93.7548   26.2703   -5.4333 O   0  0  0  0  0  0  0  0  0  0  0  0
  -89.7718   26.8147    3.7160 C   0  0  0  0  0  0  0  0  0  0  0  0
  -88.9592   27.5133    2.8297 O   0  0  0  0  0  0  0  0  0  0  0  0
  -85.2069   27.5506    2.1281 C   0  0  0  0  0  0  0  0  0  0  0  0
  -85.2753   28.7975    1.4674 C   0  0  0  0  0  0  0  0  0  0  0  0
  -84.1724   29.6033    1.3577 C   0  0  0  0  0  0  0  0  0  0  0  0
  -83.0285   29.1801    1.8920 N   0  0  0  0  0  0  0  0  0  0  0  0
  -82.9035   28.0052    2.5312 C   0  0  0  0  0  0  0  0  0  0  0  0
  -84.0065   27.2598    2.6098 N   0  0  0  0  0  0  0  0  0  0  0  0
  -84.2793   30.8977    0.6623 C   0  0  0  0  0  0  0  0  0  0  0  0
  -83.2380   31.7723    0.4465 C   0  0  0  0  0  0  0  0  0  0  0  0
  -83.7020   32.8649   -0.2260 N   0  0  0  0  0  0  0  0  0  0  0  0
  -85.0137   32.7211   -0.4509 C   0  0  0  0  0  0  0  0  0  0  0  0
  -85.9588   33.5055   -1.0735 C   0  0  0  0  0  0  0  0  0  0  0  0
  -87.2322   33.0852   -1.1465 N   0  0  0  0  0  0  0  0  0  0  0  0
  -87.6219   31.9103   -0.6260 C   0  0  0  0  0  0  0  0  0  0  0  0
  -86.7065   31.0959    0.0053 C   0  0  0  0  0  0  0  0  0  0  0  0
  -85.3828   31.4883    0.1041 C   0  0  0  0  0  0  0  0  0  0  0  0
  -83.1615   33.7076   -0.5396 H   0  0  0  0  0  0  0  0  0  0  0  0
 18 19  1  0  0  0
 19  3  1  0  0  0
  3  4  2  0  0  0
  4  5  1  0  0  0
  5  6  2  0  0  0
  6  7  1  0  0  0
  7  8  2  0  0  0
  8  1  1  0  0  0
  1 20  1  0  0  0
 20 21  2  0  0  0
 21 22  1  0  0  0
 22 23  2  0  0  0
 23 24  1  0  0  0
 24 25  2  0  0  0
 22 26  1  0  0  0
 26 27  2  0  0  0
 27 28  1  0  0  0
 28 29  1  0  0  0
 29 30  2  0  0  0
 30 31  1  0  0  0
 31 32  2  0  0  0
 32 33  1  0  0  0
 33 34  2  0  0  0
  5  9  1  0  0  0
  9 10  1  0  0  0
 10 11  1  0  0  0
 11 12  1  0  0  0
 12 13  1  0  0  0
 13 14  1  0  0  0
 12 15  1  0  0  0
 15 16  1  0  0  0
 15 17  2  0  0  0
  8  3  1  0  0  0
 25 20  1  0  0  0
 34 26  1  0  0  0
 14  9  1  0  0  0
 34 29  1  0  0  0
  1  2  1  0  0  0
 28 35  1  0  0  0
M  END
> <minimizedAffinity>
-9.49432

> <CNNscore>
0.3288557231

> <CNNaffinity>
6.9795174599

> <CNN_VS>
2.2952542305

> <CNNaffinity_variance>
0.0802103281

$$$$
[H]c1nc(-c2c([H])n([H])c3c([H])nc([H])c([H])c23)c([H])c(N([H])c2c([H])c([H])c(N3C([H])([H])C([H])([H])N(C(=O)C([H])([H])[H])C([H])([H])C3([H])[H])c([H])c2OC([H])([H])[H])n1


 35 39  0  0  0  0  0  0  0  0999 V2000
  -86.5970   28.1964    2.6303 N   0  0  0  0  0  0  0  0  0  0  0  0
  -86.9005   28.3562    3.6510 H   0  0  0  0  0  0  0  0  0  0  0  0
  -88.7019   27.0245    2.3526 C   0  0  0  0  0  0  0  0  0  0  0  0
  -89.5540   26.1656    1.7040 C   0  0  0  0  0  0  0  0  0  0  0  0
  -89.1682   25.5211    0.5563 C   0  0  0  0  0  0  0  0  0  0  0  0
  -87.8995   25.7699    0.0856 C   0  0  0  0  0  0  0  0  0  0  0  0
  -87.0370   26.6431    0.7477 C   0  0  0  0  0  0  0  0  0  0  0  0
  -87.3930   27.3006    1.8943 C   0  0  0  0  0  0  0  0  0  0  0  0
  -89.9985   24.6185   -0.1617 N   0  0  0  0  0  0  0  0  0  0  0  0
  -90.0416   24.5067   -1.5995 C   0  0  0  0  0  0  0  0  0  0  0  0
  -91.5202   24.4170   -2.0075 C   0  0  0  0  0  0  0  0  0  0  0  0
  -91.9413   23.1085   -1.5739 N   0  0  0  0  0  0  0  0  0  0  0  0
  -91.4133   22.5957   -0.3549 C   0  0  0  0  0  0  0  0  0  0  0  0
  -90.8869   23.7139    0.5475 C   0  0  0  0  0  0  0  0  0  0  0  0
  -92.8517   22.3687   -2.3466 C   0  0  0  0  0  0  0  0  0  0  0  0
  -93.3902   22.9232   -3.6163 C   0  0  0  0  0  0  0  0  0  0  0  0
  -93.2115   21.2149   -1.9461 O   0  0  0  0  0  0  0  0  0  0  0  0
  -90.5190   27.8310    3.7106 C   0  0  0  0  0  0  0  0  0  0  0  0
  -89.1584   27.6361    3.4999 O   0  0  0  0  0  0  0  0  0  0  0  0
  -85.4598   28.8962    2.1757 C   0  0  0  0  0  0  0  0  0  0  0  0
  -85.6401   29.9902    1.3002 C   0  0  0  0  0  0  0  0  0  0  0  0
  -84.5703   30.7050    0.8289 C   0  0  0  0  0  0  0  0  0  0  0  0
  -83.3499   30.3414    1.2184 N   0  0  0  0  0  0  0  0  0  0  0  0
  -83.1174   29.3110    2.0483 C   0  0  0  0  0  0  0  0  0  0  0  0
  -84.1927   28.6491    2.4775 N   0  0  0  0  0  0  0  0  0  0  0  0
  -84.7944   31.8407   -0.0826 C   0  0  0  0  0  0  0  0  0  0  0  0
  -83.8163   32.6888   -0.5511 C   0  0  0  0  0  0  0  0  0  0  0  0
  -84.3847   33.6201   -1.3702 N   0  0  0  0  0  0  0  0  0  0  0  0
  -85.7027   33.3977   -1.4442 C   0  0  0  0  0  0  0  0  0  0  0  0
  -86.7317   34.0218   -2.1133 C   0  0  0  0  0  0  0  0  0  0  0  0
  -87.9861   33.5580   -1.9907 N   0  0  0  0  0  0  0  0  0  0  0  0
  -88.2763   32.4919   -1.2275 C   0  0  0  0  0  0  0  0  0  0  0  0
  -87.2748   31.8392   -0.5416 C   0  0  0  0  0  0  0  0  0  0  0  0
  -85.9669   32.2820   -0.6383 C   0  0  0  0  0  0  0  0  0  0  0  0
  -83.9118   34.4036   -1.8829 H   0  0  0  0  0  0  0  0  0  0  0  0
 18 19  1  0  0  0
 19  3  1  0  0  0
  3  4  2  0  0  0
  4  5  1  0  0  0
  5  6  2  0  0  0
  6  7  1  0  0  0
  7  8  2  0  0  0
  8  1  1  0  0  0
  1 20  1  0  0  0
 20 21  2  0  0  0
 21 22  1  0  0  0
 22 23  2  0  0  0
 23 24  1  0  0  0
 24 25  2  0  0  0
 22 26  1  0  0  0
 26 27  2  0  0  0
 27 28  1  0  0  0
 28 29  1  0  0  0
 29 30  2  0  0  0
 30 31  1  0  0  0
 31 32  2  0  0  0
 32 33  1  0  0  0
 33 34  2  0  0  0
  5  9  1  0  0  0
  9 10  1  0  0  0
 10 11  1  0  0  0
 11 12  1  0  0  0
 12 13  1  0  0  0
 13 14  1  0  0  0
 12 15  1  0  0  0
 15 16  1  0  0  0
 15 17  2  0  0  0
  8  3  1  0  0  0
 25 20  1  0  0  0
 34 26  1  0  0  0
 14  9  1  0  0  0
 34 29  1  0  0  0
  1  2  1  0  0  0
 28 35  1  0  0  0
M  END
> <minimizedAffinity>
-9.38978

> <CNNscore>
0.2359825224

> <CNNaffinity>
6.8540549278

> <CNN_VS>
1.6174371243

> <CNNaffinity_variance>
0.0413760841

$$$$
[H]c1nc(-c2c([H])n([H])c3c([H])nc([H])c([H])c23)c([H])c(N([H])c2c([H])c([H])c(N3C([H])([H])C([H])([H])N(C(=O)C([H])([H])[H])C([H])([H])C3([H])[H])c([H])c2OC([H])([H])[H])n1


 35 39  0  0  0  0  0  0  0  0999 V2000
  -88.2927   26.1706    1.4849 N   0  0  0  0  0  0  0  0  0  0  0  0
  -88.5423   25.5868    2.3546 H   0  0  0  0  0  0  0  0  0  0  0  0
  -90.4703   26.6501    0.5312 C   0  0  0  0  0  0  0  0  0  0  0  0
  -91.4136   26.6007   -0.4648 C   0  0  0  0  0  0  0  0  0  0  0  0
  -91.1526   25.9682   -1.6536 C   0  0  0  0  0  0  0  0  0  0  0  0
  -89.9137   25.3892   -1.8048 C   0  0  0  0  0  0  0  0  0  0  0  0
  -88.9583   25.4417   -0.7902 C   0  0  0  0  0  0  0  0  0  0  0  0
  -89.1890   26.0651    0.4063 C   0  0  0  0  0  0  0  0  0  0  0  0
  -92.0841   25.8778   -2.7231 N   0  0  0  0  0  0  0  0  0  0  0  0
  -93.3251   25.1435   -2.6732 C   0  0  0  0  0  0  0  0  0  0  0  0
  -93.4524   24.3697   -3.9945 C   0  0  0  0  0  0  0  0  0  0  0  0
  -93.7205   25.3804   -4.9867 N   0  0  0  0  0  0  0  0  0  0  0  0
  -93.0790   26.6451   -4.8566 C   0  0  0  0  0  0  0  0  0  0  0  0
  -91.8267   26.5561   -3.9817 C   0  0  0  0  0  0  0  0  0  0  0  0
  -94.5961   25.1090   -6.0509 C   0  0  0  0  0  0  0  0  0  0  0  0
  -95.2553   23.7818   -6.1671 C   0  0  0  0  0  0  0  0  0  0  0  0
  -94.8195   26.0150   -6.9172 O   0  0  0  0  0  0  0  0  0  0  0  0
  -91.0323   28.6744    1.7073 C   0  0  0  0  0  0  0  0  0  0  0  0
  -90.8034   27.3028    1.6982 O   0  0  0  0  0  0  0  0  0  0  0  0
  -87.1189   26.9506    1.5434 C   0  0  0  0  0  0  0  0  0  0  0  0
  -87.1258   28.2342    0.9535 C   0  0  0  0  0  0  0  0  0  0  0  0
  -86.0133   29.0337    0.9821 C   0  0  0  0  0  0  0  0  0  0  0  0
  -84.9197   28.5687    1.5828 N   0  0  0  0  0  0  0  0  0  0  0  0
  -84.8542   27.3576    2.1602 C   0  0  0  0  0  0  0  0  0  0  0  0
  -85.9639   26.6201    2.1042 N   0  0  0  0  0  0  0  0  0  0  0  0
  -86.0555   30.3673    0.3573 C   0  0  0  0  0  0  0  0  0  0  0  0
  -87.1904   30.9894   -0.1124 C   0  0  0  0  0  0  0  0  0  0  0  0
  -86.8545   32.2089   -0.6237 N   0  0  0  0  0  0  0  0  0  0  0  0
  -85.5346   32.3925   -0.4976 C   0  0  0  0  0  0  0  0  0  0  0  0
  -84.6853   33.4214   -0.8384 C   0  0  0  0  0  0  0  0  0  0  0  0
  -83.3717   33.3163   -0.5795 N   0  0  0  0  0  0  0  0  0  0  0  0
  -82.8499   32.2275    0.0083 C   0  0  0  0  0  0  0  0  0  0  0  0
  -83.6661   31.1759    0.3649 C   0  0  0  0  0  0  0  0  0  0  0  0
  -85.0265   31.2402    0.1175 C   0  0  0  0  0  0  0  0  0  0  0  0
  -87.4882   32.9243   -1.0564 H   0  0  0  0  0  0  0  0  0  0  0  0
 18 19  1  0  0  0
 19  3  1  0  0  0
  3  4  2  0  0  0
  4  5  1  0  0  0
  5  6  2  0  0  0
  6  7  1  0  0  0
  7  8  2  0  0  0
  8  1  1  0  0  0
  1 20  1  0  0  0
 20 21  2  0  0  0
 21 22  1  0  0  0
 22 23  2  0  0  0
 23 24  1  0  0  0
 24 25  2  0  0  0
 22 26  1  0  0  0
 26 27  2  0  0  0
 27 28  1  0  0  0
 28 29  1  0  0  0
 29 30  2  0  0  0
 30 31  1  0  0  0
 31 32  2  0  0  0
 32 33  1  0  0  0
 33 34  2  0  0  0
  5  9  1  0  0  0
  9 10  1  0  0  0
 10 11  1  0  0  0
 11 12  1  0  0  0
 12 13  1  0  0  0
 13 14  1  0  0  0
 12 15  1  0  0  0
 15 16  1  0  0  0
 15 17  2  0  0  0
  8  3  1  0  0  0
 25 20  1  0  0  0
 34 26  1  0  0  0
 14  9  1  0  0  0
 34 29  1  0  0  0
  1  2  1  0  0  0
 28 35  1  0  0  0
M  END
> <minimizedAffinity>
-9.09476

> <CNNscore>
0.2191805393

> <CNNaffinity>
6.5807752609

> <CNN_VS>
1.4423779249

> <CNNaffinity_variance>
0.0244865231

$$$$
[H]c1nc(-c2c([H])n([H])c3c([H])nc([H])c([H])c23)c([H])c(N([H])c2c([H])c([H])c(N3C([H])([H])C([H])([H])N(C(=O)C([H])([H])[H])C([H])([H])C3([H])[H])c([H])c2OC([H])([H])[H])n1


 35 39  0  0  0  0  0  0  0  0999 V2000
  -89.5742   29.1848   -0.0083 N   0  0  0  0  0  0  0  0  0  0  0  0
  -90.5927   28.8487    0.0883 H   0  0  0  0  0  0  0  0  0  0  0  0
  -89.0729   30.0880   -2.2024 C   0  0  0  0  0  0  0  0  0  0  0  0
  -88.8670   31.1134   -3.0916 C   0  0  0  0  0  0  0  0  0  0  0  0
  -88.9524   32.4227   -2.6915 C   0  0  0  0  0  0  0  0  0  0  0  0
  -89.2510   32.6634   -1.3703 C   0  0  0  0  0  0  0  0  0  0  0  0
  -89.4594   31.6187   -0.4702 C   0  0  0  0  0  0  0  0  0  0  0  0
  -89.3811   30.3029   -0.8392 C   0  0  0  0  0  0  0  0  0  0  0  0
  -88.7480   33.5300   -3.5586 N   0  0  0  0  0  0  0  0  0  0  0  0
  -89.7902   34.4101   -4.0286 C   0  0  0  0  0  0  0  0  0  0  0  0
  -89.5548   34.6376   -5.5298 C   0  0  0  0  0  0  0  0  0  0  0  0
  -88.3809   35.4716   -5.5943 N   0  0  0  0  0  0  0  0  0  0  0  0
  -87.3430   35.2562   -4.6435 C   0  0  0  0  0  0  0  0  0  0  0  0
  -87.4148   33.8531   -4.0369 C   0  0  0  0  0  0  0  0  0  0  0  0
  -88.2780   36.4691   -6.5779 C   0  0  0  0  0  0  0  0  0  0  0  0
  -89.3738   36.6770   -7.5606 C   0  0  0  0  0  0  0  0  0  0  0  0
  -87.2328   37.1951   -6.6184 O   0  0  0  0  0  0  0  0  0  0  0  0
  -87.7279   28.1987   -2.8490 C   0  0  0  0  0  0  0  0  0  0  0  0
  -88.9707   28.7981   -2.6762 O   0  0  0  0  0  0  0  0  0  0  0  0
  -88.5863   28.4699    0.7006 C   0  0  0  0  0  0  0  0  0  0  0  0
  -87.2851   29.0132    0.7873 C   0  0  0  0  0  0  0  0  0  0  0  0
  -86.2880   28.3610    1.4640 C   0  0  0  0  0  0  0  0  0  0  0  0
  -86.5770   27.1962    2.0410 N   0  0  0  0  0  0  0  0  0  0  0  0
  -87.7948   26.6313    1.9920 C   0  0  0  0  0  0  0  0  0  0  0  0
  -88.7285   27.3071    1.3212 N   0  0  0  0  0  0  0  0  0  0  0  0
  -84.9423   28.9565    1.5351 C   0  0  0  0  0  0  0  0  0  0  0  0
  -83.8582   28.3968    2.1732 C   0  0  0  0  0  0  0  0  0  0  0  0
  -82.7808   29.2224    2.0348 N   0  0  0  0  0  0  0  0  0  0  0  0
  -83.1381   30.2998    1.3251 C   0  0  0  0  0  0  0  0  0  0  0  0
  -82.4607   31.4211    0.9012 C   0  0  0  0  0  0  0  0  0  0  0  0
  -83.1029   32.3579    0.1846 N   0  0  0  0  0  0  0  0  0  0  0  0
  -84.4009   32.2379   -0.1376 C   0  0  0  0  0  0  0  0  0  0  0  0
  -85.1145   31.1305    0.2675 C   0  0  0  0  0  0  0  0  0  0  0  0
  -84.4938   30.1395    1.0081 C   0  0  0  0  0  0  0  0  0  0  0  0
  -81.8090   29.0830    2.4043 H   0  0  0  0  0  0  0  0  0  0  0  0
 18 19  1  0  0  0
 19  3  1  0  0  0
  3  4  2  0  0  0
  4  5  1  0  0  0
  5  6  2  0  0  0
  6  7  1  0  0  0
  7  8  2  0  0  0
  8  1  1  0  0  0
  1 20  1  0  0  0
 20 21  2  0  0  0
 21 22  1  0  0  0
 22 23  2  0  0  0
 23 24  1  0  0  0
 24 25  2  0  0  0
 22 26  1  0  0  0
 26 27  2  0  0  0
 27 28  1  0  0  0
 28 29  1  0  0  0
 29 30  2  0  0  0
 30 31  1  0  0  0
 31 32  2  0  0  0
 32 33  1  0  0  0
 33 34  2  0  0  0
  5  9  1  0  0  0
  9 10  1  0  0  0
 10 11  1  0  0  0
 11 12  1  0  0  0
 12 13  1  0  0  0
 13 14  1  0  0  0
 12 15  1  0  0  0
 15 16  1  0  0  0
 15 17  2  0  0  0
  8  3  1  0  0  0
 25 20  1  0  0  0
 34 26  1  0  0  0
 14  9  1  0  0  0
 34 29  1  0  0  0
  1  2  1  0  0  0
 28 35  1  0  0  0
M  END
> <minimizedAffinity>
-9.09725

> <CNNscore>
0.2101719677

> <CNNaffinity>
7.0802268982

> <CNN_VS>
1.4880652428

> <CNNaffinity_variance>
0.0753210783

$$$$
[H]c1nc(-c2c([H])n([H])c3c([H])nc([H])c([H])c23)c([H])c(N([H])c2c([H])c([H])c(N3C([H])([H])C([H])([H])N(C(=O)C([H])([H])[H])C([H])([H])C3([H])[H])c([H])c2OC([H])([H])[H])n1


 35 39  0  0  0  0  0  0  0  0999 V2000
  -88.2880   27.9926    2.1227 N   0  0  0  0  0  0  0  0  0  0  0  0
  -88.7482   28.7722    2.7059 H   0  0  0  0  0  0  0  0  0  0  0  0
  -89.8000   26.1104    2.3520 C   0  0  0  0  0  0  0  0  0  0  0  0
  -90.6793   25.1743    1.8673 C   0  0  0  0  0  0  0  0  0  0  0  0
  -90.9995   25.1300    0.5342 C   0  0  0  0  0  0  0  0  0  0  0  0
  -90.4062   26.0570   -0.2912 C   0  0  0  0  0  0  0  0  0  0  0  0
  -89.5134   27.0063    0.2054 C   0  0  0  0  0  0  0  0  0  0  0  0
  -89.1743   27.0757    1.5297 C   0  0  0  0  0  0  0  0  0  0  0  0
  -91.8984   24.1864   -0.0327 N   0  0  0  0  0  0  0  0  0  0  0  0
  -93.3267   24.3662   -0.1294 C   0  0  0  0  0  0  0  0  0  0  0  0
  -93.9841   23.0426    0.2908 C   0  0  0  0  0  0  0  0  0  0  0  0
  -93.7038   22.1341   -0.7926 N   0  0  0  0  0  0  0  0  0  0  0  0
  -92.4441   22.2307   -1.4497 C   0  0  0  0  0  0  0  0  0  0  0  0
  -91.4031   22.9331   -0.5752 C   0  0  0  0  0  0  0  0  0  0  0  0
  -94.6607   21.1813   -1.1793 C   0  0  0  0  0  0  0  0  0  0  0  0
  -95.9696   21.0982   -0.4797 C   0  0  0  0  0  0  0  0  0  0  0  0
  -94.3937   20.3876   -2.1385 O   0  0  0  0  0  0  0  0  0  0  0  0
  -89.1311   24.9212    4.3356 C   0  0  0  0  0  0  0  0  0  0  0  0
  -89.5261   26.0945    3.7024 O   0  0  0  0  0  0  0  0  0  0  0  0
  -86.8803   27.9959    2.0331 C   0  0  0  0  0  0  0  0  0  0  0  0
  -86.2326   29.1566    1.5544 C   0  0  0  0  0  0  0  0  0  0  0  0
  -84.8677   29.2140    1.4478 C   0  0  0  0  0  0  0  0  0  0  0  0
  -84.1629   28.1432    1.8083 N   0  0  0  0  0  0  0  0  0  0  0  0
  -84.7233   27.0130    2.2700 C   0  0  0  0  0  0  0  0  0  0  0  0
  -86.0543   27.0099    2.3540 N   0  0  0  0  0  0  0  0  0  0  0  0
  -84.2248   30.4406    0.9450 C   0  0  0  0  0  0  0  0  0  0  0  0
  -82.9061   30.7843    1.1410 C   0  0  0  0  0  0  0  0  0  0  0  0
  -82.6602   31.9825    0.5365 N   0  0  0  0  0  0  0  0  0  0  0  0
  -83.7829   32.4226   -0.0448 C   0  0  0  0  0  0  0  0  0  0  0  0
  -84.0924   33.5492   -0.7735 C   0  0  0  0  0  0  0  0  0  0  0  0
  -85.3401   33.7207   -1.2399 N   0  0  0  0  0  0  0  0  0  0  0  0
  -86.3102   32.8193   -1.0174 C   0  0  0  0  0  0  0  0  0  0  0  0
  -86.0411   31.6783   -0.2927 C   0  0  0  0  0  0  0  0  0  0  0  0
  -84.7692   31.4595    0.2077 C   0  0  0  0  0  0  0  0  0  0  0  0
  -81.7572   32.5152    0.5026 H   0  0  0  0  0  0  0  0  0  0  0  0
 18 19  1  0  0  0
 19  3  1  0  0  0
  3  4  2  0  0  0
  4  5  1  0  0  0
  5  6  2  0  0  0
  6  7  1  0  0  0
  7  8  2  0  0  0
  8  1  1  0  0  0
  1 20  1  0  0  0
 20 21  2  0  0  0
 21 22  1  0  0  0
 22 23  2  0  0  0
 23 24  1  0  0  0
 24 25  2  0  0  0
 22 26  1  0  0  0
 26 27  2  0  0  0
 27 28  1  0  0  0
 28 29  1  0  0  0
 29 30  2  0  0  0
 30 31  1  0  0  0
 31 32  2  0  0  0
 32 33  1  0  0  0
 33 34  2  0  0  0
  5  9  1  0  0  0
  9 10  1  0  0  0
 10 11  1  0  0  0
 11 12  1  0  0  0
 12 13  1  0  0  0
 13 14  1  0  0  0
 12 15  1  0  0  0
 15 16  1  0  0  0
 15 17  2  0  0  0
  8  3  1  0  0  0
 25 20  1  0  0  0
 34 26  1  0  0  0
 14  9  1  0  0  0
 34 29  1  0  0  0
  1  2  1  0  0  0
 28 35  1  0  0  0
M  END
> <minimizedAffinity>
-7.70186

> <CNNscore>
0.1495187432

> <CNNaffinity>
6.4846153259

> <CNN_VS>
0.9695715308

> <CNNaffinity_variance>
0.0629624724

$$$$
[H]c1nc(N([H])c2c([H])c([H])c(Cl)c([H])c2Cl)c2c(n1)c([H])c([H])c1nc(C(=O)OC([H])([H])[H])sc12


 27 30  0  0  0  0  0  0  0  0999 V2000
  -86.9754   27.6104    1.3363 C   0  0  0  0  0  0  0  0  0  0  0  0
  -85.7246   27.7898    1.7167 N   0  0  0  0  0  0  0  0  0  0  0  0
  -85.0878   28.8710    1.3786 C   0  0  0  0  0  0  0  0  0  0  0  0
  -83.7649   29.1863    1.7323 C   0  0  0  0  0  0  0  0  0  0  0  0
  -83.2296   30.3568    1.3244 C   0  0  0  0  0  0  0  0  0  0  0  0
  -83.8859   31.3056    0.5643 C   0  0  0  0  0  0  0  0  0  0  0  0
  -83.3362   32.4503    0.1963 N   0  0  0  0  0  0  0  0  0  0  0  0
  -84.0963   33.3092   -0.5378 C   0  0  0  0  0  0  0  0  0  0  0  0
  -85.3442   33.0162   -0.8774 N   0  0  0  0  0  0  0  0  0  0  0  0
  -85.9907   31.8611   -0.5433 C   0  0  0  0  0  0  0  0  0  0  0  0
  -85.2057   31.0002    0.2045 C   0  0  0  0  0  0  0  0  0  0  0  0
  -85.7545   29.8036    0.6224 C   0  0  0  0  0  0  0  0  0  0  0  0
  -87.2790   29.0304    0.4575 S   0  0  0  0  0  0  0  0  0  0  0  0
  -87.8773   26.4687    1.6038 C   0  0  0  0  0  0  0  0  0  0  0  0
  -88.1261   26.1008    2.7717 O   0  0  0  0  0  0  0  0  0  0  0  0
  -89.5982   25.0256    0.6228 C   0  0  0  0  0  0  0  0  0  0  0  0
  -88.4233   25.8384    0.5126 O   0  0  0  0  0  0  0  0  0  0  0  0
  -87.2762   31.5627   -1.0360 N   0  0  0  0  0  0  0  0  0  0  0  0
  -87.8796   30.8120   -0.6537 H   0  0  0  0  0  0  0  0  0  0  0  0
  -87.8332   32.2768   -2.1468 C   0  0  0  0  0  0  0  0  0  0  0  0
  -88.1607   33.6022   -2.1787 C   0  0  0  0  0  0  0  0  0  0  0  0
  -88.7533   34.1620   -3.3104 C   0  0  0  0  0  0  0  0  0  0  0  0
  -89.0325   33.4167   -4.4284 C   0  0  0  0  0  0  0  0  0  0  0  0
  -89.7782   34.1818   -5.8168 Cl  0  0  0  0  0  0  0  0  0  0  0  0
  -88.7082   32.0796   -4.4071 C   0  0  0  0  0  0  0  0  0  0  0  0
  -88.1230   31.5167   -3.2980 C   0  0  0  0  0  0  0  0  0  0  0  0
  -87.7122   29.7989   -3.3107 Cl  0  0  0  0  0  0  0  0  0  0  0  0
 16 17  1  0  0  0
 17 14  1  0  0  0
 14 15  2  0  0  0
 14  1  1  0  0  0
  1  2  2  0  0  0
  2  3  1  0  0  0
  3  4  2  0  0  0
  4  5  1  0  0  0
  5  6  2  0  0  0
  6  7  1  0  0  0
  7  8  2  0  0  0
  8  9  1  0  0  0
  9 10  2  0  0  0
 10 18  1  0  0  0
 18 20  1  0  0  0
 20 21  2  0  0  0
 21 22  1  0  0  0
 22 23  2  0  0  0
 23 24  1  0  0  0
 23 25  1  0  0  0
 25 26  2  0  0  0
 26 27  1  0  0  0
 10 11  1  0  0  0
 11 12  2  0  0  0
 12 13  1  0  0  0
 13  1  1  0  0  0
 12  3  1  0  0  0
 11  6  1  0  0  0
 26 20  1  0  0  0
 18 19  1  0  0  0
M  END
> <minimizedAffinity>
-8.41650

> <CNNscore>
0.4956926107

> <CNNaffinity>
6.9051575661

> <CNN_VS>
3.4228355885

> <CNNaffinity_variance>
0.2071119845

$$$$
[H]c1nc(N([H])c2c([H])c([H])c(Cl)c([H])c2Cl)c2c(n1)c([H])c([H])c1nc(C(=O)OC([H])([H])[H])sc12


 27 30  0  0  0  0  0  0  0  0999 V2000
  -87.2512   27.1619    1.7819 C   0  0  0  0  0  0  0  0  0  0  0  0
  -86.0102   27.0482    2.2157 N   0  0  0  0  0  0  0  0  0  0  0  0
  -85.1469   27.9905    1.9796 C   0  0  0  0  0  0  0  0  0  0  0  0
  -83.8058   27.9959    2.3994 C   0  0  0  0  0  0  0  0  0  0  0  0
  -83.0198   29.0512    2.0970 C   0  0  0  0  0  0  0  0  0  0  0  0
  -83.4271   30.1646    1.3877 C   0  0  0  0  0  0  0  0  0  0  0  0
  -82.6342   31.1890    1.1237 N   0  0  0  0  0  0  0  0  0  0  0  0
  -83.1629   32.2350    0.4303 C   0  0  0  0  0  0  0  0  0  0  0  0
  -84.4267   32.2347    0.0287 N   0  0  0  0  0  0  0  0  0  0  0  0
  -85.3147   31.2226    0.2549 C   0  0  0  0  0  0  0  0  0  0  0  0
  -84.7628   30.1686    0.9628 C   0  0  0  0  0  0  0  0  0  0  0  0
  -85.5679   29.0901    1.2727 C   0  0  0  0  0  0  0  0  0  0  0  0
  -87.2103   28.6682    1.0007 S   0  0  0  0  0  0  0  0  0  0  0  0
  -88.3827   26.2212    1.9342 C   0  0  0  0  0  0  0  0  0  0  0  0
  -88.8180   25.5701    0.9607 O   0  0  0  0  0  0  0  0  0  0  0  0
  -89.6363   27.1794    3.8095 C   0  0  0  0  0  0  0  0  0  0  0  0
  -88.9264   26.1001    3.1895 O   0  0  0  0  0  0  0  0  0  0  0  0
  -86.6090   31.2349   -0.3008 N   0  0  0  0  0  0  0  0  0  0  0  0
  -87.3856   30.6366    0.0348 H   0  0  0  0  0  0  0  0  0  0  0  0
  -86.9339   32.0753   -1.4153 C   0  0  0  0  0  0  0  0  0  0  0  0
  -86.8053   33.4337   -1.4730 C   0  0  0  0  0  0  0  0  0  0  0  0
  -87.2155   34.1402   -2.6036 C   0  0  0  0  0  0  0  0  0  0  0  0
  -87.7614   33.5117   -3.6946 C   0  0  0  0  0  0  0  0  0  0  0  0
  -88.2564   34.4585   -5.0831 Cl  0  0  0  0  0  0  0  0  0  0  0  0
  -87.8973   32.1432   -3.6470 C   0  0  0  0  0  0  0  0  0  0  0  0
  -87.4958   31.4360   -2.5389 C   0  0  0  0  0  0  0  0  0  0  0  0
  -87.6770   29.6792   -2.5177 Cl  0  0  0  0  0  0  0  0  0  0  0  0
 16 17  1  0  0  0
 17 14  1  0  0  0
 14 15  2  0  0  0
 14  1  1  0  0  0
  1  2  2  0  0  0
  2  3  1  0  0  0
  3  4  2  0  0  0
  4  5  1  0  0  0
  5  6  2  0  0  0
  6  7  1  0  0  0
  7  8  2  0  0  0
  8  9  1  0  0  0
  9 10  2  0  0  0
 10 18  1  0  0  0
 18 20  1  0  0  0
 20 21  2  0  0  0
 21 22  1  0  0  0
 22 23  2  0  0  0
 23 24  1  0  0  0
 23 25  1  0  0  0
 25 26  2  0  0  0
 26 27  1  0  0  0
 10 11  1  0  0  0
 11 12  2  0  0  0
 12 13  1  0  0  0
 13  1  1  0  0  0
 12  3  1  0  0  0
 11  6  1  0  0  0
 26 20  1  0  0  0
 18 19  1  0  0  0
M  END
> <minimizedAffinity>
-9.11563

> <CNNscore>
0.4594023526

> <CNNaffinity>
6.9930777550

> <CNN_VS>
3.2126364708

> <CNNaffinity_variance>
0.2124926299

$$$$
[H]c1nc(N([H])c2c([H])c([H])c(Cl)c([H])c2Cl)c2c(n1)c([H])c([H])c1nc(C(=O)OC([H])([H])[H])sc12


 27 30  0  0  0  0  0  0  0  0999 V2000
  -86.3815   32.5995   -0.9534 C   0  0  0  0  0  0  0  0  0  0  0  0
  -85.0971   32.7312   -0.6809 N   0  0  0  0  0  0  0  0  0  0  0  0
  -84.4864   31.8359    0.0362 C   0  0  0  0  0  0  0  0  0  0  0  0
  -83.1243   31.8533    0.3812 C   0  0  0  0  0  0  0  0  0  0  0  0
  -82.6143   30.8463    1.1221 C   0  0  0  0  0  0  0  0  0  0  0  0
  -83.3338   29.7632    1.5887 C   0  0  0  0  0  0  0  0  0  0  0  0
  -82.7978   28.7850    2.2984 N   0  0  0  0  0  0  0  0  0  0  0  0
  -83.6124   27.7639    2.6833 C   0  0  0  0  0  0  0  0  0  0  0  0
  -84.8991   27.7431    2.3636 N   0  0  0  0  0  0  0  0  0  0  0  0
  -85.5360   28.7078    1.6371 C   0  0  0  0  0  0  0  0  0  0  0  0
  -84.6940   29.7369    1.2515 C   0  0  0  0  0  0  0  0  0  0  0  0
  -85.2164   30.7659    0.4926 C   0  0  0  0  0  0  0  0  0  0  0  0
  -86.7574   31.1445   -0.1642 S   0  0  0  0  0  0  0  0  0  0  0  0
  -87.2645   33.4888   -1.7395 C   0  0  0  0  0  0  0  0  0  0  0  0
  -86.7931   34.3384   -2.5250 O   0  0  0  0  0  0  0  0  0  0  0  0
  -89.4320   32.6690   -2.5375 C   0  0  0  0  0  0  0  0  0  0  0  0
  -88.6179   33.3347   -1.5642 O   0  0  0  0  0  0  0  0  0  0  0  0
  -86.9296   28.6825    1.4332 N   0  0  0  0  0  0  0  0  0  0  0  0
  -87.5746   29.4193    1.7719 H   0  0  0  0  0  0  0  0  0  0  0  0
  -87.5639   27.5917    0.7538 C   0  0  0  0  0  0  0  0  0  0  0  0
  -87.3575   27.2111   -0.5414 C   0  0  0  0  0  0  0  0  0  0  0  0
  -88.0876   26.1622   -1.1002 C   0  0  0  0  0  0  0  0  0  0  0  0
  -89.0354   25.4746   -0.3846 C   0  0  0  0  0  0  0  0  0  0  0  0
  -89.9176   24.1668   -1.1466 Cl  0  0  0  0  0  0  0  0  0  0  0  0
  -89.2530   25.8503    0.9211 C   0  0  0  0  0  0  0  0  0  0  0  0
  -88.5392   26.8818    1.4831 C   0  0  0  0  0  0  0  0  0  0  0  0
  -88.8391   27.3298    3.1651 Cl  0  0  0  0  0  0  0  0  0  0  0  0
 16 17  1  0  0  0
 17 14  1  0  0  0
 14 15  2  0  0  0
 14  1  1  0  0  0
  1  2  2  0  0  0
  2  3  1  0  0  0
  3  4  2  0  0  0
  4  5  1  0  0  0
  5  6  2  0  0  0
  6  7  1  0  0  0
  7  8  2  0  0  0
  8  9  1  0  0  0
  9 10  2  0  0  0
 10 18  1  0  0  0
 18 20  1  0  0  0
 20 21  2  0  0  0
 21 22  1  0  0  0
 22 23  2  0  0  0
 23 24  1  0  0  0
 23 25  1  0  0  0
 25 26  2  0  0  0
 26 27  1  0  0  0
 10 11  1  0  0  0
 11 12  2  0  0  0
 12 13  1  0  0  0
 13  1  1  0  0  0
 12  3  1  0  0  0
 11  6  1  0  0  0
 26 20  1  0  0  0
 18 19  1  0  0  0
M  END
> <minimizedAffinity>
-8.84750

> <CNNscore>
0.4580841064

> <CNNaffinity>
7.1233305931

> <CNN_VS>
3.2630844116

> <CNNaffinity_variance>
0.2070502937

$$$$
[H]c1nc(N([H])c2c([H])c([H])c(Cl)c([H])c2Cl)c2c(n1)c([H])c([H])c1nc(C(=O)OC([H])([H])[H])sc12


 27 30  0  0  0  0  0  0  0  0999 V2000
  -88.6549   27.2261    0.8140 C   0  0  0  0  0  0  0  0  0  0  0  0
  -87.5523   26.9756    1.4944 N   0  0  0  0  0  0  0  0  0  0  0  0
  -86.5684   27.8244    1.4793 C   0  0  0  0  0  0  0  0  0  0  0  0
  -85.3537   27.6819    2.1713 C   0  0  0  0  0  0  0  0  0  0  0  0
  -84.4194   28.6523    2.0793 C   0  0  0  0  0  0  0  0  0  0  0  0
  -84.5526   29.8124    1.3411 C   0  0  0  0  0  0  0  0  0  0  0  0
  -83.6229   30.7508    1.2869 N   0  0  0  0  0  0  0  0  0  0  0  0
  -83.8842   31.8566    0.5363 C   0  0  0  0  0  0  0  0  0  0  0  0
  -85.0272   31.9957   -0.1215 N   0  0  0  0  0  0  0  0  0  0  0  0
  -86.0400   31.0803   -0.1237 C   0  0  0  0  0  0  0  0  0  0  0  0
  -85.7600   29.9638    0.6456 C   0  0  0  0  0  0  0  0  0  0  0  0
  -86.7168   28.9723    0.7401 C   0  0  0  0  0  0  0  0  0  0  0  0
  -88.2976   28.7306    0.1140 S   0  0  0  0  0  0  0  0  0  0  0  0
  -89.8815   26.4084    0.6910 C   0  0  0  0  0  0  0  0  0  0  0  0
  -90.8270   26.5353    1.4979 O   0  0  0  0  0  0  0  0  0  0  0  0
  -89.1442   25.6875   -1.5323 C   0  0  0  0  0  0  0  0  0  0  0  0
  -89.9287   25.5098   -0.3465 O   0  0  0  0  0  0  0  0  0  0  0  0
  -87.1786   31.2374   -0.9381 N   0  0  0  0  0  0  0  0  0  0  0  0
  -87.9026   30.5067   -1.0630 H   0  0  0  0  0  0  0  0  0  0  0  0
  -87.3976   32.4377   -1.6898 C   0  0  0  0  0  0  0  0  0  0  0  0
  -86.4368   33.2590   -2.2070 C   0  0  0  0  0  0  0  0  0  0  0  0
  -86.7872   34.4342   -2.8716 C   0  0  0  0  0  0  0  0  0  0  0  0
  -88.0957   34.8152   -3.0329 C   0  0  0  0  0  0  0  0  0  0  0  0
  -88.4675   36.3040   -3.8780 Cl  0  0  0  0  0  0  0  0  0  0  0  0
  -89.0723   33.9961   -2.5145 C   0  0  0  0  0  0  0  0  0  0  0  0
  -88.7395   32.8351   -1.8584 C   0  0  0  0  0  0  0  0  0  0  0  0
  -90.0209   31.8039   -1.2145 Cl  0  0  0  0  0  0  0  0  0  0  0  0
 16 17  1  0  0  0
 17 14  1  0  0  0
 14 15  2  0  0  0
 14  1  1  0  0  0
  1  2  2  0  0  0
  2  3  1  0  0  0
  3  4  2  0  0  0
  4  5  1  0  0  0
  5  6  2  0  0  0
  6  7  1  0  0  0
  7  8  2  0  0  0
  8  9  1  0  0  0
  9 10  2  0  0  0
 10 18  1  0  0  0
 18 20  1  0  0  0
 20 21  2  0  0  0
 21 22  1  0  0  0
 22 23  2  0  0  0
 23 24  1  0  0  0
 23 25  1  0  0  0
 25 26  2  0  0  0
 26 27  1  0  0  0
 10 11  1  0  0  0
 11 12  2  0  0  0
 12 13  1  0  0  0
 13  1  1  0  0  0
 12  3  1  0  0  0
 11  6  1  0  0  0
 26 20  1  0  0  0
 18 19  1  0  0  0
M  END
> <minimizedAffinity>
-7.86691

> <CNNscore>
0.3108502924

> <CNNaffinity>
6.9242401123

> <CNN_VS>
2.1524021626

> <CNNaffinity_variance>
0.2654088140

$$$$
[H]c1nc(N([H])c2c([H])c([H])c(Cl)c([H])c2Cl)c2c(n1)c([H])c([H])c1nc(C(=O)OC([H])([H])[H])sc12


 27 30  0  0  0  0  0  0  0  0999 V2000
  -86.5858   32.9772   -1.2986 C   0  0  0  0  0  0  0  0  0  0  0  0
  -85.3106   33.1358   -0.9986 N   0  0  0  0  0  0  0  0  0  0  0  0
  -84.6977   32.2551   -0.2654 C   0  0  0  0  0  0  0  0  0  0  0  0
  -83.3440   32.3012    0.1091 C   0  0  0  0  0  0  0  0  0  0  0  0
  -82.8300   31.3069    0.8642 C   0  0  0  0  0  0  0  0  0  0  0  0
  -83.5374   30.2107    1.3186 C   0  0  0  0  0  0  0  0  0  0  0  0
  -82.9973   29.2457    2.0430 N   0  0  0  0  0  0  0  0  0  0  0  0
  -83.7992   28.2093    2.4136 C   0  0  0  0  0  0  0  0  0  0  0  0
  -85.0780   28.1614    2.0660 N   0  0  0  0  0  0  0  0  0  0  0  0
  -85.7182   29.1109    1.3226 C   0  0  0  0  0  0  0  0  0  0  0  0
  -84.8891   30.1558    0.9520 C   0  0  0  0  0  0  0  0  0  0  0  0
  -85.4156   31.1718    0.1786 C   0  0  0  0  0  0  0  0  0  0  0  0
  -86.9492   31.5171   -0.5129 S   0  0  0  0  0  0  0  0  0  0  0  0
  -87.4693   33.8460   -2.1066 C   0  0  0  0  0  0  0  0  0  0  0  0
  -88.7129   33.7444   -2.0402 O   0  0  0  0  0  0  0  0  0  0  0  0
  -87.2712   34.9478   -4.2868 C   0  0  0  0  0  0  0  0  0  0  0  0
  -86.8590   34.7628   -2.9270 O   0  0  0  0  0  0  0  0  0  0  0  0
  -87.1063   29.0567    1.0886 N   0  0  0  0  0  0  0  0  0  0  0  0
  -87.7175   29.8926    1.0536 H   0  0  0  0  0  0  0  0  0  0  0  0
  -87.7839   27.8065    0.9104 C   0  0  0  0  0  0  0  0  0  0  0  0
  -88.3968   27.0689    1.8827 C   0  0  0  0  0  0  0  0  0  0  0  0
  -88.9716   25.8338    1.5833 C   0  0  0  0  0  0  0  0  0  0  0  0
  -88.9468   25.3090    0.3156 C   0  0  0  0  0  0  0  0  0  0  0  0
  -89.6877   23.7518    0.0070 Cl  0  0  0  0  0  0  0  0  0  0  0  0
  -88.3306   26.0428   -0.6720 C   0  0  0  0  0  0  0  0  0  0  0  0
  -87.7614   27.2616   -0.3894 C   0  0  0  0  0  0  0  0  0  0  0  0
  -86.9874   28.1795   -1.6849 Cl  0  0  0  0  0  0  0  0  0  0  0  0
 16 17  1  0  0  0
 17 14  1  0  0  0
 14 15  2  0  0  0
 14  1  1  0  0  0
  1  2  2  0  0  0
  2  3  1  0  0  0
  3  4  2  0  0  0
  4  5  1  0  0  0
  5  6  2  0  0  0
  6  7  1  0  0  0
  7  8  2  0  0  0
  8  9  1  0  0  0
  9 10  2  0  0  0
 10 18  1  0  0  0
 18 20  1  0  0  0
 20 21  2  0  0  0
 21 22  1  0  0  0
 22 23  2  0  0  0
 23 24  1  0  0  0
 23 25  1  0  0  0
 25 26  2  0  0  0
 26 27  1  0  0  0
 10 11  1  0  0  0
 11 12  2  0  0  0
 12 13  1  0  0  0
 13  1  1  0  0  0
 12  3  1  0  0  0
 11  6  1  0  0  0
 26 20  1  0  0  0
 18 19  1  0  0  0
M  END
> <minimizedAffinity>
-8.77461

> <CNNscore>
0.3031899631

> <CNNaffinity>
6.8402342796

> <CNN_VS>
2.0738904476

> <CNNaffinity_variance>
0.2290610820

$$$$
[H]c1nc(N([H])c2c([H])c([H])c(Cl)c([H])c2Cl)c2c(n1)c([H])c([H])c1nc(C(=O)OC([H])([H])[H])sc12


 27 30  0  0  0  0  0  0  0  0999 V2000
  -85.1952   31.3523    0.5395 C   0  0  0  0  0  0  0  0  0  0  0  0
  -85.6833   32.3589   -0.1604 N   0  0  0  0  0  0  0  0  0  0  0  0
  -86.8399   32.2496   -0.7426 C   0  0  0  0  0  0  0  0  0  0  0  0
  -87.4731   33.2500   -1.4996 C   0  0  0  0  0  0  0  0  0  0  0  0
  -88.6871   33.0066   -2.0380 C   0  0  0  0  0  0  0  0  0  0  0  0
  -89.3879   31.8231   -1.9090 C   0  0  0  0  0  0  0  0  0  0  0  0
  -90.5840   31.6248   -2.4362 N   0  0  0  0  0  0  0  0  0  0  0  0
  -91.1772   30.4181   -2.2211 C   0  0  0  0  0  0  0  0  0  0  0  0
  -90.5837   29.4689   -1.5103 N   0  0  0  0  0  0  0  0  0  0  0  0
  -89.3527   29.5851   -0.9314 C   0  0  0  0  0  0  0  0  0  0  0  0
  -88.7645   30.8178   -1.1571 C   0  0  0  0  0  0  0  0  0  0  0  0
  -87.5232   31.0663   -0.6049 C   0  0  0  0  0  0  0  0  0  0  0  0
  -86.4196   30.1882    0.3752 S   0  0  0  0  0  0  0  0  0  0  0  0
  -83.9143   31.2607    1.2738 C   0  0  0  0  0  0  0  0  0  0  0  0
  -82.9914   32.0776    1.0688 O   0  0  0  0  0  0  0  0  0  0  0  0
  -82.8408   29.1834    2.0079 C   0  0  0  0  0  0  0  0  0  0  0  0
  -83.7914   30.2408    2.1853 O   0  0  0  0  0  0  0  0  0  0  0  0
  -88.7306   28.4967   -0.2890 N   0  0  0  0  0  0  0  0  0  0  0  0
  -87.9049   27.9992   -0.6688 H   0  0  0  0  0  0  0  0  0  0  0  0
  -89.2326   27.9750    0.9478 C   0  0  0  0  0  0  0  0  0  0  0  0
  -90.3477   28.3963    1.6143 C   0  0  0  0  0  0  0  0  0  0  0  0
  -90.6939   27.8399    2.8455 C   0  0  0  0  0  0  0  0  0  0  0  0
  -89.9396   26.8577    3.4369 C   0  0  0  0  0  0  0  0  0  0  0  0
  -90.4305   26.2012    4.9852 Cl  0  0  0  0  0  0  0  0  0  0  0  0
  -88.8129   26.4263    2.7751 C   0  0  0  0  0  0  0  0  0  0  0  0
  -88.4619   26.9664    1.5609 C   0  0  0  0  0  0  0  0  0  0  0  0
  -87.0138   26.3808    0.7363 Cl  0  0  0  0  0  0  0  0  0  0  0  0
 16 17  1  0  0  0
 17 14  1  0  0  0
 14 15  2  0  0  0
 14  1  1  0  0  0
  1  2  2  0  0  0
  2  3  1  0  0  0
  3  4  2  0  0  0
  4  5  1  0  0  0
  5  6  2  0  0  0
  6  7  1  0  0  0
  7  8  2  0  0  0
  8  9  1  0  0  0
  9 10  2  0  0  0
 10 18  1  0  0  0
 18 20  1  0  0  0
 20 21  2  0  0  0
 21 22  1  0  0  0
 22 23  2  0  0  0
 23 24  1  0  0  0
 23 25  1  0  0  0
 25 26  2  0  0  0
 26 27  1  0  0  0
 10 11  1  0  0  0
 11 12  2  0  0  0
 12 13  1  0  0  0
 13  1  1  0  0  0
 12  3  1  0  0  0
 11  6  1  0  0  0
 26 20  1  0  0  0
 18 19  1  0  0  0
M  END
> <minimizedAffinity>
-7.99796

> <CNNscore>
0.2248646021

> <CNNaffinity>
6.6470742226

> <CNN_VS>
1.4946917295

> <CNNaffinity_variance>
0.0755271465

$$$$
[H]c1nc(N([H])c2c([H])c([H])c(Cl)c([H])c2Cl)c2c(n1)c([H])c([H])c1nc(C(=O)OC([H])([H])[H])sc12


 27 30  0  0  0  0  0  0  0  0999 V2000
  -84.5248   30.4512    1.0240 C   0  0  0  0  0  0  0  0  0  0  0  0
  -84.4392   31.6190    0.4155 N   0  0  0  0  0  0  0  0  0  0  0  0
  -85.4534   32.0843   -0.2506 C   0  0  0  0  0  0  0  0  0  0  0  0
  -85.4936   33.3159   -0.9259 C   0  0  0  0  0  0  0  0  0  0  0  0
  -86.6227   33.6844   -1.5680 C   0  0  0  0  0  0  0  0  0  0  0  0
  -87.7822   32.9354   -1.6243 C   0  0  0  0  0  0  0  0  0  0  0  0
  -88.8767   33.3350   -2.2489 N   0  0  0  0  0  0  0  0  0  0  0  0
  -89.9601   32.5107   -2.2154 C   0  0  0  0  0  0  0  0  0  0  0  0
  -89.9276   31.3459   -1.5824 N   0  0  0  0  0  0  0  0  0  0  0  0
  -88.8438   30.8536   -0.9139 C   0  0  0  0  0  0  0  0  0  0  0  0
  -87.7522   31.7042   -0.9552 C   0  0  0  0  0  0  0  0  0  0  0  0
  -86.5981   31.3269   -0.2971 C   0  0  0  0  0  0  0  0  0  0  0  0
  -86.1097   29.9764    0.6447 S   0  0  0  0  0  0  0  0  0  0  0  0
  -83.5051   29.7398    1.8256 C   0  0  0  0  0  0  0  0  0  0  0  0
  -82.2856   29.9546    1.6586 O   0  0  0  0  0  0  0  0  0  0  0  0
  -83.4844   27.4883    2.7934 C   0  0  0  0  0  0  0  0  0  0  0  0
  -83.9624   28.8385    2.7555 O   0  0  0  0  0  0  0  0  0  0  0  0
  -88.8394   29.5571   -0.3630 N   0  0  0  0  0  0  0  0  0  0  0  0
  -88.3246   29.2992    0.4984 H   0  0  0  0  0  0  0  0  0  0  0  0
  -89.5397   28.4771   -0.9931 C   0  0  0  0  0  0  0  0  0  0  0  0
  -89.1933   27.8541   -2.1580 C   0  0  0  0  0  0  0  0  0  0  0  0
  -89.9989   26.8502   -2.6952 C   0  0  0  0  0  0  0  0  0  0  0  0
  -91.1619   26.4486   -2.0873 C   0  0  0  0  0  0  0  0  0  0  0  0
  -92.1281   25.1815   -2.8152 Cl  0  0  0  0  0  0  0  0  0  0  0  0
  -91.5217   27.0704   -0.9137 C   0  0  0  0  0  0  0  0  0  0  0  0
  -90.7356   28.0604   -0.3741 C   0  0  0  0  0  0  0  0  0  0  0  0
  -91.2248   28.8294    1.1389 Cl  0  0  0  0  0  0  0  0  0  0  0  0
 16 17  1  0  0  0
 17 14  1  0  0  0
 14 15  2  0  0  0
 14  1  1  0  0  0
  1  2  2  0  0  0
  2  3  1  0  0  0
  3  4  2  0  0  0
  4  5  1  0  0  0
  5  6  2  0  0  0
  6  7  1  0  0  0
  7  8  2  0  0  0
  8  9  1  0  0  0
  9 10  2  0  0  0
 10 18  1  0  0  0
 18 20  1  0  0  0
 20 21  2  0  0  0
 21 22  1  0  0  0
 22 23  2  0  0  0
 23 24  1  0  0  0
 23 25  1  0  0  0
 25 26  2  0  0  0
 26 27  1  0  0  0
 10 11  1  0  0  0
 11 12  2  0  0  0
 12 13  1  0  0  0
 13  1  1  0  0  0
 12  3  1  0  0  0
 11  6  1  0  0  0
 26 20  1  0  0  0
 18 19  1  0  0  0
M  END
> <minimizedAffinity>
-7.57087

> <CNNscore>
0.1474397182

> <CNNaffinity>
6.2794747353

> <CNN_VS>
0.9258440137

> <CNNaffinity_variance>
0.1843712032

$$$$
[H]c1nc(N([H])c2c([H])c([H])c(Cl)c([H])c2Cl)c2c(n1)c([H])c([H])c1nc(C(=O)OC([H])([H])[H])sc12


 27 30  0  0  0  0  0  0  0  0999 V2000
  -85.6262   29.0595    1.1923 C   0  0  0  0  0  0  0  0  0  0  0  0
  -85.0153   30.2275    1.1295 N   0  0  0  0  0  0  0  0  0  0  0  0
  -85.5046   31.1819    0.3957 C   0  0  0  0  0  0  0  0  0  0  0  0
  -84.9597   32.4699    0.2578 C   0  0  0  0  0  0  0  0  0  0  0  0
  -85.5824   33.3734   -0.5287 C   0  0  0  0  0  0  0  0  0  0  0  0
  -86.7463   33.1396   -1.2354 C   0  0  0  0  0  0  0  0  0  0  0  0
  -87.3390   34.0541   -1.9838 N   0  0  0  0  0  0  0  0  0  0  0  0
  -88.4928   33.7025   -2.6161 C   0  0  0  0  0  0  0  0  0  0  0  0
  -89.0104   32.4880   -2.4925 N   0  0  0  0  0  0  0  0  0  0  0  0
  -88.4677   31.4833   -1.7441 C   0  0  0  0  0  0  0  0  0  0  0  0
  -87.2974   31.8574   -1.1062 C   0  0  0  0  0  0  0  0  0  0  0  0
  -86.6617   30.9328   -0.3008 C   0  0  0  0  0  0  0  0  0  0  0  0
  -86.9580   29.3079    0.1696 S   0  0  0  0  0  0  0  0  0  0  0  0
  -85.2482   27.8486    1.9533 C   0  0  0  0  0  0  0  0  0  0  0  0
  -84.3455   27.8828    2.8165 O   0  0  0  0  0  0  0  0  0  0  0  0
  -87.2600   26.4638    2.1576 C   0  0  0  0  0  0  0  0  0  0  0  0
  -85.9340   26.6939    1.6658 O   0  0  0  0  0  0  0  0  0  0  0  0
  -89.0059   30.1815   -1.7502 N   0  0  0  0  0  0  0  0  0  0  0  0
  -88.4909   29.3439   -1.4234 H   0  0  0  0  0  0  0  0  0  0  0  0
  -90.3232   29.9218   -2.2514 C   0  0  0  0  0  0  0  0  0  0  0  0
  -90.7344   30.0293   -3.5492 C   0  0  0  0  0  0  0  0  0  0  0  0
  -92.0666   29.8029   -3.8949 C   0  0  0  0  0  0  0  0  0  0  0  0
  -93.0132   29.4679   -2.9595 C   0  0  0  0  0  0  0  0  0  0  0  0
  -94.6699   29.1971   -3.4607 Cl  0  0  0  0  0  0  0  0  0  0  0  0
  -92.6105   29.3582   -1.6483 C   0  0  0  0  0  0  0  0  0  0  0  0
  -91.3004   29.5779   -1.2954 C   0  0  0  0  0  0  0  0  0  0  0  0
  -90.8186   29.4186    0.3964 Cl  0  0  0  0  0  0  0  0  0  0  0  0
 16 17  1  0  0  0
 17 14  1  0  0  0
 14 15  2  0  0  0
 14  1  1  0  0  0
  1  2  2  0  0  0
  2  3  1  0  0  0
  3  4  2  0  0  0
  4  5  1  0  0  0
  5  6  2  0  0  0
  6  7  1  0  0  0
  7  8  2  0  0  0
  8  9  1  0  0  0
  9 10  2  0  0  0
 10 18  1  0  0  0
 18 20  1  0  0  0
 20 21  2  0  0  0
 21 22  1  0  0  0
 22 23  2  0  0  0
 23 24  1  0  0  0
 23 25  1  0  0  0
 25 26  2  0  0  0
 26 27  1  0  0  0
 10 11  1  0  0  0
 11 12  2  0  0  0
 12 13  1  0  0  0
 13  1  1  0  0  0
 12  3  1  0  0  0
 11  6  1  0  0  0
 26 20  1  0  0  0
 18 19  1  0  0  0
M  END
> <minimizedAffinity>
-7.17766

> <CNNscore>
0.1428398937

> <CNNaffinity>
6.4060325623

> <CNN_VS>
0.9150370359

> <CNNaffinity_variance>
0.1555639952

$$$$
[H]c1nc(N([H])c2c([H])c([H])c(Cl)c([H])c2Cl)c2c(n1)c([H])c([H])c1nc(C(=O)OC([H])([H])[H])sc12


 27 30  0  0  0  0  0  0  0  0999 V2000
  -86.5903   32.1900   -0.8852 C   0  0  0  0  0  0  0  0  0  0  0  0
  -85.5567   31.7646   -0.1838 N   0  0  0  0  0  0  0  0  0  0  0  0
  -85.6106   30.6207    0.4305 C   0  0  0  0  0  0  0  0  0  0  0  0
  -84.5764   30.0515    1.1930 C   0  0  0  0  0  0  0  0  0  0  0  0
  -84.7621   28.8434    1.7665 C   0  0  0  0  0  0  0  0  0  0  0  0
  -85.9158   28.0895    1.6696 C   0  0  0  0  0  0  0  0  0  0  0  0
  -86.0574   26.9010    2.2309 N   0  0  0  0  0  0  0  0  0  0  0  0
  -87.2397   26.2513    2.0452 C   0  0  0  0  0  0  0  0  0  0  0  0
  -88.2205   26.7842    1.3294 N   0  0  0  0  0  0  0  0  0  0  0  0
  -88.1629   28.0028    0.7164 C   0  0  0  0  0  0  0  0  0  0  0  0
  -86.9543   28.6489    0.9125 C   0  0  0  0  0  0  0  0  0  0  0  0
  -86.7648   29.8841    0.3244 C   0  0  0  0  0  0  0  0  0  0  0  0
  -87.6991   30.9222   -0.6751 S   0  0  0  0  0  0  0  0  0  0  0  0
  -86.7440   33.4453   -1.6526 C   0  0  0  0  0  0  0  0  0  0  0  0
  -86.0001   34.4270   -1.4425 O   0  0  0  0  0  0  0  0  0  0  0  0
  -87.6176   34.2671   -3.7899 C   0  0  0  0  0  0  0  0  0  0  0  0
  -87.7375   33.4774   -2.6003 O   0  0  0  0  0  0  0  0  0  0  0  0
  -89.2833   28.5603    0.0697 N   0  0  0  0  0  0  0  0  0  0  0  0
  -89.5517   29.5585    0.1407 H   0  0  0  0  0  0  0  0  0  0  0  0
  -90.1641   27.7542   -0.7231 C   0  0  0  0  0  0  0  0  0  0  0  0
  -91.3349   27.1844   -0.3115 C   0  0  0  0  0  0  0  0  0  0  0  0
  -92.0711   26.3696   -1.1715 C   0  0  0  0  0  0  0  0  0  0  0  0
  -91.6579   26.1052   -2.4531 C   0  0  0  0  0  0  0  0  0  0  0  0
  -92.6298   25.0730   -3.4822 Cl  0  0  0  0  0  0  0  0  0  0  0  0
  -90.4786   26.6728   -2.8783 C   0  0  0  0  0  0  0  0  0  0  0  0
  -89.7449   27.4781   -2.0403 C   0  0  0  0  0  0  0  0  0  0  0  0
  -88.2409   28.1971   -2.6242 Cl  0  0  0  0  0  0  0  0  0  0  0  0
 16 17  1  0  0  0
 17 14  1  0  0  0
 14 15  2  0  0  0
 14  1  1  0  0  0
  1  2  2  0  0  0
  2  3  1  0  0  0
  3  4  2  0  0  0
  4  5  1  0  0  0
  5  6  2  0  0  0
  6  7  1  0  0  0
  7  8  2  0  0  0
  8  9  1  0  0  0
  9 10  2  0  0  0
 10 18  1  0  0  0
 18 20  1  0  0  0
 20 21  2  0  0  0
 21 22  1  0  0  0
 22 23  2  0  0  0
 23 24  1  0  0  0
 23 25  1  0  0  0
 25 26  2  0  0  0
 26 27  1  0  0  0
 10 11  1  0  0  0
 11 12  2  0  0  0
 12 13  1  0  0  0
 13  1  1  0  0  0
 12  3  1  0  0  0
 11  6  1  0  0  0
 26 20  1  0  0  0
 18 19  1  0  0  0
M  END
> <minimizedAffinity>
-6.95435

> <CNNscore>
0.1124599278

> <CNNaffinity>
6.1977906227

> <CNN_VS>
0.6970030665

> <CNNaffinity_variance>
0.2437215298

$$$$
